REMARK VINA RESULT:      -4.8      0.000      0.000
REMARK  7 active torsions:
REMARK  status: ('A' for Active; 'I' for Inactive)
REMARK    1  A    between atoms: C_2  and  C_3 
REMARK    2  A    between atoms: C_3  and  O_6 
REMARK    3  A    between atoms: C_3  and  C_4 
REMARK    4  A    between atoms: C_7  and  O_6 
REMARK    5  A    between atoms: C_9  and  C_10 
REMARK    6  A    between atoms: N_15  and  C_14 
REMARK    7  A    between atoms: N_20  and  C_19 
REMARK       I    between atoms: C_22  and  N_20 
ROOT
ATOM      1  C   LIG d   1      -0.620  59.471 119.967  0.00  0.00     0.161 C 
ATOM      2  C   LIG d   1       0.477  59.520 119.091  0.00  0.00     0.016 C 
ATOM      3  C   LIG d   1       1.777  59.905 119.493  0.00  0.00     0.038 C 
ATOM      4  C   LIG d   1       2.102  60.122 120.840  0.00  0.00     0.028 C 
ATOM      5  C   LIG d   1       0.916  60.574 121.685  0.00  0.00    -0.047 C 
ATOM      6  C   LIG d   1      -0.260  59.596 121.462  0.00  0.00     0.091 C 
ENDROOT
BRANCH   1   7
ATOM      7  O   LIG d   1      -1.378  58.267 119.733  0.00  0.00    -0.368 OA
BRANCH   7   8
ATOM      8  C   LIG d   1      -1.537  57.873 118.348  0.00  0.00     0.119 C 
BRANCH   8   9
ATOM      9  C   LIG d   1      -3.031  58.014 117.996  0.00  0.00     0.028 C 
ATOM     10  C   LIG d   1      -3.390  59.432 117.519  0.00  0.00     0.006 C 
ENDBRANCH   8   9
BRANCH   8  11
ATOM     11  C   LIG d   1      -1.213  56.389 118.150  0.00  0.00     0.028 C 
ATOM     12  C   LIG d   1       0.065  56.164 117.325  0.00  0.00     0.006 C 
ENDBRANCH   8  11
ENDBRANCH   7   8
ENDBRANCH   1   7
BRANCH   6  13
ATOM     13  N   LIG d   1      -1.489  60.013 122.187  0.00  0.00    -0.311 N 
ATOM     14  C   LIG d   1      -1.799  59.586 123.409  0.00  0.00     0.210 C 
ATOM     15  C   LIG d   1      -3.122  60.123 123.966  0.00  0.00     0.109 C 
ATOM     16  O   LIG d   1      -1.089  58.838 124.099  0.00  0.00    -0.276 OA
ATOM     17  H   LIG d   1      -2.106  60.643 121.713  0.00  0.00     0.149 HD
ENDBRANCH   6  13
BRANCH   5  18
ATOM     18  N   LIG d   1       1.364  60.629 123.089  0.00  0.00     0.381 N 
ATOM     19  H   LIG d   1       2.216  61.151 123.153  0.00  0.00    -0.090 HD
ATOM     20  H   LIG d   1       1.542  59.694 123.410  0.00  0.00    -0.090 HD
ATOM     21  H   LIG d   1       0.663  61.054 123.654  0.00  0.00    -0.090 HD
ENDBRANCH   5  18
BRANCH   3  22
ATOM     22  C   LIG d   1       2.758  60.115 118.536  0.00  0.00     0.382 C 
ATOM     23  O   LIG d   1       2.508  59.902 117.325  0.00  0.00    -0.241 OA
ATOM     24  O   LIG d   1       3.903  60.472 118.873  0.00  0.00    -0.241 OA
ENDBRANCH   3  22
TORSDOF 7
