MODEL 1
REMARK VINA RESULT:      -6.1      0.000      0.000
REMARK  7 active torsions:
REMARK  status: ('A' for Active; 'I' for Inactive)
REMARK    1  A    between atoms: C_2  and  C_3 
REMARK    2  A    between atoms: C_3  and  O_6 
REMARK    3  A    between atoms: C_3  and  C_4 
REMARK    4  A    between atoms: C_7  and  O_6 
REMARK    5  A    between atoms: C_9  and  C_10 
REMARK    6  A    between atoms: N_15  and  C_14 
REMARK    7  A    between atoms: N_20  and  C_19 
REMARK       I    between atoms: C_22  and  N_20 
ROOT
ATOM      1  C   LIG d   1       0.244  82.600 111.905  0.00  0.00     0.161 C 
ATOM      2  C   LIG d   1      -0.966  82.171 112.476  0.00  0.00     0.016 C 
ATOM      3  C   LIG d   1      -1.507  80.880 112.274  0.00  0.00     0.038 C 
ATOM      4  C   LIG d   1      -0.794  79.873 111.606  0.00  0.00     0.028 C 
ATOM      5  C   LIG d   1       0.201  80.413 110.584  0.00  0.00    -0.047 C 
ATOM      6  C   LIG d   1       1.090  81.480 111.264  0.00  0.00     0.091 C 
ENDROOT
BRANCH   1   7
ATOM      7  O   LIG d   1       1.020  83.315 112.886  0.00  0.00    -0.368 OA
BRANCH   7   8
ATOM      8  C   LIG d   1       1.144  84.744 112.682  0.00  0.00     0.119 C 
BRANCH   8   9
ATOM      9  C   LIG d   1       2.633  85.049 112.428  0.00  0.00     0.028 C 
ATOM     10  C   LIG d   1       2.873  85.700 111.055  0.00  0.00     0.006 C 
ENDBRANCH   8   9
BRANCH   8  11
ATOM     11  C   LIG d   1       0.783  85.522 113.951  0.00  0.00     0.028 C 
ATOM     12  C   LIG d   1      -0.670  85.292 114.397  0.00  0.00     0.006 C 
ENDBRANCH   8  11
ENDBRANCH   7   8
ENDBRANCH   1   7
BRANCH   6  13
ATOM     13  N   LIG d   1       2.036  82.119 110.312  0.00  0.00    -0.311 N 
ATOM     14  C   LIG d   1       3.356  81.953 110.368  0.00  0.00     0.210 C 
ATOM     15  C   LIG d   1       4.150  82.718 109.305  0.00  0.00     0.109 C 
ATOM     16  O   LIG d   1       3.943  81.219 111.178  0.00  0.00    -0.276 OA
ATOM     17  H   LIG d   1       1.642  82.707 109.604  0.00  0.00     0.149 HD
ENDBRANCH   6  13
BRANCH   5  18
ATOM     18  N   LIG d   1       0.970  79.267 110.063  0.00  0.00     0.381 N 
ATOM     19  H   LIG d   1       0.862  79.210 109.070  0.00  0.00    -0.090 HD
ATOM     20  H   LIG d   1       0.609  78.422 110.469  0.00  0.00    -0.090 HD
ATOM     21  H   LIG d   1       1.934  79.370 110.294  0.00  0.00    -0.090 HD
ENDBRANCH   5  18
BRANCH   3  22
ATOM     22  C   LIG d   1      -2.792  80.598 112.710  0.00  0.00     0.382 C 
ATOM     23  O   LIG d   1      -2.997  79.616 113.465  0.00  0.00    -0.241 OA
ATOM     24  O   LIG d   1      -3.756  81.286 112.324  0.00  0.00    -0.241 OA
ENDBRANCH   3  22
TORSDOF 7
ENDMDL
MODEL 2
REMARK VINA RESULT:      -5.8      2.657      5.688
REMARK  7 active torsions:
REMARK  status: ('A' for Active; 'I' for Inactive)
REMARK    1  A    between atoms: C_2  and  C_3 
REMARK    2  A    between atoms: C_3  and  O_6 
REMARK    3  A    between atoms: C_3  and  C_4 
REMARK    4  A    between atoms: C_7  and  O_6 
REMARK    5  A    between atoms: C_9  and  C_10 
REMARK    6  A    between atoms: N_15  and  C_14 
REMARK    7  A    between atoms: N_20  and  C_19 
REMARK       I    between atoms: C_22  and  N_20 
ROOT
ATOM      1  C   LIG d   1       2.783  83.967 112.161  0.00  0.00     0.161 C 
ATOM      2  C   LIG d   1       3.263  85.236 112.527  0.00  0.00     0.016 C 
ATOM      3  C   LIG d   1       2.867  86.432 111.885  0.00  0.00     0.038 C 
ATOM      4  C   LIG d   1       1.843  86.455 110.927  0.00  0.00     0.028 C 
ATOM      5  C   LIG d   1       1.690  85.140 110.171  0.00  0.00    -0.047 C 
ATOM      6  C   LIG d   1       1.582  83.984 111.193  0.00  0.00     0.091 C 
ENDROOT
BRANCH   1   7
ATOM      7  O   LIG d   1       2.463  83.207 113.343  0.00  0.00    -0.368 OA
BRANCH   7   8
ATOM      8  C   LIG d   1       1.222  83.552 114.006  0.00  0.00     0.119 C 
BRANCH   8   9
ATOM      9  C   LIG d   1       1.565  83.941 115.457  0.00  0.00     0.028 C 
ATOM     10  C   LIG d   1       2.978  83.492 115.867  0.00  0.00     0.006 C 
ENDBRANCH   8   9
BRANCH   8  11
ATOM     11  C   LIG d   1       0.295  82.338 114.120  0.00  0.00     0.028 C 
ATOM     12  C   LIG d   1       1.011  81.011 113.826  0.00  0.00     0.006 C 
ENDBRANCH   8  11
ENDBRANCH   7   8
ENDBRANCH   1   7
BRANCH   6  13
ATOM     13  N   LIG d   1       1.514  82.652 110.537  0.00  0.00    -0.311 N 
ATOM     14  C   LIG d   1       0.374  81.998 110.323  0.00  0.00     0.210 C 
ATOM     15  C   LIG d   1       0.530  80.630 109.650  0.00  0.00     0.109 C 
ATOM     16  O   LIG d   1      -0.754  82.433 110.598  0.00  0.00    -0.276 OA
ATOM     17  H   LIG d   1       2.381  82.239 110.253  0.00  0.00     0.149 HD
ENDBRANCH   6  13
BRANCH   5  18
ATOM     18  N   LIG d   1       0.502  85.258 109.305  0.00  0.00     0.381 N 
ATOM     19  H   LIG d   1       0.244  84.356 108.958  0.00  0.00    -0.090 HD
ATOM     20  H   LIG d   1       0.728  85.845 108.522  0.00  0.00    -0.090 HD
ATOM     21  H   LIG d   1      -0.256  85.654 109.818  0.00  0.00    -0.090 HD
ENDBRANCH   5  18
BRANCH   3  22
ATOM     22  C   LIG d   1       3.527  87.617 112.173  0.00  0.00     0.382 C 
ATOM     23  O   LIG d   1       4.777  87.676 112.085  0.00  0.00    -0.241 OA
ATOM     24  O   LIG d   1       2.892  88.616 112.562  0.00  0.00    -0.241 OA
ENDBRANCH   3  22
TORSDOF 7
ENDMDL
MODEL 3
REMARK VINA RESULT:      -5.8      2.214      5.169
REMARK  7 active torsions:
REMARK  status: ('A' for Active; 'I' for Inactive)
REMARK    1  A    between atoms: C_2  and  C_3 
REMARK    2  A    between atoms: C_3  and  O_6 
REMARK    3  A    between atoms: C_3  and  C_4 
REMARK    4  A    between atoms: C_7  and  O_6 
REMARK    5  A    between atoms: C_9  and  C_10 
REMARK    6  A    between atoms: N_15  and  C_14 
REMARK    7  A    between atoms: N_20  and  C_19 
REMARK       I    between atoms: C_22  and  N_20 
ROOT
ATOM      1  C   LIG d   1      -0.106  83.641 112.887  0.00  0.00     0.161 C 
ATOM      2  C   LIG d   1       0.632  84.716 112.363  0.00  0.00     0.016 C 
ATOM      3  C   LIG d   1       1.098  84.763 111.029  0.00  0.00     0.038 C 
ATOM      4  C   LIG d   1       0.725  83.800 110.080  0.00  0.00     0.028 C 
ATOM      5  C   LIG d   1       0.402  82.441 110.690  0.00  0.00    -0.047 C 
ATOM      6  C   LIG d   1      -0.617  82.634 111.836  0.00  0.00     0.091 C 
ENDROOT
BRANCH   1   7
ATOM      7  O   LIG d   1      -1.203  84.141 113.677  0.00  0.00    -0.368 OA
BRANCH   7   8
ATOM      8  C   LIG d   1      -0.857  85.069 114.734  0.00  0.00     0.119 C 
BRANCH   8   9
ATOM      9  C   LIG d   1      -0.417  84.237 115.954  0.00  0.00     0.028 C 
ATOM     10  C   LIG d   1       1.089  84.362 116.237  0.00  0.00     0.006 C 
ENDBRANCH   8   9
BRANCH   8  11
ATOM     11  C   LIG d   1      -2.081  85.861 115.203  0.00  0.00     0.028 C 
ATOM     12  C   LIG d   1      -1.979  86.302 116.672  0.00  0.00     0.006 C 
ENDBRANCH   8  11
ENDBRANCH   7   8
ENDBRANCH   1   7
BRANCH   6  13
ATOM     13  N   LIG d   1      -0.924  81.363 112.542  0.00  0.00    -0.311 N 
ATOM     14  C   LIG d   1      -2.159  80.891 112.699  0.00  0.00     0.210 C 
ATOM     15  C   LIG d   1      -2.255  79.574 113.475  0.00  0.00     0.109 C 
ATOM     16  O   LIG d   1      -3.182  81.422 112.240  0.00  0.00    -0.276 OA
ATOM     17  H   LIG d   1      -0.149  80.852 112.919  0.00  0.00     0.149 HD
ENDBRANCH   6  13
BRANCH   5  18
ATOM     18  N   LIG d   1      -0.102  81.575 109.607  0.00  0.00     0.381 N 
ATOM     19  H   LIG d   1       0.018  82.031 108.725  0.00  0.00    -0.090 HD
ATOM     20  H   LIG d   1      -1.084  81.416 109.749  0.00  0.00    -0.090 HD
ATOM     21  H   LIG d   1       0.386  80.706 109.609  0.00  0.00    -0.090 HD
ENDBRANCH   5  18
BRANCH   3  22
ATOM     22  C   LIG d   1       1.980  85.761 110.644  0.00  0.00     0.382 C 
ATOM     23  O   LIG d   1       1.582  86.948 110.553  0.00  0.00    -0.241 OA
ATOM     24  O   LIG d   1       3.156  85.484 110.344  0.00  0.00    -0.241 OA
ENDBRANCH   3  22
TORSDOF 7
ENDMDL
MODEL 4
REMARK VINA RESULT:      -5.7      3.121      4.946
REMARK  7 active torsions:
REMARK  status: ('A' for Active; 'I' for Inactive)
REMARK    1  A    between atoms: C_2  and  C_3 
REMARK    2  A    between atoms: C_3  and  O_6 
REMARK    3  A    between atoms: C_3  and  C_4 
REMARK    4  A    between atoms: C_7  and  O_6 
REMARK    5  A    between atoms: C_9  and  C_10 
REMARK    6  A    between atoms: N_15  and  C_14 
REMARK    7  A    between atoms: N_20  and  C_19 
REMARK       I    between atoms: C_22  and  N_20 
ROOT
ATOM      1  C   LIG d   1       2.060  84.557 112.784  0.00  0.00     0.161 C 
ATOM      2  C   LIG d   1       1.120  83.513 112.786  0.00  0.00     0.016 C 
ATOM      3  C   LIG d   1      -0.105  83.570 113.491  0.00  0.00     0.038 C 
ATOM      4  C   LIG d   1      -0.542  84.744 114.123  0.00  0.00     0.028 C 
ATOM      5  C   LIG d   1       0.598  85.652 114.571  0.00  0.00    -0.047 C 
ATOM      6  C   LIG d   1       1.551  85.887 113.377  0.00  0.00     0.091 C 
ENDROOT
BRANCH   1   7
ATOM      7  O   LIG d   1       2.559  84.762 111.448  0.00  0.00    -0.368 OA
BRANCH   7   8
ATOM      8  C   LIG d   1       1.708  84.299 110.371  0.00  0.00     0.119 C 
BRANCH   8   9
ATOM      9  C   LIG d   1       2.617  83.657 109.305  0.00  0.00     0.028 C 
ATOM     10  C   LIG d   1       3.568  82.607 109.901  0.00  0.00     0.006 C 
ENDBRANCH   8   9
BRANCH   8  11
ATOM     11  C   LIG d   1       1.018  85.470 109.664  0.00  0.00     0.028 C 
ATOM     12  C   LIG d   1      -0.459  85.619 110.062  0.00  0.00     0.006 C 
ENDBRANCH   8  11
ENDBRANCH   7   8
ENDBRANCH   1   7
BRANCH   6  13
ATOM     13  N   LIG d   1       2.739  86.697 113.752  0.00  0.00    -0.311 N 
ATOM     14  C   LIG d   1       3.133  87.777 113.078  0.00  0.00     0.210 C 
ATOM     15  C   LIG d   1       4.395  88.453 113.621  0.00  0.00     0.109 C 
ATOM     16  O   LIG d   1       2.537  88.257 112.102  0.00  0.00    -0.276 OA
ATOM     17  H   LIG d   1       3.263  86.397 114.551  0.00  0.00     0.149 HD
ENDBRANCH   6  13
BRANCH   5  18
ATOM     18  N   LIG d   1      -0.001  86.897 115.088  0.00  0.00     0.381 N 
ATOM     19  H   LIG d   1      -0.885  87.055 114.649  0.00  0.00    -0.090 HD
ATOM     20  H   LIG d   1       0.605  87.666 114.863  0.00  0.00    -0.090 HD
ATOM     21  H   LIG d   1      -0.119  86.834 116.075  0.00  0.00    -0.090 HD
ENDBRANCH   5  18
BRANCH   3  22
ATOM     22  C   LIG d   1      -0.888  82.431 113.601  0.00  0.00     0.382 C 
ATOM     23  O   LIG d   1      -1.929  82.317 112.910  0.00  0.00    -0.241 OA
ATOM     24  O   LIG d   1      -0.590  81.537 114.415  0.00  0.00    -0.241 OA
ENDBRANCH   3  22
TORSDOF 7
ENDMDL
MODEL 5
REMARK VINA RESULT:      -5.7      2.440      5.759
REMARK  7 active torsions:
REMARK  status: ('A' for Active; 'I' for Inactive)
REMARK    1  A    between atoms: C_2  and  C_3 
REMARK    2  A    between atoms: C_3  and  O_6 
REMARK    3  A    between atoms: C_3  and  C_4 
REMARK    4  A    between atoms: C_7  and  O_6 
REMARK    5  A    between atoms: C_9  and  C_10 
REMARK    6  A    between atoms: N_15  and  C_14 
REMARK    7  A    between atoms: N_20  and  C_19 
REMARK       I    between atoms: C_22  and  N_20 
ROOT
ATOM      1  C   LIG d   1       1.208  84.750 112.763  0.00  0.00     0.161 C 
ATOM      2  C   LIG d   1       1.824  86.007 112.876  0.00  0.00     0.016 C 
ATOM      3  C   LIG d   1       2.793  86.484 111.963  0.00  0.00     0.038 C 
ATOM      4  C   LIG d   1       3.103  85.792 110.783  0.00  0.00     0.028 C 
ATOM      5  C   LIG d   1       2.879  84.288 110.886  0.00  0.00    -0.047 C 
ATOM      6  C   LIG d   1       1.452  84.028 111.421  0.00  0.00     0.091 C 
ENDROOT
BRANCH   1   7
ATOM      7  O   LIG d   1      -0.205  84.874 113.016  0.00  0.00    -0.368 OA
BRANCH   7   8
ATOM      8  C   LIG d   1      -0.675  84.350 114.283  0.00  0.00     0.119 C 
BRANCH   8   9
ATOM      9  C   LIG d   1      -0.908  85.550 115.221  0.00  0.00     0.028 C 
ATOM     10  C   LIG d   1      -2.383  85.986 115.261  0.00  0.00     0.006 C 
ENDBRANCH   8   9
BRANCH   8  11
ATOM     11  C   LIG d   1       0.401  83.503 114.968  0.00  0.00     0.028 C 
ATOM     12  C   LIG d   1       0.017  82.018 115.066  0.00  0.00     0.006 C 
ENDBRANCH   8  11
ENDBRANCH   7   8
ENDBRANCH   1   7
BRANCH   6  13
ATOM     13  N   LIG d   1       1.179  82.583 111.632  0.00  0.00    -0.311 N 
ATOM     14  C   LIG d   1       0.047  81.989 111.260  0.00  0.00     0.210 C 
ATOM     15  C   LIG d   1      -0.038  80.495 111.589  0.00  0.00     0.109 C 
ATOM     16  O   LIG d   1      -0.883  82.550 110.661  0.00  0.00    -0.276 OA
ATOM     17  H   LIG d   1       1.893  82.045 112.083  0.00  0.00     0.149 HD
ENDBRANCH   6  13
BRANCH   5  18
ATOM     18  N   LIG d   1       3.108  83.710 109.548  0.00  0.00     0.381 N 
ATOM     19  H   LIG d   1       3.057  84.430 108.855  0.00  0.00    -0.090 HD
ATOM     20  H   LIG d   1       2.387  83.037 109.356  0.00  0.00    -0.090 HD
ATOM     21  H   LIG d   1       4.001  83.270 109.515  0.00  0.00    -0.090 HD
ENDBRANCH   5  18
BRANCH   3  22
ATOM     22  C   LIG d   1       3.493  87.647 112.248  0.00  0.00     0.382 C 
ATOM     23  O   LIG d   1       2.876  88.673 112.624  0.00  0.00    -0.241 OA
ATOM     24  O   LIG d   1       4.727  87.695 112.093  0.00  0.00    -0.241 OA
ENDBRANCH   3  22
TORSDOF 7
ENDMDL
MODEL 6
REMARK VINA RESULT:      -5.7      3.430      6.971
REMARK  7 active torsions:
REMARK  status: ('A' for Active; 'I' for Inactive)
REMARK    1  A    between atoms: C_2  and  C_3 
REMARK    2  A    between atoms: C_3  and  O_6 
REMARK    3  A    between atoms: C_3  and  C_4 
REMARK    4  A    between atoms: C_7  and  O_6 
REMARK    5  A    between atoms: C_9  and  C_10 
REMARK    6  A    between atoms: N_15  and  C_14 
REMARK    7  A    between atoms: N_20  and  C_19 
REMARK       I    between atoms: C_22  and  N_20 
ROOT
ATOM      1  C   LIG d   1       1.875  86.473 114.049  0.00  0.00     0.161 C 
ATOM      2  C   LIG d   1       2.780  87.547 114.033  0.00  0.00     0.016 C 
ATOM      3  C   LIG d   1       3.644  87.821 112.947  0.00  0.00     0.038 C 
ATOM      4  C   LIG d   1       3.553  87.124 111.733  0.00  0.00     0.028 C 
ATOM      5  C   LIG d   1       3.003  85.710 111.886  0.00  0.00    -0.047 C 
ATOM      6  C   LIG d   1       1.683  85.769 112.689  0.00  0.00     0.091 C 
ENDROOT
BRANCH   1   7
ATOM      7  O   LIG d   1       0.604  86.913 114.569  0.00  0.00    -0.368 OA
BRANCH   7   8
ATOM      8  C   LIG d   1       0.333  86.580 115.953  0.00  0.00     0.119 C 
BRANCH   8   9
ATOM      9  C   LIG d   1      -0.734  85.468 115.961  0.00  0.00     0.028 C 
ATOM     10  C   LIG d   1      -2.013  85.877 115.211  0.00  0.00     0.006 C 
ENDBRANCH   8   9
BRANCH   8  11
ATOM     11  C   LIG d   1      -0.304  87.759 116.694  0.00  0.00     0.028 C 
ATOM     12  C   LIG d   1       0.499  89.060 116.547  0.00  0.00     0.006 C 
ENDBRANCH   8  11
ENDBRANCH   7   8
ENDBRANCH   1   7
BRANCH   6  13
ATOM     13  N   LIG d   1       1.121  84.419 112.957  0.00  0.00    -0.311 N 
ATOM     14  C   LIG d   1      -0.100  84.045 112.579  0.00  0.00     0.210 C 
ATOM     15  C   LIG d   1      -0.489  82.617 112.973  0.00  0.00     0.109 C 
ATOM     16  O   LIG d   1      -0.885  84.749 111.927  0.00  0.00    -0.276 OA
ATOM     17  H   LIG d   1       1.703  83.774 113.454  0.00  0.00     0.149 HD
ENDBRANCH   6  13
BRANCH   5  18
ATOM     18  N   LIG d   1       2.832  85.149 110.533  0.00  0.00     0.381 N 
ATOM     19  H   LIG d   1       3.046  85.846 109.848  0.00  0.00    -0.090 HD
ATOM     20  H   LIG d   1       1.873  84.874 110.414  0.00  0.00    -0.090 HD
ATOM     21  H   LIG d   1       3.428  84.360 110.413  0.00  0.00    -0.090 HD
ENDBRANCH   5  18
BRANCH   3  22
ATOM     22  C   LIG d   1       4.639  88.777 113.085  0.00  0.00     0.382 C 
ATOM     23  O   LIG d   1       4.410  89.832 113.723  0.00  0.00    -0.241 OA
ATOM     24  O   LIG d   1       5.748  88.617 112.541  0.00  0.00    -0.241 OA
ENDBRANCH   3  22
TORSDOF 7
ENDMDL
MODEL 7
REMARK VINA RESULT:      -5.7      2.523      6.017
REMARK  7 active torsions:
REMARK  status: ('A' for Active; 'I' for Inactive)
REMARK    1  A    between atoms: C_2  and  C_3 
REMARK    2  A    between atoms: C_3  and  O_6 
REMARK    3  A    between atoms: C_3  and  C_4 
REMARK    4  A    between atoms: C_7  and  O_6 
REMARK    5  A    between atoms: C_9  and  C_10 
REMARK    6  A    between atoms: N_15  and  C_14 
REMARK    7  A    between atoms: N_20  and  C_19 
REMARK       I    between atoms: C_22  and  N_20 
ROOT
ATOM      1  C   LIG d   1       0.870  84.276 110.891  0.00  0.00     0.161 C 
ATOM      2  C   LIG d   1       1.780  85.344 110.824  0.00  0.00     0.016 C 
ATOM      3  C   LIG d   1       2.260  86.030 111.963  0.00  0.00     0.038 C 
ATOM      4  C   LIG d   1       1.977  85.593 113.265  0.00  0.00     0.028 C 
ATOM      5  C   LIG d   1       0.660  84.831 113.376  0.00  0.00    -0.047 C 
ATOM      6  C   LIG d   1       0.636  83.714 112.309  0.00  0.00     0.091 C 
ENDROOT
BRANCH   1   7
ATOM      7  O   LIG d   1       1.285  83.224 109.997  0.00  0.00    -0.368 OA
BRANCH   7   8
ATOM      8  C   LIG d   1       2.379  82.392 110.456  0.00  0.00     0.119 C 
BRANCH   8   9
ATOM      9  C   LIG d   1       3.548  82.579 109.469  0.00  0.00     0.028 C 
ATOM     10  C   LIG d   1       4.706  81.604 109.740  0.00  0.00     0.006 C 
ENDBRANCH   8   9
BRANCH   8  11
ATOM     11  C   LIG d   1       2.019  80.905 110.379  0.00  0.00     0.028 C 
ATOM     12  C   LIG d   1       0.642  80.658 109.742  0.00  0.00     0.006 C 
ENDBRANCH   8  11
ENDBRANCH   7   8
ENDBRANCH   1   7
BRANCH   6  13
ATOM     13  N   LIG d   1      -0.652  82.973 112.292  0.00  0.00    -0.311 N 
ATOM     14  C   LIG d   1      -0.843  81.819 112.929  0.00  0.00     0.210 C 
ATOM     15  C   LIG d   1      -2.240  81.213 112.765  0.00  0.00     0.109 C 
ATOM     16  O   LIG d   1       0.003  81.256 113.640  0.00  0.00    -0.276 OA
ATOM     17  H   LIG d   1      -1.402  83.375 111.764  0.00  0.00     0.149 HD
ENDBRANCH   6  13
BRANCH   5  18
ATOM     18  N   LIG d   1       0.558  84.317 114.755  0.00  0.00     0.381 N 
ATOM     19  H   LIG d   1       0.789  85.041 115.405  0.00  0.00    -0.090 HD
ATOM     20  H   LIG d   1       1.216  83.567 114.871  0.00  0.00    -0.090 HD
ATOM     21  H   LIG d   1      -0.366  83.987 114.928  0.00  0.00    -0.090 HD
ENDBRANCH   5  18
BRANCH   3  22
ATOM     22  C   LIG d   1       3.001  87.191 111.804  0.00  0.00     0.382 C 
ATOM     23  O   LIG d   1       2.538  88.289 112.197  0.00  0.00    -0.241 OA
ATOM     24  O   LIG d   1       4.107  87.162 111.233  0.00  0.00    -0.241 OA
ENDBRANCH   3  22
TORSDOF 7
ENDMDL
MODEL 8
REMARK VINA RESULT:      -5.6      6.617      9.762
REMARK  7 active torsions:
REMARK  status: ('A' for Active; 'I' for Inactive)
REMARK    1  A    between atoms: C_2  and  C_3 
REMARK    2  A    between atoms: C_3  and  O_6 
REMARK    3  A    between atoms: C_3  and  C_4 
REMARK    4  A    between atoms: C_7  and  O_6 
REMARK    5  A    between atoms: C_9  and  C_10 
REMARK    6  A    between atoms: N_15  and  C_14 
REMARK    7  A    between atoms: N_20  and  C_19 
REMARK       I    between atoms: C_22  and  N_20 
ROOT
ATOM      1  C   LIG d   1      -2.728  75.033 115.319  0.00  0.00     0.161 C 
ATOM      2  C   LIG d   1      -2.252  74.422 116.491  0.00  0.00     0.016 C 
ATOM      3  C   LIG d   1      -1.171  74.928 117.248  0.00  0.00     0.038 C 
ATOM      4  C   LIG d   1      -0.587  76.172 116.967  0.00  0.00     0.028 C 
ATOM      5  C   LIG d   1      -0.700  76.577 115.501  0.00  0.00    -0.047 C 
ATOM      6  C   LIG d   1      -2.176  76.450 115.058  0.00  0.00     0.091 C 
ENDROOT
BRANCH   1   7
ATOM      7  O   LIG d   1      -4.170  75.051 115.329  0.00  0.00    -0.368 OA
BRANCH   7   8
ATOM      8  C   LIG d   1      -4.805  74.564 116.536  0.00  0.00     0.119 C 
BRANCH   8   9
ATOM      9  C   LIG d   1      -5.872  73.535 116.115  0.00  0.00     0.028 C 
ATOM     10  C   LIG d   1      -6.957  73.342 117.187  0.00  0.00     0.006 C 
ENDBRANCH   8   9
BRANCH   8  11
ATOM     11  C   LIG d   1      -5.576  75.678 117.249  0.00  0.00     0.028 C 
ATOM     12  C   LIG d   1      -4.705  76.466 118.241  0.00  0.00     0.006 C 
ENDBRANCH   8  11
ENDBRANCH   7   8
ENDBRANCH   1   7
BRANCH   6  13
ATOM     13  N   LIG d   1      -2.362  76.746 113.614  0.00  0.00    -0.311 N 
ATOM     14  C   LIG d   1      -2.695  77.949 113.149  0.00  0.00     0.210 C 
ATOM     15  C   LIG d   1      -2.856  78.033 111.628  0.00  0.00     0.109 C 
ATOM     16  O   LIG d   1      -2.842  78.962 113.850  0.00  0.00    -0.276 OA
ATOM     17  H   LIG d   1      -2.232  75.989 112.972  0.00  0.00     0.149 HD
ENDBRANCH   6  13
BRANCH   5  18
ATOM     18  N   LIG d   1      -0.175  77.949 115.375  0.00  0.00     0.381 N 
ATOM     19  H   LIG d   1       0.551  78.097 116.048  0.00  0.00    -0.090 HD
ATOM     20  H   LIG d   1      -0.917  78.600 115.563  0.00  0.00    -0.090 HD
ATOM     21  H   LIG d   1       0.180  78.096 114.456  0.00  0.00    -0.090 HD
ENDBRANCH   5  18
BRANCH   3  22
ATOM     22  C   LIG d   1      -0.638  74.168 118.278  0.00  0.00     0.382 C 
ATOM     23  O   LIG d   1      -0.848  72.932 118.318  0.00  0.00    -0.241 OA
ATOM     24  O   LIG d   1       0.014  74.710 119.191  0.00  0.00    -0.241 OA
ENDBRANCH   3  22
TORSDOF 7
ENDMDL
MODEL 9
REMARK VINA RESULT:      -5.5      6.516      9.629
REMARK  7 active torsions:
REMARK  status: ('A' for Active; 'I' for Inactive)
REMARK    1  A    between atoms: C_2  and  C_3 
REMARK    2  A    between atoms: C_3  and  O_6 
REMARK    3  A    between atoms: C_3  and  C_4 
REMARK    4  A    between atoms: C_7  and  O_6 
REMARK    5  A    between atoms: C_9  and  C_10 
REMARK    6  A    between atoms: N_15  and  C_14 
REMARK    7  A    between atoms: N_20  and  C_19 
REMARK       I    between atoms: C_22  and  N_20 
ROOT
ATOM      1  C   LIG d   1      -3.474  75.872 115.094  0.00  0.00     0.161 C 
ATOM      2  C   LIG d   1      -3.770  76.617 113.941  0.00  0.00     0.016 C 
ATOM      3  C   LIG d   1      -2.783  77.094 113.048  0.00  0.00     0.038 C 
ATOM      4  C   LIG d   1      -1.434  76.726 113.168  0.00  0.00     0.028 C 
ATOM      5  C   LIG d   1      -1.022  76.394 114.598  0.00  0.00    -0.047 C 
ATOM      6  C   LIG d   1      -2.018  75.366 115.182  0.00  0.00     0.091 C 
ENDROOT
BRANCH   1   7
ATOM      7  O   LIG d   1      -4.395  74.770 115.214  0.00  0.00    -0.368 OA
BRANCH   7   8
ATOM      8  C   LIG d   1      -5.398  74.887 116.253  0.00  0.00     0.119 C 
BRANCH   8   9
ATOM      9  C   LIG d   1      -6.101  73.521 116.373  0.00  0.00     0.028 C 
ATOM     10  C   LIG d   1      -7.009  73.436 117.612  0.00  0.00     0.006 C 
ENDBRANCH   8   9
BRANCH   8  11
ATOM     11  C   LIG d   1      -6.498  75.876 115.857  0.00  0.00     0.028 C 
ATOM     12  C   LIG d   1      -6.651  77.030 116.861  0.00  0.00     0.006 C 
ENDBRANCH   8  11
ENDBRANCH   7   8
ENDBRANCH   1   7
BRANCH   6  13
ATOM     13  N   LIG d   1      -1.737  75.050 116.606  0.00  0.00    -0.311 N 
ATOM     14  C   LIG d   1      -0.990  74.018 116.994  0.00  0.00     0.210 C 
ATOM     15  C   LIG d   1      -0.842  73.860 118.511  0.00  0.00     0.109 C 
ATOM     16  O   LIG d   1      -0.409  73.237 116.226  0.00  0.00    -0.276 OA
ATOM     17  H   LIG d   1      -2.144  75.651 117.296  0.00  0.00     0.149 HD
ENDBRANCH   6  13
BRANCH   5  18
ATOM     18  N   LIG d   1       0.366  75.895 114.557  0.00  0.00     0.381 N 
ATOM     19  H   LIG d   1       0.394  75.009 114.094  0.00  0.00    -0.090 HD
ATOM     20  H   LIG d   1       0.693  75.769 115.499  0.00  0.00    -0.090 HD
ATOM     21  H   LIG d   1       0.948  76.547 114.079  0.00  0.00    -0.090 HD
ENDBRANCH   5  18
BRANCH   3  22
ATOM     22  C   LIG d   1      -3.136  77.982 112.043  0.00  0.00     0.382 C 
ATOM     23  O   LIG d   1      -3.279  79.200 112.305  0.00  0.00    -0.241 OA
ATOM     24  O   LIG d   1      -3.357  77.573 110.888  0.00  0.00    -0.241 OA
ENDBRANCH   3  22
TORSDOF 7
ENDMDL
