MODEL 1
REMARK VINA RESULT:      -6.2      0.000      0.000
REMARK  7 active torsions:
REMARK  status: ('A' for Active; 'I' for Inactive)
REMARK    1  A    between atoms: C_2  and  C_3 
REMARK    2  A    between atoms: C_3  and  O_6 
REMARK    3  A    between atoms: C_3  and  C_4 
REMARK    4  A    between atoms: C_7  and  O_6 
REMARK    5  A    between atoms: C_9  and  C_10 
REMARK    6  A    between atoms: N_15  and  C_14 
REMARK    7  A    between atoms: N_20  and  C_19 
REMARK       I    between atoms: C_22  and  N_20 
ROOT
ATOM      1  C   LIG d   1       0.180  82.730 112.024  0.00  0.00     0.161 C 
ATOM      2  C   LIG d   1      -1.067  82.389 112.575  0.00  0.00     0.016 C 
ATOM      3  C   LIG d   1      -1.697  81.142 112.361  0.00  0.00     0.038 C 
ATOM      4  C   LIG d   1      -1.050  80.087 111.701  0.00  0.00     0.028 C 
ATOM      5  C   LIG d   1      -0.002  80.554 110.696  0.00  0.00    -0.047 C 
ATOM      6  C   LIG d   1       0.951  81.552 111.392  0.00  0.00     0.091 C 
ENDROOT
BRANCH   1   7
ATOM      7  O   LIG d   1       0.991  83.385 113.018  0.00  0.00    -0.368 OA
BRANCH   7   8
ATOM      8  C   LIG d   1       1.259  84.791 112.798  0.00  0.00     0.119 C 
BRANCH   8   9
ATOM      9  C   LIG d   1       2.764  84.935 112.499  0.00  0.00     0.028 C 
ATOM     10  C   LIG d   1       3.032  85.622 111.150  0.00  0.00     0.006 C 
ENDBRANCH   8   9
BRANCH   8  11
ATOM     11  C   LIG d   1       1.017  85.611 114.069  0.00  0.00     0.028 C 
ATOM     12  C   LIG d   1      -0.395  85.417 114.643  0.00  0.00     0.006 C 
ENDBRANCH   8  11
ENDBRANCH   7   8
ENDBRANCH   1   7
BRANCH   6  13
ATOM     13  N   LIG d   1       1.956  82.122 110.457  0.00  0.00    -0.311 N 
ATOM     14  C   LIG d   1       3.183  81.625 110.307  0.00  0.00     0.210 C 
ATOM     15  C   LIG d   1       4.066  82.376 109.306  0.00  0.00     0.109 C 
ATOM     16  O   LIG d   1       3.612  80.614 110.884  0.00  0.00    -0.276 OA
ATOM     17  H   LIG d   1       1.681  82.925 109.926  0.00  0.00     0.149 HD
ENDBRANCH   6  13
BRANCH   5  18
ATOM     18  N   LIG d   1       0.689  79.356 110.183  0.00  0.00     0.381 N 
ATOM     19  H   LIG d   1       0.084  78.856 109.563  0.00  0.00    -0.090 HD
ATOM     20  H   LIG d   1       0.914  78.755 110.956  0.00  0.00    -0.090 HD
ATOM     21  H   LIG d   1       1.522  79.621 109.705  0.00  0.00    -0.090 HD
ENDBRANCH   5  18
BRANCH   3  22
ATOM     22  C   LIG d   1      -3.007  80.954 112.777  0.00  0.00     0.382 C 
ATOM     23  O   LIG d   1      -3.714  81.942 113.089  0.00  0.00    -0.241 OA
ATOM     24  O   LIG d   1      -3.476  79.805 112.886  0.00  0.00    -0.241 OA
ENDBRANCH   3  22
TORSDOF 7
ENDMDL
MODEL 2
REMARK VINA RESULT:      -6.1      0.915      1.946
REMARK  7 active torsions:
REMARK  status: ('A' for Active; 'I' for Inactive)
REMARK    1  A    between atoms: C_2  and  C_3 
REMARK    2  A    between atoms: C_3  and  O_6 
REMARK    3  A    between atoms: C_3  and  C_4 
REMARK    4  A    between atoms: C_7  and  O_6 
REMARK    5  A    between atoms: C_9  and  C_10 
REMARK    6  A    between atoms: N_15  and  C_14 
REMARK    7  A    between atoms: N_20  and  C_19 
REMARK       I    between atoms: C_22  and  N_20 
ROOT
ATOM      1  C   LIG d   1      -0.042  82.824 112.072  0.00  0.00     0.161 C 
ATOM      2  C   LIG d   1      -1.253  82.332 112.586  0.00  0.00     0.016 C 
ATOM      3  C   LIG d   1      -1.736  81.028 112.327  0.00  0.00     0.038 C 
ATOM      4  C   LIG d   1      -0.961  80.071 111.656  0.00  0.00     0.028 C 
ATOM      5  C   LIG d   1       0.048  80.678 110.687  0.00  0.00    -0.047 C 
ATOM      6  C   LIG d   1       0.869  81.757 111.429  0.00  0.00     0.091 C 
ENDROOT
BRANCH   1   7
ATOM      7  O   LIG d   1       0.672  83.538 113.101  0.00  0.00    -0.368 OA
BRANCH   7   8
ATOM      8  C   LIG d   1       0.547  84.981 113.078  0.00  0.00     0.119 C 
BRANCH   8   9
ATOM      9  C   LIG d   1      -0.323  85.389 114.283  0.00  0.00     0.028 C 
ATOM     10  C   LIG d   1      -0.111  84.471 115.498  0.00  0.00     0.006 C 
ENDBRANCH   8   9
BRANCH   8  11
ATOM     11  C   LIG d   1      -0.223  85.455 111.842  0.00  0.00     0.028 C 
ATOM     12  C   LIG d   1       0.491  86.592 111.094  0.00  0.00     0.006 C 
ENDBRANCH   8  11
ENDBRANCH   7   8
ENDBRANCH   1   7
BRANCH   6  13
ATOM     13  N   LIG d   1       1.823  82.460 110.532  0.00  0.00    -0.311 N 
ATOM     14  C   LIG d   1       3.071  82.047 110.320  0.00  0.00     0.210 C 
ATOM     15  C   LIG d   1       3.893  82.929 109.375  0.00  0.00     0.109 C 
ATOM     16  O   LIG d   1       3.566  81.016 110.800  0.00  0.00    -0.276 OA
ATOM     17  H   LIG d   1       1.494  83.290 110.078  0.00  0.00     0.149 HD
ENDBRANCH   6  13
BRANCH   5  18
ATOM     18  N   LIG d   1       0.879  79.579 110.161  0.00  0.00     0.381 N 
ATOM     19  H   LIG d   1       0.843  78.798 110.786  0.00  0.00    -0.090 HD
ATOM     20  H   LIG d   1       1.832  79.891 110.101  0.00  0.00    -0.090 HD
ATOM     21  H   LIG d   1       0.553  79.307 109.260  0.00  0.00    -0.090 HD
ENDBRANCH   5  18
BRANCH   3  22
ATOM     22  C   LIG d   1      -3.024  80.685 112.708  0.00  0.00     0.382 C 
ATOM     23  O   LIG d   1      -3.310  79.485 112.939  0.00  0.00    -0.241 OA
ATOM     24  O   LIG d   1      -3.914  81.553 112.780  0.00  0.00    -0.241 OA
ENDBRANCH   3  22
TORSDOF 7
ENDMDL
MODEL 3
REMARK VINA RESULT:      -6.0      1.361      2.033
REMARK  7 active torsions:
REMARK  status: ('A' for Active; 'I' for Inactive)
REMARK    1  A    between atoms: C_2  and  C_3 
REMARK    2  A    between atoms: C_3  and  O_6 
REMARK    3  A    between atoms: C_3  and  C_4 
REMARK    4  A    between atoms: C_7  and  O_6 
REMARK    5  A    between atoms: C_9  and  C_10 
REMARK    6  A    between atoms: N_15  and  C_14 
REMARK    7  A    between atoms: N_20  and  C_19 
REMARK       I    between atoms: C_22  and  N_20 
ROOT
ATOM      1  C   LIG d   1       0.098  82.598 112.029  0.00  0.00     0.161 C 
ATOM      2  C   LIG d   1      -1.151  82.187 112.524  0.00  0.00     0.016 C 
ATOM      3  C   LIG d   1      -1.718  80.921 112.249  0.00  0.00     0.038 C 
ATOM      4  C   LIG d   1      -1.002  79.917 111.580  0.00  0.00     0.028 C 
ATOM      5  C   LIG d   1       0.058  80.461 110.628  0.00  0.00    -0.047 C 
ATOM      6  C   LIG d   1       0.942  81.476 111.389  0.00  0.00     0.091 C 
ENDROOT
BRANCH   1   7
ATOM      7  O   LIG d   1       0.845  83.255 113.072  0.00  0.00    -0.368 OA
BRANCH   7   8
ATOM      8  C   LIG d   1       0.344  83.080 114.420  0.00  0.00     0.119 C 
BRANCH   8   9
ATOM      9  C   LIG d   1       0.272  84.475 115.071  0.00  0.00     0.028 C 
ATOM     10  C   LIG d   1      -0.811  85.364 114.436  0.00  0.00     0.006 C 
ENDBRANCH   8   9
BRANCH   8  11
ATOM     11  C   LIG d   1       1.327  82.282 115.281  0.00  0.00     0.028 C 
ATOM     12  C   LIG d   1       1.122  80.763 115.167  0.00  0.00     0.006 C 
ENDBRANCH   8  11
ENDBRANCH   7   8
ENDBRANCH   1   7
BRANCH   6  13
ATOM     13  N   LIG d   1       1.953  82.119 110.510  0.00  0.00    -0.311 N 
ATOM     14  C   LIG d   1       3.176  81.628 110.318  0.00  0.00     0.210 C 
ATOM     15  C   LIG d   1       4.067  82.458 109.388  0.00  0.00     0.109 C 
ATOM     16  O   LIG d   1       3.597  80.568 110.804  0.00  0.00    -0.276 OA
ATOM     17  H   LIG d   1       1.684  82.968 110.051  0.00  0.00     0.149 HD
ENDBRANCH   6  13
BRANCH   5  18
ATOM     18  N   LIG d   1       0.819  79.311 110.104  0.00  0.00     0.381 N 
ATOM     19  H   LIG d   1       1.148  79.515 109.182  0.00  0.00    -0.090 HD
ATOM     20  H   LIG d   1       0.209  78.514 110.053  0.00  0.00    -0.090 HD
ATOM     21  H   LIG d   1       1.590  79.111 110.703  0.00  0.00    -0.090 HD
ENDBRANCH   5  18
BRANCH   3  22
ATOM     22  C   LIG d   1      -3.032  80.663 112.611  0.00  0.00     0.382 C 
ATOM     23  O   LIG d   1      -3.840  81.612 112.756  0.00  0.00    -0.241 OA
ATOM     24  O   LIG d   1      -3.407  79.498 112.837  0.00  0.00    -0.241 OA
ENDBRANCH   3  22
TORSDOF 7
ENDMDL
MODEL 4
REMARK VINA RESULT:      -5.9      2.033      4.945
REMARK  7 active torsions:
REMARK  status: ('A' for Active; 'I' for Inactive)
REMARK    1  A    between atoms: C_2  and  C_3 
REMARK    2  A    between atoms: C_3  and  O_6 
REMARK    3  A    between atoms: C_3  and  C_4 
REMARK    4  A    between atoms: C_7  and  O_6 
REMARK    5  A    between atoms: C_9  and  C_10 
REMARK    6  A    between atoms: N_15  and  C_14 
REMARK    7  A    between atoms: N_20  and  C_19 
REMARK       I    between atoms: C_22  and  N_20 
ROOT
ATOM      1  C   LIG d   1       1.554  83.337 111.964  0.00  0.00     0.161 C 
ATOM      2  C   LIG d   1       2.519  82.876 111.052  0.00  0.00     0.016 C 
ATOM      3  C   LIG d   1       2.557  81.549 110.565  0.00  0.00     0.038 C 
ATOM      4  C   LIG d   1       1.537  80.627 110.843  0.00  0.00     0.028 C 
ATOM      5  C   LIG d   1       0.818  80.898 112.161  0.00  0.00    -0.047 C 
ATOM      6  C   LIG d   1       0.368  82.376 112.192  0.00  0.00     0.091 C 
ENDROOT
BRANCH   1   7
ATOM      7  O   LIG d   1       1.077  84.634 111.556  0.00  0.00    -0.368 OA
BRANCH   7   8
ATOM      8  C   LIG d   1       1.829  85.288 110.504  0.00  0.00     0.119 C 
BRANCH   8   9
ATOM      9  C   LIG d   1       2.514  86.522 111.123  0.00  0.00     0.028 C 
ATOM     10  C   LIG d   1       4.011  86.291 111.388  0.00  0.00     0.006 C 
ENDBRANCH   8   9
BRANCH   8  11
ATOM     11  C   LIG d   1       0.901  85.841 109.418  0.00  0.00     0.028 C 
ATOM     12  C   LIG d   1      -0.584  85.579 109.712  0.00  0.00     0.006 C 
ENDBRANCH   8  11
ENDBRANCH   7   8
ENDBRANCH   1   7
BRANCH   6  13
ATOM     13  N   LIG d   1      -0.269  82.747 113.482  0.00  0.00    -0.311 N 
ATOM     14  C   LIG d   1      -1.586  82.728 113.682  0.00  0.00     0.210 C 
ATOM     15  C   LIG d   1      -2.035  83.166 115.079  0.00  0.00     0.109 C 
ATOM     16  O   LIG d   1      -2.423  82.358 112.844  0.00  0.00    -0.276 OA
ATOM     17  H   LIG d   1       0.338  83.030 114.226  0.00  0.00     0.149 HD
ENDBRANCH   6  13
BRANCH   5  18
ATOM     18  N   LIG d   1      -0.307  79.949 112.257  0.00  0.00     0.381 N 
ATOM     19  H   LIG d   1      -0.080  79.104 111.771  0.00  0.00    -0.090 HD
ATOM     20  H   LIG d   1      -1.115  80.357 111.821  0.00  0.00    -0.090 HD
ATOM     21  H   LIG d   1      -0.502  79.748 113.214  0.00  0.00    -0.090 HD
ENDBRANCH   5  18
BRANCH   3  22
ATOM     22  C   LIG d   1       3.648  81.121 109.823  0.00  0.00     0.382 C 
ATOM     23  O   LIG d   1       3.802  79.899 109.582  0.00  0.00    -0.241 OA
ATOM     24  O   LIG d   1       4.503  81.937 109.429  0.00  0.00    -0.241 OA
ENDBRANCH   3  22
TORSDOF 7
ENDMDL
MODEL 5
REMARK VINA RESULT:      -5.8      3.831      7.111
REMARK  7 active torsions:
REMARK  status: ('A' for Active; 'I' for Inactive)
REMARK    1  A    between atoms: C_2  and  C_3 
REMARK    2  A    between atoms: C_3  and  O_6 
REMARK    3  A    between atoms: C_3  and  C_4 
REMARK    4  A    between atoms: C_7  and  O_6 
REMARK    5  A    between atoms: C_9  and  C_10 
REMARK    6  A    between atoms: N_15  and  C_14 
REMARK    7  A    between atoms: N_20  and  C_19 
REMARK       I    between atoms: C_22  and  N_20 
ROOT
ATOM      1  C   LIG d   1       2.177  86.790 112.356  0.00  0.00     0.161 C 
ATOM      2  C   LIG d   1       3.021  87.891 112.577  0.00  0.00     0.016 C 
ATOM      3  C   LIG d   1       3.577  88.205 113.838  0.00  0.00     0.038 C 
ATOM      4  C   LIG d   1       3.448  87.346 114.940  0.00  0.00     0.028 C 
ATOM      5  C   LIG d   1       2.189  86.486 114.893  0.00  0.00    -0.047 C 
ATOM      6  C   LIG d   1       2.115  85.779 113.521  0.00  0.00     0.091 C 
ENDROOT
BRANCH   1   7
ATOM      7  O   LIG d   1       2.552  86.124 111.134  0.00  0.00    -0.368 OA
BRANCH   7   8
ATOM      8  C   LIG d   1       1.588  86.184 110.054  0.00  0.00     0.119 C 
BRANCH   8   9
ATOM      9  C   LIG d   1       0.282  86.763 110.630  0.00  0.00     0.028 C 
ATOM     10  C   LIG d   1      -0.967  86.055 110.081  0.00  0.00     0.006 C 
ENDBRANCH   8   9
BRANCH   8  11
ATOM     11  C   LIG d   1       1.224  84.782 109.554  0.00  0.00     0.028 C 
ATOM     12  C   LIG d   1       2.429  83.828 109.525  0.00  0.00     0.006 C 
ENDBRANCH   8  11
ENDBRANCH   7   8
ENDBRANCH   1   7
BRANCH   6  13
ATOM     13  N   LIG d   1       0.869  84.984 113.360  0.00  0.00    -0.311 N 
ATOM     14  C   LIG d   1       0.862  83.684 113.070  0.00  0.00     0.210 C 
ATOM     15  C   LIG d   1      -0.530  83.061 112.928  0.00  0.00     0.109 C 
ATOM     16  O   LIG d   1       1.877  82.981 112.948  0.00  0.00    -0.276 OA
ATOM     17  H   LIG d   1       0.001  85.469 113.472  0.00  0.00     0.149 HD
ENDBRANCH   6  13
BRANCH   5  18
ATOM     18  N   LIG d   1       2.251  85.544 116.026  0.00  0.00     0.381 N 
ATOM     19  H   LIG d   1       2.912  85.870 116.703  0.00  0.00    -0.090 HD
ATOM     20  H   LIG d   1       2.561  84.649 115.689  0.00  0.00    -0.090 HD
ATOM     21  H   LIG d   1       1.352  85.456 116.446  0.00  0.00    -0.090 HD
ENDBRANCH   5  18
BRANCH   3  22
ATOM     22  C   LIG d   1       4.240  89.410 114.017  0.00  0.00     0.382 C 
ATOM     23  O   LIG d   1       4.622  89.751 115.162  0.00  0.00    -0.241 OA
ATOM     24  O   LIG d   1       4.420  90.180 113.055  0.00  0.00    -0.241 OA
ENDBRANCH   3  22
TORSDOF 7
ENDMDL
MODEL 6
REMARK VINA RESULT:      -5.6      2.787      5.724
REMARK  7 active torsions:
REMARK  status: ('A' for Active; 'I' for Inactive)
REMARK    1  A    between atoms: C_2  and  C_3 
REMARK    2  A    between atoms: C_3  and  O_6 
REMARK    3  A    between atoms: C_3  and  C_4 
REMARK    4  A    between atoms: C_7  and  O_6 
REMARK    5  A    between atoms: C_9  and  C_10 
REMARK    6  A    between atoms: N_15  and  C_14 
REMARK    7  A    between atoms: N_20  and  C_19 
REMARK       I    between atoms: C_22  and  N_20 
ROOT
ATOM      1  C   LIG d   1       2.531  84.443 112.331  0.00  0.00     0.161 C 
ATOM      2  C   LIG d   1       2.949  85.659 112.896  0.00  0.00     0.016 C 
ATOM      3  C   LIG d   1       2.659  86.921 112.329  0.00  0.00     0.038 C 
ATOM      4  C   LIG d   1       1.797  87.060 111.231  0.00  0.00     0.028 C 
ATOM      5  C   LIG d   1       1.762  85.831 110.328  0.00  0.00    -0.047 C 
ATOM      6  C   LIG d   1       1.496  84.579 111.195  0.00  0.00     0.091 C 
ENDROOT
BRANCH   1   7
ATOM      7  O   LIG d   1       2.030  83.571 113.364  0.00  0.00    -0.368 OA
BRANCH   7   8
ATOM      8  C   LIG d   1       1.270  84.206 114.421  0.00  0.00     0.119 C 
BRANCH   8   9
ATOM      9  C   LIG d   1       1.667  83.529 115.747  0.00  0.00     0.028 C 
ATOM     10  C   LIG d   1       1.067  84.240 116.972  0.00  0.00     0.006 C 
ENDBRANCH   8   9
BRANCH   8  11
ATOM     11  C   LIG d   1      -0.231  83.943 114.264  0.00  0.00     0.028 C 
ATOM     12  C   LIG d   1      -1.033  85.221 113.976  0.00  0.00     0.006 C 
ENDBRANCH   8  11
ENDBRANCH   7   8
ENDBRANCH   1   7
BRANCH   6  13
ATOM     13  N   LIG d   1       1.530  83.323 110.402  0.00  0.00    -0.311 N 
ATOM     14  C   LIG d   1       0.473  82.528 110.241  0.00  0.00     0.210 C 
ATOM     15  C   LIG d   1       0.730  81.272 109.403  0.00  0.00     0.109 C 
ATOM     16  O   LIG d   1      -0.661  82.761 110.686  0.00  0.00    -0.276 OA
ATOM     17  H   LIG d   1       2.403  83.074 109.979  0.00  0.00     0.149 HD
ENDBRANCH   6  13
BRANCH   5  18
ATOM     18  N   LIG d   1       0.724  86.058 109.306  0.00  0.00     0.381 N 
ATOM     19  H   LIG d   1       1.139  86.053 108.395  0.00  0.00    -0.090 HD
ATOM     20  H   LIG d   1       0.309  86.960 109.458  0.00  0.00    -0.090 HD
ATOM     21  H   LIG d   1       0.027  85.349 109.365  0.00  0.00    -0.090 HD
ENDBRANCH   5  18
BRANCH   3  22
ATOM     22  C   LIG d   1       3.267  88.059 112.837  0.00  0.00     0.382 C 
ATOM     23  O   LIG d   1       4.380  88.427 112.391  0.00  0.00    -0.241 OA
ATOM     24  O   LIG d   1       2.737  88.697 113.766  0.00  0.00    -0.241 OA
ENDBRANCH   3  22
TORSDOF 7
ENDMDL
MODEL 7
REMARK VINA RESULT:      -5.4      3.617      5.289
REMARK  7 active torsions:
REMARK  status: ('A' for Active; 'I' for Inactive)
REMARK    1  A    between atoms: C_2  and  C_3 
REMARK    2  A    between atoms: C_3  and  O_6 
REMARK    3  A    between atoms: C_3  and  C_4 
REMARK    4  A    between atoms: C_7  and  O_6 
REMARK    5  A    between atoms: C_9  and  C_10 
REMARK    6  A    between atoms: N_15  and  C_14 
REMARK    7  A    between atoms: N_20  and  C_19 
REMARK       I    between atoms: C_22  and  N_20 
ROOT
ATOM      1  C   LIG d   1       1.153  85.420 112.615  0.00  0.00     0.161 C 
ATOM      2  C   LIG d   1       0.017  84.653 112.925  0.00  0.00     0.016 C 
ATOM      3  C   LIG d   1      -0.376  84.344 114.247  0.00  0.00     0.038 C 
ATOM      4  C   LIG d   1       0.259  84.912 115.362  0.00  0.00     0.028 C 
ATOM      5  C   LIG d   1       1.715  85.285 115.104  0.00  0.00    -0.047 C 
ATOM      6  C   LIG d   1       1.794  86.141 113.820  0.00  0.00     0.091 C 
ENDROOT
BRANCH   1   7
ATOM      7  O   LIG d   1       0.834  86.367 111.576  0.00  0.00    -0.368 OA
BRANCH   7   8
ATOM      8  C   LIG d   1       1.487  86.157 110.300  0.00  0.00     0.119 C 
BRANCH   8   9
ATOM      9  C   LIG d   1       0.413  85.675 109.305  0.00  0.00     0.028 C 
ATOM     10  C   LIG d   1      -1.005  86.098 109.722  0.00  0.00     0.006 C 
ENDBRANCH   8   9
BRANCH   8  11
ATOM     11  C   LIG d   1       2.508  85.018 110.378  0.00  0.00     0.028 C 
ATOM     12  C   LIG d   1       2.247  83.912 109.342  0.00  0.00     0.006 C 
ENDBRANCH   8  11
ENDBRANCH   7   8
ENDBRANCH   1   7
BRANCH   6  13
ATOM     13  N   LIG d   1       3.193  86.478 113.449  0.00  0.00    -0.311 N 
ATOM     14  C   LIG d   1       3.578  87.696 113.070  0.00  0.00     0.210 C 
ATOM     15  C   LIG d   1       5.062  87.823 112.712  0.00  0.00     0.109 C 
ATOM     16  O   LIG d   1       2.838  88.690 113.028  0.00  0.00    -0.276 OA
ATOM     17  H   LIG d   1       3.866  85.737 113.485  0.00  0.00     0.149 HD
ENDBRANCH   6  13
BRANCH   5  18
ATOM     18  N   LIG d   1       2.213  85.990 116.300  0.00  0.00     0.381 N 
ATOM     19  H   LIG d   1       1.447  86.214 116.904  0.00  0.00    -0.090 HD
ATOM     20  H   LIG d   1       2.650  86.848 116.014  0.00  0.00    -0.090 HD
ATOM     21  H   LIG d   1       2.870  85.419 116.784  0.00  0.00    -0.090 HD
ENDBRANCH   5  18
BRANCH   3  22
ATOM     22  C   LIG d   1      -1.392  83.426 114.465  0.00  0.00     0.382 C 
ATOM     23  O   LIG d   1      -1.154  82.197 114.383  0.00  0.00    -0.241 OA
ATOM     24  O   LIG d   1      -2.553  83.811 114.699  0.00  0.00    -0.241 OA
ENDBRANCH   3  22
TORSDOF 7
ENDMDL
MODEL 8
REMARK VINA RESULT:      -5.4      3.204      4.796
REMARK  7 active torsions:
REMARK  status: ('A' for Active; 'I' for Inactive)
REMARK    1  A    between atoms: C_2  and  C_3 
REMARK    2  A    between atoms: C_3  and  O_6 
REMARK    3  A    between atoms: C_3  and  C_4 
REMARK    4  A    between atoms: C_7  and  O_6 
REMARK    5  A    between atoms: C_9  and  C_10 
REMARK    6  A    between atoms: N_15  and  C_14 
REMARK    7  A    between atoms: N_20  and  C_19 
REMARK       I    between atoms: C_22  and  N_20 
ROOT
ATOM      1  C   LIG d   1       0.858  83.186 112.092  0.00  0.00     0.161 C 
ATOM      2  C   LIG d   1       0.512  84.215 111.200  0.00  0.00     0.016 C 
ATOM      3  C   LIG d   1      -0.437  85.219 111.501  0.00  0.00     0.038 C 
ATOM      4  C   LIG d   1      -0.999  85.350 112.779  0.00  0.00     0.028 C 
ATOM      5  C   LIG d   1      -1.060  84.036 113.551  0.00  0.00    -0.047 C 
ATOM      6  C   LIG d   1       0.338  83.377 113.533  0.00  0.00     0.091 C 
ENDROOT
BRANCH   1   7
ATOM      7  O   LIG d   1       2.287  83.002 112.095  0.00  0.00    -0.368 OA
BRANCH   7   8
ATOM      8  C   LIG d   1       3.059  83.995 111.375  0.00  0.00     0.119 C 
BRANCH   8   9
ATOM      9  C   LIG d   1       4.269  83.275 110.749  0.00  0.00     0.028 C 
ATOM     10  C   LIG d   1       3.999  82.820 109.305  0.00  0.00     0.006 C 
ENDBRANCH   8   9
BRANCH   8  11
ATOM     11  C   LIG d   1       3.655  85.036 112.328  0.00  0.00     0.028 C 
ATOM     12  C   LIG d   1       4.124  86.307 111.603  0.00  0.00     0.006 C 
ENDBRANCH   8  11
ENDBRANCH   7   8
ENDBRANCH   1   7
BRANCH   6  13
ATOM     13  N   LIG d   1       0.347  82.046 114.194  0.00  0.00    -0.311 N 
ATOM     14  C   LIG d   1       1.272  81.672 115.075  0.00  0.00     0.210 C 
ATOM     15  C   LIG d   1       1.106  80.250 115.622  0.00  0.00     0.109 C 
ATOM     16  O   LIG d   1       2.196  82.393 115.480  0.00  0.00    -0.276 OA
ATOM     17  H   LIG d   1      -0.385  81.410 113.947  0.00  0.00     0.149 HD
ENDBRANCH   6  13
BRANCH   5  18
ATOM     18  N   LIG d   1      -1.537  84.341 114.913  0.00  0.00     0.381 N 
ATOM     19  H   LIG d   1      -2.412  84.824 114.866  0.00  0.00    -0.090 HD
ATOM     20  H   LIG d   1      -0.870  84.943 115.364  0.00  0.00    -0.090 HD
ATOM     21  H   LIG d   1      -1.642  83.499 115.435  0.00  0.00    -0.090 HD
ENDBRANCH   5  18
BRANCH   3  22
ATOM     22  C   LIG d   1      -0.864  86.081 110.502  0.00  0.00     0.382 C 
ATOM     23  O   LIG d   1      -1.544  87.094 110.797  0.00  0.00    -0.241 OA
ATOM     24  O   LIG d   1      -0.617  85.836 109.307  0.00  0.00    -0.241 OA
ENDBRANCH   3  22
TORSDOF 7
ENDMDL
MODEL 9
REMARK VINA RESULT:      -5.4      2.444      4.507
REMARK  7 active torsions:
REMARK  status: ('A' for Active; 'I' for Inactive)
REMARK    1  A    between atoms: C_2  and  C_3 
REMARK    2  A    between atoms: C_3  and  O_6 
REMARK    3  A    between atoms: C_3  and  C_4 
REMARK    4  A    between atoms: C_7  and  O_6 
REMARK    5  A    between atoms: C_9  and  C_10 
REMARK    6  A    between atoms: N_15  and  C_14 
REMARK    7  A    between atoms: N_20  and  C_19 
REMARK       I    between atoms: C_22  and  N_20 
ROOT
ATOM      1  C   LIG d   1      -0.032  82.685 111.571  0.00  0.00     0.161 C 
ATOM      2  C   LIG d   1      -0.739  81.622 112.157  0.00  0.00     0.016 C 
ATOM      3  C   LIG d   1      -1.570  81.772 113.291  0.00  0.00     0.038 C 
ATOM      4  C   LIG d   1      -1.871  83.032 113.829  0.00  0.00     0.028 C 
ATOM      5  C   LIG d   1      -0.783  84.072 113.581  0.00  0.00    -0.047 C 
ATOM      6  C   LIG d   1      -0.436  84.087 112.075  0.00  0.00     0.091 C 
ENDROOT
BRANCH   1   7
ATOM      7  O   LIG d   1      -0.148  82.617 110.136  0.00  0.00    -0.368 OA
BRANCH   7   8
ATOM      8  C   LIG d   1       1.020  82.139 109.424  0.00  0.00     0.119 C 
BRANCH   8   9
ATOM      9  C   LIG d   1       0.926  80.602 109.359  0.00  0.00     0.028 C 
ATOM     10  C   LIG d   1       2.081  79.911 110.102  0.00  0.00     0.006 C 
ENDBRANCH   8   9
BRANCH   8  11
ATOM     11  C   LIG d   1       2.306  82.434 110.202  0.00  0.00     0.028 C 
ATOM     12  C   LIG d   1       3.148  83.548 109.561  0.00  0.00     0.006 C 
ENDBRANCH   8  11
ENDBRANCH   7   8
ENDBRANCH   1   7
BRANCH   6  13
ATOM     13  N   LIG d   1       0.679  85.017 111.760  0.00  0.00    -0.311 N 
ATOM     14  C   LIG d   1       0.495  86.263 111.326  0.00  0.00     0.210 C 
ATOM     15  C   LIG d   1       1.780  87.045 111.041  0.00  0.00     0.109 C 
ATOM     16  O   LIG d   1      -0.611  86.804 111.182  0.00  0.00    -0.276 OA
ATOM     17  H   LIG d   1       1.611  84.669 111.879  0.00  0.00     0.149 HD
ENDBRANCH   6  13
BRANCH   5  18
ATOM     18  N   LIG d   1      -1.287  85.369 114.071  0.00  0.00     0.381 N 
ATOM     19  H   LIG d   1      -1.700  85.879 113.316  0.00  0.00    -0.090 HD
ATOM     20  H   LIG d   1      -0.514  85.904 114.428  0.00  0.00    -0.090 HD
ATOM     21  H   LIG d   1      -1.960  85.224 114.791  0.00  0.00    -0.090 HD
ENDBRANCH   5  18
BRANCH   3  22
ATOM     22  C   LIG d   1      -2.077  80.648 113.925  0.00  0.00     0.382 C 
ATOM     23  O   LIG d   1      -3.301  80.381 113.844  0.00  0.00    -0.241 OA
ATOM     24  O   LIG d   1      -1.335  79.921 114.612  0.00  0.00    -0.241 OA
ENDBRANCH   3  22
TORSDOF 7
ENDMDL
