MODEL 1
REMARK VINA RESULT:      -6.6      0.000      0.000
REMARK  7 active torsions:
REMARK  status: ('A' for Active; 'I' for Inactive)
REMARK    1  A    between atoms: C_2  and  C_3 
REMARK    2  A    between atoms: C_3  and  O_6 
REMARK    3  A    between atoms: C_3  and  C_4 
REMARK    4  A    between atoms: C_7  and  O_6 
REMARK    5  A    between atoms: C_9  and  C_10 
REMARK    6  A    between atoms: N_15  and  C_14 
REMARK    7  A    between atoms: N_20  and  C_19 
REMARK       I    between atoms: C_22  and  N_20 
ROOT
ATOM      1  C   LIG d   1       0.705  82.025 110.963  0.00  0.00     0.161 C 
ATOM      2  C   LIG d   1      -0.463  81.852 111.725  0.00  0.00     0.016 C 
ATOM      3  C   LIG d   1      -1.100  80.602 111.897  0.00  0.00     0.038 C 
ATOM      4  C   LIG d   1      -0.524  79.407 111.442  0.00  0.00     0.028 C 
ATOM      5  C   LIG d   1       0.391  79.596 110.237  0.00  0.00    -0.047 C 
ATOM      6  C   LIG d   1       1.409  80.716 110.551  0.00  0.00     0.091 C 
ENDROOT
BRANCH   1   7
ATOM      7  O   LIG d   1       1.622  82.887 111.666  0.00  0.00    -0.368 OA
BRANCH   7   8
ATOM      8  C   LIG d   1       1.756  84.234 111.147  0.00  0.00     0.119 C 
BRANCH   8   9
ATOM      9  C   LIG d   1       1.142  84.248 109.734  0.00  0.00     0.028 C 
ATOM     10  C   LIG d   1       0.407  85.563 109.426  0.00  0.00     0.006 C 
ENDBRANCH   8   9
BRANCH   8  11
ATOM     11  C   LIG d   1       3.227  84.614 110.955  0.00  0.00     0.028 C 
ATOM     12  C   LIG d   1       3.547  86.030 111.460  0.00  0.00     0.006 C 
ENDBRANCH   8  11
ENDBRANCH   7   8
ENDBRANCH   1   7
BRANCH   6  13
ATOM     13  N   LIG d   1       2.289  81.023 109.394  0.00  0.00    -0.311 N 
ATOM     14  C   LIG d   1       3.603  81.217 109.502  0.00  0.00     0.210 C 
ATOM     15  C   LIG d   1       4.319  81.542 108.188  0.00  0.00     0.109 C 
ATOM     16  O   LIG d   1       4.247  81.118 110.557  0.00  0.00    -0.276 OA
ATOM     17  H   LIG d   1       1.854  81.090 108.495  0.00  0.00     0.149 HD
ENDBRANCH   6  13
BRANCH   5  18
ATOM     18  N   LIG d   1       1.029  78.297 109.953  0.00  0.00     0.381 N 
ATOM     19  H   LIG d   1       0.823  77.650 110.689  0.00  0.00    -0.090 HD
ATOM     20  H   LIG d   1       2.025  78.425 109.917  0.00  0.00    -0.090 HD
ATOM     21  H   LIG d   1       0.701  77.938 109.084  0.00  0.00    -0.090 HD
ENDBRANCH   5  18
BRANCH   3  22
ATOM     22  C   LIG d   1      -2.349  80.544 112.498  0.00  0.00     0.382 C 
ATOM     23  O   LIG d   1      -2.763  79.463 112.981  0.00  0.00    -0.241 OA
ATOM     24  O   LIG d   1      -3.084  81.549 112.524  0.00  0.00    -0.241 OA
ENDBRANCH   3  22
TORSDOF 7
ENDMDL
MODEL 2
REMARK VINA RESULT:      -6.5      1.845      4.962
REMARK  7 active torsions:
REMARK  status: ('A' for Active; 'I' for Inactive)
REMARK    1  A    between atoms: C_2  and  C_3 
REMARK    2  A    between atoms: C_3  and  O_6 
REMARK    3  A    between atoms: C_3  and  C_4 
REMARK    4  A    between atoms: C_7  and  O_6 
REMARK    5  A    between atoms: C_9  and  C_10 
REMARK    6  A    between atoms: N_15  and  C_14 
REMARK    7  A    between atoms: N_20  and  C_19 
REMARK       I    between atoms: C_22  and  N_20 
ROOT
ATOM      1  C   LIG d   1       1.451  81.302 111.849  0.00  0.00     0.161 C 
ATOM      2  C   LIG d   1       2.542  81.832 111.141  0.00  0.00     0.016 C 
ATOM      3  C   LIG d   1       2.702  81.698 109.743  0.00  0.00     0.038 C 
ATOM      4  C   LIG d   1       1.697  81.150 108.931  0.00  0.00     0.028 C 
ATOM      5  C   LIG d   1       0.807  80.150 109.660  0.00  0.00    -0.047 C 
ATOM      6  C   LIG d   1       0.290  80.798 110.966  0.00  0.00     0.091 C 
ENDROOT
BRANCH   1   7
ATOM      7  O   LIG d   1       0.970  82.269 112.803  0.00  0.00    -0.368 OA
BRANCH   7   8
ATOM      8  C   LIG d   1       1.149  83.661 112.444  0.00  0.00     0.119 C 
BRANCH   8   9
ATOM      9  C   LIG d   1       1.491  84.432 113.734  0.00  0.00     0.028 C 
ATOM     10  C   LIG d   1       0.847  85.828 113.772  0.00  0.00     0.006 C 
ENDBRANCH   8   9
BRANCH   8  11
ATOM     11  C   LIG d   1      -0.158  84.278 111.938  0.00  0.00     0.028 C 
ATOM     12  C   LIG d   1      -0.152  84.526 110.421  0.00  0.00     0.006 C 
ENDBRANCH   8  11
ENDBRANCH   7   8
ENDBRANCH   1   7
BRANCH   6  13
ATOM     13  N   LIG d   1      -0.521  79.857 111.782  0.00  0.00    -0.311 N 
ATOM     14  C   LIG d   1      -1.668  80.197 112.368  0.00  0.00     0.210 C 
ATOM     15  C   LIG d   1      -2.334  79.082 113.180  0.00  0.00     0.109 C 
ATOM     16  O   LIG d   1      -2.213  81.306 112.265  0.00  0.00    -0.276 OA
ATOM     17  H   LIG d   1      -0.168  78.927 111.892  0.00  0.00     0.149 HD
ENDBRANCH   6  13
BRANCH   5  18
ATOM     18  N   LIG d   1      -0.277  79.763 108.738  0.00  0.00     0.381 N 
ATOM     19  H   LIG d   1      -1.041  80.404 108.826  0.00  0.00    -0.090 HD
ATOM     20  H   LIG d   1      -0.604  78.846 108.987  0.00  0.00    -0.090 HD
ATOM     21  H   LIG d   1       0.057  79.761 107.800  0.00  0.00    -0.090 HD
ENDBRANCH   5  18
BRANCH   3  22
ATOM     22  C   LIG d   1       3.895  82.079 109.148  0.00  0.00     0.382 C 
ATOM     23  O   LIG d   1       4.569  81.241 108.502  0.00  0.00    -0.241 OA
ATOM     24  O   LIG d   1       4.328  83.238 109.286  0.00  0.00    -0.241 OA
ENDBRANCH   3  22
TORSDOF 7
ENDMDL
MODEL 3
REMARK VINA RESULT:      -6.2      2.233      5.556
REMARK  7 active torsions:
REMARK  status: ('A' for Active; 'I' for Inactive)
REMARK    1  A    between atoms: C_2  and  C_3 
REMARK    2  A    between atoms: C_3  and  O_6 
REMARK    3  A    between atoms: C_3  and  C_4 
REMARK    4  A    between atoms: C_7  and  O_6 
REMARK    5  A    between atoms: C_9  and  C_10 
REMARK    6  A    between atoms: N_15  and  C_14 
REMARK    7  A    between atoms: N_20  and  C_19 
REMARK       I    between atoms: C_22  and  N_20 
ROOT
ATOM      1  C   LIG d   1       1.192  82.451 110.384  0.00  0.00     0.161 C 
ATOM      2  C   LIG d   1       1.702  83.738 110.149  0.00  0.00     0.016 C 
ATOM      3  C   LIG d   1       2.286  84.540 111.157  0.00  0.00     0.038 C 
ATOM      4  C   LIG d   1       2.537  84.045 112.445  0.00  0.00     0.028 C 
ATOM      5  C   LIG d   1       1.583  82.931 112.863  0.00  0.00    -0.047 C 
ATOM      6  C   LIG d   1       1.558  81.851 111.758  0.00  0.00     0.091 C 
ENDROOT
BRANCH   1   7
ATOM      7  O   LIG d   1       1.600  81.563 109.325  0.00  0.00    -0.368 OA
BRANCH   7   8
ATOM      8  C   LIG d   1       2.901  80.944 109.477  0.00  0.00     0.119 C 
BRANCH   8   9
ATOM      9  C   LIG d   1       3.746  81.336 108.249  0.00  0.00     0.028 C 
ATOM     10  C   LIG d   1       4.736  82.472 108.556  0.00  0.00     0.006 C 
ENDBRANCH   8   9
BRANCH   8  11
ATOM     11  C   LIG d   1       2.802  79.417 109.430  0.00  0.00     0.028 C 
ATOM     12  C   LIG d   1       1.382  78.922 109.110  0.00  0.00     0.006 C 
ENDBRANCH   8  11
ENDBRANCH   7   8
ENDBRANCH   1   7
BRANCH   6  13
ATOM     13  N   LIG d   1       0.585  80.765 112.048  0.00  0.00    -0.311 N 
ATOM     14  C   LIG d   1      -0.730  80.961 112.126  0.00  0.00     0.210 C 
ATOM     15  C   LIG d   1      -1.552  79.710 112.455  0.00  0.00     0.109 C 
ATOM     16  O   LIG d   1      -1.297  82.045 111.923  0.00  0.00    -0.276 OA
ATOM     17  H   LIG d   1       0.956  79.847 112.196  0.00  0.00     0.149 HD
ENDBRANCH   6  13
BRANCH   5  18
ATOM     18  N   LIG d   1       2.043  82.415 114.166  0.00  0.00     0.381 N 
ATOM     19  H   LIG d   1       2.566  81.572 114.031  0.00  0.00    -0.090 HD
ATOM     20  H   LIG d   1       1.242  82.201 114.733  0.00  0.00    -0.090 HD
ATOM     21  H   LIG d   1       2.610  83.096 114.622  0.00  0.00    -0.090 HD
ENDBRANCH   5  18
BRANCH   3  22
ATOM     22  C   LIG d   1       2.588  85.867 110.891  0.00  0.00     0.382 C 
ATOM     23  O   LIG d   1       1.738  86.604 110.336  0.00  0.00    -0.241 OA
ATOM     24  O   LIG d   1       3.716  86.323 111.157  0.00  0.00    -0.241 OA
ENDBRANCH   3  22
TORSDOF 7
ENDMDL
MODEL 4
REMARK VINA RESULT:      -6.2      3.154      4.752
REMARK  7 active torsions:
REMARK  status: ('A' for Active; 'I' for Inactive)
REMARK    1  A    between atoms: C_2  and  C_3 
REMARK    2  A    between atoms: C_3  and  O_6 
REMARK    3  A    between atoms: C_3  and  C_4 
REMARK    4  A    between atoms: C_7  and  O_6 
REMARK    5  A    between atoms: C_9  and  C_10 
REMARK    6  A    between atoms: N_15  and  C_14 
REMARK    7  A    between atoms: N_20  and  C_19 
REMARK       I    between atoms: C_22  and  N_20 
ROOT
ATOM      1  C   LIG d   1       3.417  83.844 110.972  0.00  0.00     0.161 C 
ATOM      2  C   LIG d   1       3.297  83.003 109.853  0.00  0.00     0.016 C 
ATOM      3  C   LIG d   1       2.674  81.735 109.896  0.00  0.00     0.038 C 
ATOM      4  C   LIG d   1       1.989  81.283 111.034  0.00  0.00     0.028 C 
ATOM      5  C   LIG d   1       2.518  81.877 112.335  0.00  0.00    -0.047 C 
ATOM      6  C   LIG d   1       2.578  83.416 112.195  0.00  0.00     0.091 C 
ENDROOT
BRANCH   1   7
ATOM      7  O   LIG d   1       3.103  85.200 110.600  0.00  0.00    -0.368 OA
BRANCH   7   8
ATOM      8  C   LIG d   1       1.775  85.665 110.945  0.00  0.00     0.119 C 
BRANCH   8   9
ATOM      9  C   LIG d   1       0.927  85.640 109.659  0.00  0.00     0.028 C 
ATOM     10  C   LIG d   1      -0.583  85.627 109.952  0.00  0.00     0.006 C 
ENDBRANCH   8   9
BRANCH   8  11
ATOM     11  C   LIG d   1       1.796  87.131 111.389  0.00  0.00     0.028 C 
ATOM     12  C   LIG d   1       2.973  87.454 112.323  0.00  0.00     0.006 C 
ENDBRANCH   8  11
ENDBRANCH   7   8
ENDBRANCH   1   7
BRANCH   6  13
ATOM     13  N   LIG d   1       3.164  84.071 113.394  0.00  0.00    -0.311 N 
ATOM     14  C   LIG d   1       2.437  84.496 114.425  0.00  0.00     0.210 C 
ATOM     15  C   LIG d   1       3.237  85.162 115.549  0.00  0.00     0.109 C 
ATOM     16  O   LIG d   1       1.209  84.356 114.531  0.00  0.00    -0.276 OA
ATOM     17  H   LIG d   1       4.157  84.196 113.405  0.00  0.00     0.149 HD
ENDBRANCH   6  13
BRANCH   5  18
ATOM     18  N   LIG d   1       1.629  81.430 113.423  0.00  0.00     0.381 N 
ATOM     19  H   LIG d   1       1.318  80.496 113.244  0.00  0.00    -0.090 HD
ATOM     20  H   LIG d   1       0.824  82.030 113.452  0.00  0.00    -0.090 HD
ATOM     21  H   LIG d   1       2.111  81.466 114.294  0.00  0.00    -0.090 HD
ENDBRANCH   5  18
BRANCH   3  22
ATOM     22  C   LIG d   1       2.766  80.887 108.803  0.00  0.00     0.382 C 
ATOM     23  O   LIG d   1       3.452  81.220 107.807  0.00  0.00    -0.241 OA
ATOM     24  O   LIG d   1       2.136  79.812 108.782  0.00  0.00    -0.241 OA
ENDBRANCH   3  22
TORSDOF 7
ENDMDL
MODEL 5
REMARK VINA RESULT:      -6.1      2.800      5.818
REMARK  7 active torsions:
REMARK  status: ('A' for Active; 'I' for Inactive)
REMARK    1  A    between atoms: C_2  and  C_3 
REMARK    2  A    between atoms: C_3  and  O_6 
REMARK    3  A    between atoms: C_3  and  C_4 
REMARK    4  A    between atoms: C_7  and  O_6 
REMARK    5  A    between atoms: C_9  and  C_10 
REMARK    6  A    between atoms: N_15  and  C_14 
REMARK    7  A    between atoms: N_20  and  C_19 
REMARK       I    between atoms: C_22  and  N_20 
ROOT
ATOM      1  C   LIG d   1       2.919  83.884 111.288  0.00  0.00     0.161 C 
ATOM      2  C   LIG d   1       3.226  85.254 111.316  0.00  0.00     0.016 C 
ATOM      3  C   LIG d   1       3.018  86.075 112.449  0.00  0.00     0.038 C 
ATOM      4  C   LIG d   1       2.628  85.544 113.688  0.00  0.00     0.028 C 
ATOM      5  C   LIG d   1       1.825  84.253 113.567  0.00  0.00    -0.047 C 
ATOM      6  C   LIG d   1       2.597  83.264 112.664  0.00  0.00     0.091 C 
ENDROOT
BRANCH   1   7
ATOM      7  O   LIG d   1       3.988  83.157 110.649  0.00  0.00    -0.368 OA
BRANCH   7   8
ATOM      8  C   LIG d   1       3.843  82.932 109.225  0.00  0.00     0.119 C 
BRANCH   8   9
ATOM      9  C   LIG d   1       2.337  82.804 108.927  0.00  0.00     0.028 C 
ATOM     10  C   LIG d   1       2.044  82.692 107.422  0.00  0.00     0.006 C 
ENDBRANCH   8   9
BRANCH   8  11
ATOM     11  C   LIG d   1       4.454  81.590 108.809  0.00  0.00     0.028 C 
ATOM     12  C   LIG d   1       3.968  80.419 109.677  0.00  0.00     0.006 C 
ENDBRANCH   8  11
ENDBRANCH   7   8
ENDBRANCH   1   7
BRANCH   6  13
ATOM     13  N   LIG d   1       1.842  82.007 112.425  0.00  0.00    -0.311 N 
ATOM     14  C   LIG d   1       0.606  81.977 111.930  0.00  0.00     0.210 C 
ATOM     15  C   LIG d   1       0.002  80.576 111.781  0.00  0.00     0.109 C 
ATOM     16  O   LIG d   1      -0.036  82.974 111.569  0.00  0.00    -0.276 OA
ATOM     17  H   LIG d   1       2.299  81.148 112.661  0.00  0.00     0.149 HD
ENDBRANCH   6  13
BRANCH   5  18
ATOM     18  N   LIG d   1       1.603  83.737 114.931  0.00  0.00     0.381 N 
ATOM     19  H   LIG d   1       0.661  83.923 115.214  0.00  0.00    -0.090 HD
ATOM     20  H   LIG d   1       2.222  84.214 115.563  0.00  0.00    -0.090 HD
ATOM     21  H   LIG d   1       1.779  82.757 114.958  0.00  0.00    -0.090 HD
ENDBRANCH   5  18
BRANCH   3  22
ATOM     22  C   LIG d   1       3.164  87.449 112.338  0.00  0.00     0.382 C 
ATOM     23  O   LIG d   1       2.172  88.164 112.056  0.00  0.00    -0.241 OA
ATOM     24  O   LIG d   1       4.283  87.979 112.473  0.00  0.00    -0.241 OA
ENDBRANCH   3  22
TORSDOF 7
ENDMDL
MODEL 6
REMARK VINA RESULT:      -5.7      4.032      6.528
REMARK  7 active torsions:
REMARK  status: ('A' for Active; 'I' for Inactive)
REMARK    1  A    between atoms: C_2  and  C_3 
REMARK    2  A    between atoms: C_3  and  O_6 
REMARK    3  A    between atoms: C_3  and  C_4 
REMARK    4  A    between atoms: C_7  and  O_6 
REMARK    5  A    between atoms: C_9  and  C_10 
REMARK    6  A    between atoms: N_15  and  C_14 
REMARK    7  A    between atoms: N_20  and  C_19 
REMARK       I    between atoms: C_22  and  N_20 
ROOT
ATOM      1  C   LIG d   1       2.836  83.645 113.084  0.00  0.00     0.161 C 
ATOM      2  C   LIG d   1       2.539  84.688 112.191  0.00  0.00     0.016 C 
ATOM      3  C   LIG d   1       2.770  86.052 112.483  0.00  0.00     0.038 C 
ATOM      4  C   LIG d   1       3.458  86.457 113.636  0.00  0.00     0.028 C 
ATOM      5  C   LIG d   1       3.325  85.477 114.797  0.00  0.00    -0.047 C 
ATOM      6  C   LIG d   1       3.689  84.059 114.301  0.00  0.00     0.091 C 
ENDROOT
BRANCH   1   7
ATOM      7  O   LIG d   1       3.466  82.560 112.375  0.00  0.00    -0.368 OA
BRANCH   7   8
ATOM      8  C   LIG d   1       3.054  82.372 110.999  0.00  0.00     0.119 C 
BRANCH   8   9
ATOM      9  C   LIG d   1       2.340  81.009 110.912  0.00  0.00     0.028 C 
ATOM     10  C   LIG d   1       0.829  81.120 111.178  0.00  0.00     0.006 C 
ENDBRANCH   8   9
BRANCH   8  11
ATOM     11  C   LIG d   1       4.263  82.258 110.066  0.00  0.00     0.028 C 
ATOM     12  C   LIG d   1       4.239  80.978 109.214  0.00  0.00     0.006 C 
ENDBRANCH   8  11
ENDBRANCH   7   8
ENDBRANCH   1   7
BRANCH   6  13
ATOM     13  N   LIG d   1       3.504  83.025 115.353  0.00  0.00    -0.311 N 
ATOM     14  C   LIG d   1       4.491  82.586 116.131  0.00  0.00     0.210 C 
ATOM     15  C   LIG d   1       4.089  81.503 117.137  0.00  0.00     0.109 C 
ATOM     16  O   LIG d   1       5.656  83.013 116.105  0.00  0.00    -0.276 OA
ATOM     17  H   LIG d   1       2.583  82.647 115.463  0.00  0.00     0.149 HD
ENDBRANCH   6  13
BRANCH   5  18
ATOM     18  N   LIG d   1       4.201  85.952 115.885  0.00  0.00     0.381 N 
ATOM     19  H   LIG d   1       4.301  86.946 115.829  0.00  0.00    -0.090 HD
ATOM     20  H   LIG d   1       5.109  85.536 115.775  0.00  0.00    -0.090 HD
ATOM     21  H   LIG d   1       3.816  85.699 116.768  0.00  0.00    -0.090 HD
ENDBRANCH   5  18
BRANCH   3  22
ATOM     22  C   LIG d   1       2.274  87.030 111.634  0.00  0.00     0.382 C 
ATOM     23  O   LIG d   1       2.167  88.214 112.037  0.00  0.00    -0.241 OA
ATOM     24  O   LIG d   1       1.892  86.736 110.486  0.00  0.00    -0.241 OA
ENDBRANCH   3  22
TORSDOF 7
ENDMDL
MODEL 7
REMARK VINA RESULT:      -5.4      3.304      4.901
REMARK  7 active torsions:
REMARK  status: ('A' for Active; 'I' for Inactive)
REMARK    1  A    between atoms: C_2  and  C_3 
REMARK    2  A    between atoms: C_3  and  O_6 
REMARK    3  A    between atoms: C_3  and  C_4 
REMARK    4  A    between atoms: C_7  and  O_6 
REMARK    5  A    between atoms: C_9  and  C_10 
REMARK    6  A    between atoms: N_15  and  C_14 
REMARK    7  A    between atoms: N_20  and  C_19 
REMARK       I    between atoms: C_22  and  N_20 
ROOT
ATOM      1  C   LIG d   1       2.788  83.298 111.060  0.00  0.00     0.161 C 
ATOM      2  C   LIG d   1       3.282  82.002 110.838  0.00  0.00     0.016 C 
ATOM      3  C   LIG d   1       3.146  81.318 109.608  0.00  0.00     0.038 C 
ATOM      4  C   LIG d   1       2.635  81.946 108.462  0.00  0.00     0.028 C 
ATOM      5  C   LIG d   1       1.665  83.081 108.775  0.00  0.00    -0.047 C 
ATOM      6  C   LIG d   1       2.327  84.042 109.789  0.00  0.00     0.091 C 
ENDROOT
BRANCH   1   7
ATOM      7  O   LIG d   1       3.770  84.080 111.770  0.00  0.00    -0.368 OA
BRANCH   7   8
ATOM      8  C   LIG d   1       3.490  84.338 113.167  0.00  0.00     0.119 C 
BRANCH   8   9
ATOM      9  C   LIG d   1       2.054  83.854 113.449  0.00  0.00     0.028 C 
ATOM     10  C   LIG d   1       1.176  84.952 114.072  0.00  0.00     0.006 C 
ENDBRANCH   8   9
BRANCH   8  11
ATOM     11  C   LIG d   1       3.477  85.841 113.465  0.00  0.00     0.028 C 
ATOM     12  C   LIG d   1       3.963  86.687 112.278  0.00  0.00     0.006 C 
ENDBRANCH   8  11
ENDBRANCH   7   8
ENDBRANCH   1   7
BRANCH   6  13
ATOM     13  N   LIG d   1       1.414  85.135 110.214  0.00  0.00    -0.311 N 
ATOM     14  C   LIG d   1       0.147  84.934 110.571  0.00  0.00     0.210 C 
ATOM     15  C   LIG d   1      -0.625  86.200 110.954  0.00  0.00     0.109 C 
ATOM     16  O   LIG d   1      -0.402  83.824 110.637  0.00  0.00    -0.276 OA
ATOM     17  H   LIG d   1       1.787  86.064 110.220  0.00  0.00     0.149 HD
ENDBRANCH   6  13
BRANCH   5  18
ATOM     18  N   LIG d   1       1.318  83.735 107.500  0.00  0.00     0.381 N 
ATOM     19  H   LIG d   1       1.339  84.729 107.612  0.00  0.00    -0.090 HD
ATOM     20  H   LIG d   1       0.386  83.467 107.240  0.00  0.00    -0.090 HD
ATOM     21  H   LIG d   1       1.961  83.461 106.790  0.00  0.00    -0.090 HD
ENDBRANCH   5  18
BRANCH   3  22
ATOM     22  C   LIG d   1       3.486  79.976 109.527  0.00  0.00     0.382 C 
ATOM     23  O   LIG d   1       4.667  79.643 109.266  0.00  0.00    -0.241 OA
ATOM     24  O   LIG d   1       2.617  79.094 109.667  0.00  0.00    -0.241 OA
ENDBRANCH   3  22
TORSDOF 7
ENDMDL
MODEL 8
REMARK VINA RESULT:      -4.9      4.182      6.896
REMARK  7 active torsions:
REMARK  status: ('A' for Active; 'I' for Inactive)
REMARK    1  A    between atoms: C_2  and  C_3 
REMARK    2  A    between atoms: C_3  and  O_6 
REMARK    3  A    between atoms: C_3  and  C_4 
REMARK    4  A    between atoms: C_7  and  O_6 
REMARK    5  A    between atoms: C_9  and  C_10 
REMARK    6  A    between atoms: N_15  and  C_14 
REMARK    7  A    between atoms: N_20  and  C_19 
REMARK       I    between atoms: C_22  and  N_20 
ROOT
ATOM      1  C   LIG d   1       2.706  83.996 113.313  0.00  0.00     0.161 C 
ATOM      2  C   LIG d   1       3.062  85.196 112.676  0.00  0.00     0.016 C 
ATOM      3  C   LIG d   1       3.379  86.383 113.375  0.00  0.00     0.038 C 
ATOM      4  C   LIG d   1       3.507  86.410 114.772  0.00  0.00     0.028 C 
ATOM      5  C   LIG d   1       2.665  85.352 115.478  0.00  0.00    -0.047 C 
ATOM      6  C   LIG d   1       2.948  83.975 114.837  0.00  0.00     0.091 C 
ENDROOT
BRANCH   1   7
ATOM      7  O   LIG d   1       3.381  82.889 112.683  0.00  0.00    -0.368 OA
BRANCH   7   8
ATOM      8  C   LIG d   1       2.567  82.051 111.825  0.00  0.00     0.119 C 
BRANCH   8   9
ATOM      9  C   LIG d   1       2.811  82.503 110.372  0.00  0.00     0.028 C 
ATOM     10  C   LIG d   1       4.137  81.968 109.806  0.00  0.00     0.006 C 
ENDBRANCH   8   9
BRANCH   8  11
ATOM     11  C   LIG d   1       1.074  82.281 112.076  0.00  0.00     0.028 C 
ATOM     12  C   LIG d   1       0.313  82.692 110.805  0.00  0.00     0.006 C 
ENDBRANCH   8  11
ENDBRANCH   7   8
ENDBRANCH   1   7
BRANCH   6  13
ATOM     13  N   LIG d   1       2.102  82.897 115.412  0.00  0.00    -0.311 N 
ATOM     14  C   LIG d   1       2.499  82.107 116.409  0.00  0.00     0.210 C 
ATOM     15  C   LIG d   1       1.480  81.047 116.838  0.00  0.00     0.109 C 
ATOM     16  O   LIG d   1       3.585  82.205 117.000  0.00  0.00    -0.276 OA
ATOM     17  H   LIG d   1       1.193  82.768 115.013  0.00  0.00     0.149 HD
ENDBRANCH   6  13
BRANCH   5  18
ATOM     18  N   LIG d   1       2.999  85.402 116.914  0.00  0.00     0.381 N 
ATOM     19  H   LIG d   1       3.992  85.372 117.031  0.00  0.00    -0.090 HD
ATOM     20  H   LIG d   1       2.604  84.597 117.367  0.00  0.00    -0.090 HD
ATOM     21  H   LIG d   1       2.634  86.234 117.321  0.00  0.00    -0.090 HD
ENDBRANCH   5  18
BRANCH   3  22
ATOM     22  C   LIG d   1       3.531  87.572 112.678  0.00  0.00     0.382 C 
ATOM     23  O   LIG d   1       4.672  87.937 112.303  0.00  0.00    -0.241 OA
ATOM     24  O   LIG d   1       2.549  88.305 112.456  0.00  0.00    -0.241 OA
ENDBRANCH   3  22
TORSDOF 7
ENDMDL
MODEL 9
REMARK VINA RESULT:      -4.8      3.291      4.969
REMARK  7 active torsions:
REMARK  status: ('A' for Active; 'I' for Inactive)
REMARK    1  A    between atoms: C_2  and  C_3 
REMARK    2  A    between atoms: C_3  and  O_6 
REMARK    3  A    between atoms: C_3  and  C_4 
REMARK    4  A    between atoms: C_7  and  O_6 
REMARK    5  A    between atoms: C_9  and  C_10 
REMARK    6  A    between atoms: N_15  and  C_14 
REMARK    7  A    between atoms: N_20  and  C_19 
REMARK       I    between atoms: C_22  and  N_20 
ROOT
ATOM      1  C   LIG d   1       2.139  83.254 112.672  0.00  0.00     0.161 C 
ATOM      2  C   LIG d   1       1.732  81.972 112.266  0.00  0.00     0.016 C 
ATOM      3  C   LIG d   1       1.230  81.688 110.975  0.00  0.00     0.038 C 
ATOM      4  C   LIG d   1       1.245  82.642 109.947  0.00  0.00     0.028 C 
ATOM      5  C   LIG d   1       1.176  84.079 110.454  0.00  0.00    -0.047 C 
ATOM      6  C   LIG d   1       2.266  84.284 111.530  0.00  0.00     0.091 C 
ENDROOT
BRANCH   1   7
ATOM      7  O   LIG d   1       3.377  83.164 113.405  0.00  0.00    -0.368 OA
BRANCH   7   8
ATOM      8  C   LIG d   1       3.303  83.464 114.821  0.00  0.00     0.119 C 
BRANCH   8   9
ATOM      9  C   LIG d   1       3.369  82.126 115.582  0.00  0.00     0.028 C 
ATOM     10  C   LIG d   1       2.170  81.927 116.524  0.00  0.00     0.006 C 
ENDBRANCH   8   9
BRANCH   8  11
ATOM     11  C   LIG d   1       1.948  84.074 115.190  0.00  0.00     0.028 C 
ATOM     12  C   LIG d   1       2.064  85.519 115.703  0.00  0.00     0.006 C 
ENDBRANCH   8  11
ENDBRANCH   7   8
ENDBRANCH   1   7
BRANCH   6  13
ATOM     13  N   LIG d   1       2.214  85.639 112.139  0.00  0.00    -0.311 N 
ATOM     14  C   LIG d   1       3.149  86.567 111.944  0.00  0.00     0.210 C 
ATOM     15  C   LIG d   1       2.912  87.889 112.681  0.00  0.00     0.109 C 
ATOM     16  O   LIG d   1       4.136  86.432 111.205  0.00  0.00    -0.276 OA
ATOM     17  H   LIG d   1       1.431  85.844 112.729  0.00  0.00     0.149 HD
ENDBRANCH   6  13
BRANCH   5  18
ATOM     18  N   LIG d   1       1.338  84.970 109.290  0.00  0.00     0.381 N 
ATOM     19  H   LIG d   1       0.447  85.334 109.015  0.00  0.00    -0.090 HD
ATOM     20  H   LIG d   1       1.712  84.439 108.523  0.00  0.00    -0.090 HD
ATOM     21  H   LIG d   1       1.955  85.719 109.517  0.00  0.00    -0.090 HD
ENDBRANCH   5  18
BRANCH   3  22
ATOM     22  C   LIG d   1       0.671  80.447 110.713  0.00  0.00     0.382 C 
ATOM     23  O   LIG d   1      -0.458  80.157 111.180  0.00  0.00    -0.241 OA
ATOM     24  O   LIG d   1       1.299  79.597 110.054  0.00  0.00    -0.241 OA
ENDBRANCH   3  22
TORSDOF 7
ENDMDL
