MODEL 1
REMARK VINA RESULT:      -6.6      0.000      0.000
REMARK  7 active torsions:
REMARK  status: ('A' for Active; 'I' for Inactive)
REMARK    1  A    between atoms: C_2  and  C_3 
REMARK    2  A    between atoms: C_3  and  O_6 
REMARK    3  A    between atoms: C_3  and  C_4 
REMARK    4  A    between atoms: C_7  and  O_6 
REMARK    5  A    between atoms: C_9  and  C_10 
REMARK    6  A    between atoms: N_15  and  C_14 
REMARK    7  A    between atoms: N_20  and  C_19 
REMARK       I    between atoms: C_22  and  N_20 
ROOT
ATOM      1  C   LIG d   1       0.378  82.826 110.941  0.00  0.00     0.161 C 
ATOM      2  C   LIG d   1      -0.749  82.488 111.708  0.00  0.00     0.016 C 
ATOM      3  C   LIG d   1      -1.233  81.166 111.839  0.00  0.00     0.038 C 
ATOM      4  C   LIG d   1      -0.528  80.064 111.332  0.00  0.00     0.028 C 
ATOM      5  C   LIG d   1       0.340  80.404 110.125  0.00  0.00    -0.047 C 
ATOM      6  C   LIG d   1       1.224  81.624 110.471  0.00  0.00     0.091 C 
ENDROOT
BRANCH   1   7
ATOM      7  O   LIG d   1       1.199  83.763 111.665  0.00  0.00    -0.368 OA
BRANCH   7   8
ATOM      8  C   LIG d   1       1.300  85.093 111.098  0.00  0.00     0.119 C 
BRANCH   8   9
ATOM      9  C   LIG d   1       0.346  85.154 109.889  0.00  0.00     0.028 C 
ATOM     10  C   LIG d   1      -0.770  86.196 110.075  0.00  0.00     0.006 C 
ENDBRANCH   8   9
BRANCH   8  11
ATOM     11  C   LIG d   1       2.697  85.350 110.526  0.00  0.00     0.028 C 
ATOM     12  C   LIG d   1       3.807  84.653 111.329  0.00  0.00     0.006 C 
ENDBRANCH   8  11
ENDBRANCH   7   8
ENDBRANCH   1   7
BRANCH   6  13
ATOM     13  N   LIG d   1       2.044  82.075 109.316  0.00  0.00    -0.311 N 
ATOM     14  C   LIG d   1       3.312  81.712 109.131  0.00  0.00     0.210 C 
ATOM     15  C   LIG d   1       3.980  82.306 107.887  0.00  0.00     0.109 C 
ATOM     16  O   LIG d   1       3.937  80.928 109.861  0.00  0.00    -0.276 OA
ATOM     17  H   LIG d   1       1.606  82.688 108.657  0.00  0.00     0.149 HD
ENDBRANCH   6  13
BRANCH   5  18
ATOM     18  N   LIG d   1       1.121  79.201 109.785  0.00  0.00     0.381 N 
ATOM     19  H   LIG d   1       1.965  79.466 109.317  0.00  0.00    -0.090 HD
ATOM     20  H   LIG d   1       0.581  78.628 109.160  0.00  0.00    -0.090 HD
ATOM     21  H   LIG d   1       1.338  78.690 110.612  0.00  0.00    -0.090 HD
ENDBRANCH   5  18
BRANCH   3  22
ATOM     22  C   LIG d   1      -2.456  80.940 112.451  0.00  0.00     0.382 C 
ATOM     23  O   LIG d   1      -2.879  79.767 112.595  0.00  0.00    -0.241 OA
ATOM     24  O   LIG d   1      -3.164  81.896 112.822  0.00  0.00    -0.241 OA
ENDBRANCH   3  22
TORSDOF 7
ENDMDL
MODEL 2
REMARK VINA RESULT:      -6.1      3.263      6.187
REMARK  7 active torsions:
REMARK  status: ('A' for Active; 'I' for Inactive)
REMARK    1  A    between atoms: C_2  and  C_3 
REMARK    2  A    between atoms: C_3  and  O_6 
REMARK    3  A    between atoms: C_3  and  C_4 
REMARK    4  A    between atoms: C_7  and  O_6 
REMARK    5  A    between atoms: C_9  and  C_10 
REMARK    6  A    between atoms: N_15  and  C_14 
REMARK    7  A    between atoms: N_20  and  C_19 
REMARK       I    between atoms: C_22  and  N_20 
ROOT
ATOM      1  C   LIG d   1       3.321  84.558 111.730  0.00  0.00     0.161 C 
ATOM      2  C   LIG d   1       4.313  85.496 112.064  0.00  0.00     0.016 C 
ATOM      3  C   LIG d   1       4.471  86.032 113.363  0.00  0.00     0.038 C 
ATOM      4  C   LIG d   1       3.739  85.550 114.458  0.00  0.00     0.028 C 
ATOM      5  C   LIG d   1       2.383  84.967 114.072  0.00  0.00    -0.047 C 
ATOM      6  C   LIG d   1       2.585  83.938 112.936  0.00  0.00     0.091 C 
ENDROOT
BRANCH   1   7
ATOM      7  O   LIG d   1       3.887  83.523 110.902  0.00  0.00    -0.368 OA
BRANCH   7   8
ATOM      8  C   LIG d   1       3.712  83.684 109.473  0.00  0.00     0.119 C 
BRANCH   8   9
ATOM      9  C   LIG d   1       2.279  83.235 109.128  0.00  0.00     0.028 C 
ATOM     10  C   LIG d   1       1.430  84.379 108.548  0.00  0.00     0.006 C 
ENDBRANCH   8   9
BRANCH   8  11
ATOM     11  C   LIG d   1       4.631  82.741 108.690  0.00  0.00     0.028 C 
ATOM     12  C   LIG d   1       4.334  81.258 108.961  0.00  0.00     0.006 C 
ENDBRANCH   8  11
ENDBRANCH   7   8
ENDBRANCH   1   7
BRANCH   6  13
ATOM     13  N   LIG d   1       1.299  83.382 112.441  0.00  0.00    -0.311 N 
ATOM     14  C   LIG d   1       1.096  82.083 112.228  0.00  0.00     0.210 C 
ATOM     15  C   LIG d   1      -0.296  81.724 111.697  0.00  0.00     0.109 C 
ATOM     16  O   LIG d   1       1.925  81.190 112.460  0.00  0.00    -0.276 OA
ATOM     17  H   LIG d   1       0.561  84.033 112.257  0.00  0.00     0.149 HD
ENDBRANCH   6  13
BRANCH   5  18
ATOM     18  N   LIG d   1       1.788  84.379 115.287  0.00  0.00     0.381 N 
ATOM     19  H   LIG d   1       0.793  84.471 115.255  0.00  0.00    -0.090 HD
ATOM     20  H   LIG d   1       2.126  84.880 116.089  0.00  0.00    -0.090 HD
ATOM     21  H   LIG d   1       2.038  83.417 115.357  0.00  0.00    -0.090 HD
ENDBRANCH   5  18
BRANCH   3  22
ATOM     22  C   LIG d   1       5.343  87.090 113.568  0.00  0.00     0.382 C 
ATOM     23  O   LIG d   1       5.651  87.843 112.613  0.00  0.00    -0.241 OA
ATOM     24  O   LIG d   1       5.860  87.276 114.686  0.00  0.00    -0.241 OA
ENDBRANCH   3  22
TORSDOF 7
ENDMDL
MODEL 3
REMARK VINA RESULT:      -6.0      2.285      5.677
REMARK  7 active torsions:
REMARK  status: ('A' for Active; 'I' for Inactive)
REMARK    1  A    between atoms: C_2  and  C_3 
REMARK    2  A    between atoms: C_3  and  O_6 
REMARK    3  A    between atoms: C_3  and  C_4 
REMARK    4  A    between atoms: C_7  and  O_6 
REMARK    5  A    between atoms: C_9  and  C_10 
REMARK    6  A    between atoms: N_15  and  C_14 
REMARK    7  A    between atoms: N_20  and  C_19 
REMARK       I    between atoms: C_22  and  N_20 
ROOT
ATOM      1  C   LIG d   1       1.565  82.969 110.352  0.00  0.00     0.161 C 
ATOM      2  C   LIG d   1       2.107  84.249 110.149  0.00  0.00     0.016 C 
ATOM      3  C   LIG d   1       2.560  85.078 111.200  0.00  0.00     0.038 C 
ATOM      4  C   LIG d   1       2.643  84.620 112.523  0.00  0.00     0.028 C 
ATOM      5  C   LIG d   1       1.639  83.519 112.847  0.00  0.00    -0.047 C 
ATOM      6  C   LIG d   1       1.750  82.408 111.778  0.00  0.00     0.091 C 
ENDROOT
BRANCH   1   7
ATOM      7  O   LIG d   1       2.102  82.051 109.379  0.00  0.00    -0.368 OA
BRANCH   7   8
ATOM      8  C   LIG d   1       3.169  81.186 109.839  0.00  0.00     0.119 C 
BRANCH   8   9
ATOM      9  C   LIG d   1       4.483  81.704 109.224  0.00  0.00     0.028 C 
ATOM     10  C   LIG d   1       4.273  82.338 107.839  0.00  0.00     0.006 C 
ENDBRANCH   8   9
BRANCH   8  11
ATOM     11  C   LIG d   1       3.003  79.762 109.301  0.00  0.00     0.028 C 
ATOM     12  C   LIG d   1       1.531  79.367 109.104  0.00  0.00     0.006 C 
ENDBRANCH   8  11
ENDBRANCH   7   8
ENDBRANCH   1   7
BRANCH   6  13
ATOM     13  N   LIG d   1       0.744  81.331 111.972  0.00  0.00    -0.311 N 
ATOM     14  C   LIG d   1      -0.570  81.532 111.886  0.00  0.00     0.210 C 
ATOM     15  C   LIG d   1      -1.432  80.292 112.140  0.00  0.00     0.109 C 
ATOM     16  O   LIG d   1      -1.103  82.613 111.593  0.00  0.00    -0.276 OA
ATOM     17  H   LIG d   1       1.090  80.416 112.183  0.00  0.00     0.149 HD
ENDBRANCH   6  13
BRANCH   5  18
ATOM     18  N   LIG d   1       1.927  83.039 114.211  0.00  0.00     0.381 N 
ATOM     19  H   LIG d   1       2.180  83.811 114.795  0.00  0.00    -0.090 HD
ATOM     20  H   LIG d   1       2.704  82.403 114.175  0.00  0.00    -0.090 HD
ATOM     21  H   LIG d   1       1.128  82.578 114.587  0.00  0.00    -0.090 HD
ENDBRANCH   5  18
BRANCH   3  22
ATOM     22  C   LIG d   1       2.900  86.397 110.938  0.00  0.00     0.382 C 
ATOM     23  O   LIG d   1       4.106  86.742 110.919  0.00  0.00    -0.241 OA
ATOM     24  O   LIG d   1       2.014  87.255 110.763  0.00  0.00    -0.241 OA
ENDBRANCH   3  22
TORSDOF 7
ENDMDL
MODEL 4
REMARK VINA RESULT:      -6.0      1.775      4.987
REMARK  7 active torsions:
REMARK  status: ('A' for Active; 'I' for Inactive)
REMARK    1  A    between atoms: C_2  and  C_3 
REMARK    2  A    between atoms: C_3  and  O_6 
REMARK    3  A    between atoms: C_3  and  C_4 
REMARK    4  A    between atoms: C_7  and  O_6 
REMARK    5  A    between atoms: C_9  and  C_10 
REMARK    6  A    between atoms: N_15  and  C_14 
REMARK    7  A    between atoms: N_20  and  C_19 
REMARK       I    between atoms: C_22  and  N_20 
ROOT
ATOM      1  C   LIG d   1       1.539  82.289 111.931  0.00  0.00     0.161 C 
ATOM      2  C   LIG d   1       2.512  82.648 110.983  0.00  0.00     0.016 C 
ATOM      3  C   LIG d   1       2.509  82.178 109.650  0.00  0.00     0.038 C 
ATOM      4  C   LIG d   1       1.442  81.432 109.128  0.00  0.00     0.028 C 
ATOM      5  C   LIG d   1       0.693  80.627 110.185  0.00  0.00    -0.047 C 
ATOM      6  C   LIG d   1       0.306  81.566 111.350  0.00  0.00     0.091 C 
ENDROOT
BRANCH   1   7
ATOM      7  O   LIG d   1       1.131  83.453 112.677  0.00  0.00    -0.368 OA
BRANCH   7   8
ATOM      8  C   LIG d   1       1.151  84.711 111.958  0.00  0.00     0.119 C 
BRANCH   8   9
ATOM      9  C   LIG d   1       1.591  85.805 112.950  0.00  0.00     0.028 C 
ATOM     10  C   LIG d   1       1.661  85.290 114.398  0.00  0.00     0.006 C 
ENDBRANCH   8   9
BRANCH   8  11
ATOM     11  C   LIG d   1      -0.254  85.116 111.504  0.00  0.00     0.028 C 
ATOM     12  C   LIG d   1      -0.386  85.197 109.975  0.00  0.00     0.006 C 
ENDBRANCH   8  11
ENDBRANCH   7   8
ENDBRANCH   1   7
BRANCH   6  13
ATOM     13  N   LIG d   1      -0.357  80.841 112.465  0.00  0.00    -0.311 N 
ATOM     14  C   LIG d   1      -1.673  80.859 112.672  0.00  0.00     0.210 C 
ATOM     15  C   LIG d   1      -2.147  80.061 113.890  0.00  0.00     0.109 C 
ATOM     16  O   LIG d   1      -2.495  81.433 111.942  0.00  0.00    -0.276 OA
ATOM     17  H   LIG d   1       0.232  80.324 113.088  0.00  0.00     0.149 HD
ENDBRANCH   6  13
BRANCH   5  18
ATOM     18  N   LIG d   1      -0.475  80.008 109.528  0.00  0.00     0.381 N 
ATOM     19  H   LIG d   1      -1.164  80.707 109.335  0.00  0.00    -0.090 HD
ATOM     20  H   LIG d   1      -0.878  79.332 110.153  0.00  0.00    -0.090 HD
ATOM     21  H   LIG d   1      -0.194  79.564 108.682  0.00  0.00    -0.090 HD
ENDBRANCH   5  18
BRANCH   3  22
ATOM     22  C   LIG d   1       3.604  82.421 108.834  0.00  0.00     0.382 C 
ATOM     23  O   LIG d   1       3.447  82.545 107.595  0.00  0.00    -0.241 OA
ATOM     24  O   LIG d   1       4.752  82.473 109.315  0.00  0.00    -0.241 OA
ENDBRANCH   3  22
TORSDOF 7
ENDMDL
MODEL 5
REMARK VINA RESULT:      -5.8      3.629      6.735
REMARK  7 active torsions:
REMARK  status: ('A' for Active; 'I' for Inactive)
REMARK    1  A    between atoms: C_2  and  C_3 
REMARK    2  A    between atoms: C_3  and  O_6 
REMARK    3  A    between atoms: C_3  and  C_4 
REMARK    4  A    between atoms: C_7  and  O_6 
REMARK    5  A    between atoms: C_9  and  C_10 
REMARK    6  A    between atoms: N_15  and  C_14 
REMARK    7  A    between atoms: N_20  and  C_19 
REMARK       I    between atoms: C_22  and  N_20 
ROOT
ATOM      1  C   LIG d   1       3.384  85.351 112.162  0.00  0.00     0.161 C 
ATOM      2  C   LIG d   1       4.537  85.306 112.963  0.00  0.00     0.016 C 
ATOM      3  C   LIG d   1       4.610  85.877 114.254  0.00  0.00     0.038 C 
ATOM      4  C   LIG d   1       3.479  86.402 114.897  0.00  0.00     0.028 C 
ATOM      5  C   LIG d   1       2.419  86.921 113.931  0.00  0.00    -0.047 C 
ATOM      6  C   LIG d   1       2.108  85.822 112.890  0.00  0.00     0.091 C 
ENDROOT
BRANCH   1   7
ATOM      7  O   LIG d   1       3.165  84.065 111.549  0.00  0.00    -0.368 OA
BRANCH   7   8
ATOM      8  C   LIG d   1       3.598  83.932 110.173  0.00  0.00     0.119 C 
BRANCH   8   9
ATOM      9  C   LIG d   1       2.393  84.269 109.274  0.00  0.00     0.028 C 
ATOM     10  C   LIG d   1       1.286  83.204 109.351  0.00  0.00     0.006 C 
ENDBRANCH   8   9
BRANCH   8  11
ATOM     11  C   LIG d   1       3.960  82.482 109.839  0.00  0.00     0.028 C 
ATOM     12  C   LIG d   1       4.828  82.359 108.577  0.00  0.00     0.006 C 
ENDBRANCH   8  11
ENDBRANCH   7   8
ENDBRANCH   1   7
BRANCH   6  13
ATOM     13  N   LIG d   1       1.142  86.277 111.857  0.00  0.00    -0.311 N 
ATOM     14  C   LIG d   1      -0.071  85.748 111.703  0.00  0.00     0.210 C 
ATOM     15  C   LIG d   1      -0.899  86.351 110.564  0.00  0.00     0.109 C 
ATOM     16  O   LIG d   1      -0.551  84.859 112.422  0.00  0.00    -0.276 OA
ATOM     17  H   LIG d   1       1.438  87.016 111.250  0.00  0.00     0.149 HD
ENDBRANCH   6  13
BRANCH   5  18
ATOM     18  N   LIG d   1       1.242  87.312 114.729  0.00  0.00     0.381 N 
ATOM     19  H   LIG d   1       0.723  88.017 114.245  0.00  0.00    -0.090 HD
ATOM     20  H   LIG d   1       1.555  87.695 115.604  0.00  0.00    -0.090 HD
ATOM     21  H   LIG d   1       0.663  86.518 114.895  0.00  0.00    -0.090 HD
ENDBRANCH   5  18
BRANCH   3  22
ATOM     22  C   LIG d   1       5.834  85.961 114.900  0.00  0.00     0.382 C 
ATOM     23  O   LIG d   1       6.428  84.916 115.256  0.00  0.00    -0.241 OA
ATOM     24  O   LIG d   1       6.330  87.071 115.171  0.00  0.00    -0.241 OA
ENDBRANCH   3  22
TORSDOF 7
ENDMDL
MODEL 6
REMARK VINA RESULT:      -5.8      2.417      4.055
REMARK  7 active torsions:
REMARK  status: ('A' for Active; 'I' for Inactive)
REMARK    1  A    between atoms: C_2  and  C_3 
REMARK    2  A    between atoms: C_3  and  O_6 
REMARK    3  A    between atoms: C_3  and  C_4 
REMARK    4  A    between atoms: C_7  and  O_6 
REMARK    5  A    between atoms: C_9  and  C_10 
REMARK    6  A    between atoms: N_15  and  C_14 
REMARK    7  A    between atoms: N_20  and  C_19 
REMARK       I    between atoms: C_22  and  N_20 
ROOT
ATOM      1  C   LIG d   1       2.264  82.846 111.772  0.00  0.00     0.161 C 
ATOM      2  C   LIG d   1       1.143  82.005 111.678  0.00  0.00     0.016 C 
ATOM      3  C   LIG d   1      -0.187  82.483 111.647  0.00  0.00     0.038 C 
ATOM      4  C   LIG d   1      -0.482  83.851 111.556  0.00  0.00     0.028 C 
ATOM      5  C   LIG d   1       0.598  84.745 112.157  0.00  0.00    -0.047 C 
ATOM      6  C   LIG d   1       1.968  84.346 111.562  0.00  0.00     0.091 C 
ENDROOT
BRANCH   1   7
ATOM      7  O   LIG d   1       3.285  82.404 110.856  0.00  0.00    -0.368 OA
BRANCH   7   8
ATOM      8  C   LIG d   1       3.367  83.120 109.599  0.00  0.00     0.119 C 
BRANCH   8   9
ATOM      9  C   LIG d   1       2.216  82.618 108.705  0.00  0.00     0.028 C 
ATOM     10  C   LIG d   1       1.528  83.760 107.938  0.00  0.00     0.006 C 
ENDBRANCH   8   9
BRANCH   8  11
ATOM     11  C   LIG d   1       4.651  82.771 108.841  0.00  0.00     0.028 C 
ATOM     12  C   LIG d   1       4.809  81.261 108.600  0.00  0.00     0.006 C 
ENDBRANCH   8  11
ENDBRANCH   7   8
ENDBRANCH   1   7
BRANCH   6  13
ATOM     13  N   LIG d   1       3.091  85.114 112.159  0.00  0.00    -0.311 N 
ATOM     14  C   LIG d   1       3.536  86.267 111.662  0.00  0.00     0.210 C 
ATOM     15  C   LIG d   1       4.717  86.884 112.419  0.00  0.00     0.109 C 
ATOM     16  O   LIG d   1       3.045  86.853 110.685  0.00  0.00    -0.276 OA
ATOM     17  H   LIG d   1       3.527  84.727 112.973  0.00  0.00     0.149 HD
ENDBRANCH   6  13
BRANCH   5  18
ATOM     18  N   LIG d   1       0.229  86.144 111.871  0.00  0.00     0.381 N 
ATOM     19  H   LIG d   1      -0.765  86.248 111.916  0.00  0.00    -0.090 HD
ATOM     20  H   LIG d   1       0.529  86.376 110.941  0.00  0.00    -0.090 HD
ATOM     21  H   LIG d   1       0.664  86.753 112.529  0.00  0.00    -0.090 HD
ENDBRANCH   5  18
BRANCH   3  22
ATOM     22  C   LIG d   1      -1.241  81.588 111.748  0.00  0.00     0.382 C 
ATOM     23  O   LIG d   1      -2.332  81.957 112.247  0.00  0.00    -0.241 OA
ATOM     24  O   LIG d   1      -1.101  80.404 111.388  0.00  0.00    -0.241 OA
ENDBRANCH   3  22
TORSDOF 7
ENDMDL
MODEL 7
REMARK VINA RESULT:      -5.7      1.635      4.747
REMARK  7 active torsions:
REMARK  status: ('A' for Active; 'I' for Inactive)
REMARK    1  A    between atoms: C_2  and  C_3 
REMARK    2  A    between atoms: C_3  and  O_6 
REMARK    3  A    between atoms: C_3  and  C_4 
REMARK    4  A    between atoms: C_7  and  O_6 
REMARK    5  A    between atoms: C_9  and  C_10 
REMARK    6  A    between atoms: N_15  and  C_14 
REMARK    7  A    between atoms: N_20  and  C_19 
REMARK       I    between atoms: C_22  and  N_20 
ROOT
ATOM      1  C   LIG d   1       1.373  83.002 111.149  0.00  0.00     0.161 C 
ATOM      2  C   LIG d   1       2.670  82.898 110.619  0.00  0.00     0.016 C 
ATOM      3  C   LIG d   1       2.996  82.078 109.514  0.00  0.00     0.038 C 
ATOM      4  C   LIG d   1       2.010  81.416 108.766  0.00  0.00     0.028 C 
ATOM      5  C   LIG d   1       0.756  81.091 109.570  0.00  0.00    -0.047 C 
ATOM      6  C   LIG d   1       0.266  82.375 110.277  0.00  0.00     0.091 C 
ENDROOT
BRANCH   1   7
ATOM      7  O   LIG d   1       1.069  84.383 111.429  0.00  0.00    -0.368 OA
BRANCH   7   8
ATOM      8  C   LIG d   1       0.419  85.121 110.364  0.00  0.00     0.119 C 
BRANCH   8   9
ATOM      9  C   LIG d   1       1.487  86.012 109.700  0.00  0.00     0.028 C 
ATOM     10  C   LIG d   1       2.398  86.702 110.729  0.00  0.00     0.006 C 
ENDBRANCH   8   9
BRANCH   8  11
ATOM     11  C   LIG d   1      -0.630  86.089 110.917  0.00  0.00     0.028 C 
ATOM     12  C   LIG d   1      -0.786  85.991 112.443  0.00  0.00     0.006 C 
ENDBRANCH   8  11
ENDBRANCH   7   8
ENDBRANCH   1   7
BRANCH   6  13
ATOM     13  N   LIG d   1      -0.909  82.126 111.152  0.00  0.00    -0.311 N 
ATOM     14  C   LIG d   1      -1.044  81.037 111.907  0.00  0.00     0.210 C 
ATOM     15  C   LIG d   1      -2.342  80.969 112.719  0.00  0.00     0.109 C 
ATOM     16  O   LIG d   1      -0.198  80.135 112.005  0.00  0.00    -0.276 OA
ATOM     17  H   LIG d   1      -1.629  82.822 111.158  0.00  0.00     0.149 HD
ENDBRANCH   6  13
BRANCH   5  18
ATOM     18  N   LIG d   1      -0.238  80.529 108.636  0.00  0.00     0.381 N 
ATOM     19  H   LIG d   1      -1.062  80.263 109.138  0.00  0.00    -0.090 HD
ATOM     20  H   LIG d   1       0.148  79.708 108.205  0.00  0.00    -0.090 HD
ATOM     21  H   LIG d   1      -0.469  81.202 107.938  0.00  0.00    -0.090 HD
ENDBRANCH   5  18
BRANCH   3  22
ATOM     22  C   LIG d   1       4.325  81.880 109.173  0.00  0.00     0.382 C 
ATOM     23  O   LIG d   1       4.758  80.718 108.986  0.00  0.00    -0.241 OA
ATOM     24  O   LIG d   1       5.107  82.846 109.094  0.00  0.00    -0.241 OA
ENDBRANCH   3  22
TORSDOF 7
ENDMDL
MODEL 8
REMARK VINA RESULT:      -4.8      3.217      5.560
REMARK  7 active torsions:
REMARK  status: ('A' for Active; 'I' for Inactive)
REMARK    1  A    between atoms: C_2  and  C_3 
REMARK    2  A    between atoms: C_3  and  O_6 
REMARK    3  A    between atoms: C_3  and  C_4 
REMARK    4  A    between atoms: C_7  and  O_6 
REMARK    5  A    between atoms: C_9  and  C_10 
REMARK    6  A    between atoms: N_15  and  C_14 
REMARK    7  A    between atoms: N_20  and  C_19 
REMARK       I    between atoms: C_22  and  N_20 
ROOT
ATOM      1  C   LIG d   1       2.749  84.258 111.777  0.00  0.00     0.161 C 
ATOM      2  C   LIG d   1       3.445  83.197 111.174  0.00  0.00     0.016 C 
ATOM      3  C   LIG d   1       3.285  82.832 109.818  0.00  0.00     0.038 C 
ATOM      4  C   LIG d   1       2.526  83.605 108.927  0.00  0.00     0.028 C 
ATOM      5  C   LIG d   1       1.408  84.389 109.606  0.00  0.00    -0.047 C 
ATOM      6  C   LIG d   1       2.001  85.182 110.793  0.00  0.00     0.091 C 
ENDROOT
BRANCH   1   7
ATOM      7  O   LIG d   1       3.648  85.027 112.600  0.00  0.00    -0.368 OA
BRANCH   7   8
ATOM      8  C   LIG d   1       3.576  84.780 114.026  0.00  0.00     0.119 C 
BRANCH   8   9
ATOM      9  C   LIG d   1       2.352  83.878 114.278  0.00  0.00     0.028 C 
ATOM     10  C   LIG d   1       2.467  83.087 115.592  0.00  0.00     0.006 C 
ENDBRANCH   8   9
BRANCH   8  11
ATOM     11  C   LIG d   1       3.296  86.070 114.802  0.00  0.00     0.028 C 
ATOM     12  C   LIG d   1       3.308  87.319 113.906  0.00  0.00     0.006 C 
ENDBRANCH   8  11
ENDBRANCH   7   8
ENDBRANCH   1   7
BRANCH   6  13
ATOM     13  N   LIG d   1       0.960  85.911 111.564  0.00  0.00    -0.311 N 
ATOM     14  C   LIG d   1      -0.153  85.337 112.017  0.00  0.00     0.210 C 
ATOM     15  C   LIG d   1      -1.103  86.274 112.771  0.00  0.00     0.109 C 
ATOM     16  O   LIG d   1      -0.430  84.134 111.894  0.00  0.00    -0.276 OA
ATOM     17  H   LIG d   1       1.118  86.884 111.736  0.00  0.00     0.149 HD
ENDBRANCH   6  13
BRANCH   5  18
ATOM     18  N   LIG d   1       0.787  85.254 108.585  0.00  0.00     0.381 N 
ATOM     19  H   LIG d   1       0.521  84.705 107.792  0.00  0.00    -0.090 HD
ATOM     20  H   LIG d   1       1.460  85.937 108.285  0.00  0.00    -0.090 HD
ATOM     21  H   LIG d   1      -0.013  85.710 108.966  0.00  0.00    -0.090 HD
ENDBRANCH   5  18
BRANCH   3  22
ATOM     22  C   LIG d   1       3.857  81.659 109.350  0.00  0.00     0.382 C 
ATOM     23  O   LIG d   1       4.322  81.610 108.186  0.00  0.00    -0.241 OA
ATOM     24  O   LIG d   1       3.875  80.637 110.061  0.00  0.00    -0.241 OA
ENDBRANCH   3  22
TORSDOF 7
ENDMDL
MODEL 9
REMARK VINA RESULT:      -4.7      3.216      5.701
REMARK  7 active torsions:
REMARK  status: ('A' for Active; 'I' for Inactive)
REMARK    1  A    between atoms: C_2  and  C_3 
REMARK    2  A    between atoms: C_3  and  O_6 
REMARK    3  A    between atoms: C_3  and  C_4 
REMARK    4  A    between atoms: C_7  and  O_6 
REMARK    5  A    between atoms: C_9  and  C_10 
REMARK    6  A    between atoms: N_15  and  C_14 
REMARK    7  A    between atoms: N_20  and  C_19 
REMARK       I    between atoms: C_22  and  N_20 
ROOT
ATOM      1  C   LIG d   1       2.611  84.070 111.950  0.00  0.00     0.161 C 
ATOM      2  C   LIG d   1       3.326  84.260 113.144  0.00  0.00     0.016 C 
ATOM      3  C   LIG d   1       2.839  85.026 114.228  0.00  0.00     0.038 C 
ATOM      4  C   LIG d   1       1.532  85.533 114.250  0.00  0.00     0.028 C 
ATOM      5  C   LIG d   1       0.960  85.794 112.861  0.00  0.00    -0.047 C 
ATOM      6  C   LIG d   1       1.137  84.523 111.999  0.00  0.00     0.091 C 
ENDROOT
BRANCH   1   7
ATOM      7  O   LIG d   1       2.698  82.690 111.542  0.00  0.00    -0.368 OA
BRANCH   7   8
ATOM      8  C   LIG d   1       2.782  82.451 110.116  0.00  0.00     0.119 C 
BRANCH   8   9
ATOM      9  C   LIG d   1       1.698  81.416 109.756  0.00  0.00     0.028 C 
ATOM     10  C   LIG d   1       2.277  80.007 109.549  0.00  0.00     0.006 C 
ENDBRANCH   8   9
BRANCH   8  11
ATOM     11  C   LIG d   1       4.112  81.793 109.738  0.00  0.00     0.028 C 
ATOM     12  C   LIG d   1       4.836  82.525 108.597  0.00  0.00     0.006 C 
ENDBRANCH   8  11
ENDBRANCH   7   8
ENDBRANCH   1   7
BRANCH   6  13
ATOM     13  N   LIG d   1       0.680  84.720 110.598  0.00  0.00    -0.311 N 
ATOM     14  C   LIG d   1       1.156  85.673 109.799  0.00  0.00     0.210 C 
ATOM     15  C   LIG d   1       0.534  85.714 108.400  0.00  0.00     0.109 C 
ATOM     16  O   LIG d   1       2.057  86.469 110.105  0.00  0.00    -0.276 OA
ATOM     17  H   LIG d   1      -0.027  84.098 110.258  0.00  0.00     0.149 HD
ENDBRANCH   6  13
BRANCH   5  18
ATOM     18  N   LIG d   1      -0.452  86.188 113.027  0.00  0.00     0.381 N 
ATOM     19  H   LIG d   1      -0.967  85.436 113.439  0.00  0.00    -0.090 HD
ATOM     20  H   LIG d   1      -0.844  86.380 112.122  0.00  0.00    -0.090 HD
ATOM     21  H   LIG d   1      -0.515  86.998 113.603  0.00  0.00    -0.090 HD
ENDBRANCH   5  18
BRANCH   3  22
ATOM     22  C   LIG d   1       3.680  85.325 115.290  0.00  0.00     0.382 C 
ATOM     23  O   LIG d   1       3.695  86.484 115.770  0.00  0.00    -0.241 OA
ATOM     24  O   LIG d   1       4.455  84.463 115.744  0.00  0.00    -0.241 OA
ENDBRANCH   3  22
TORSDOF 7
ENDMDL
