MODEL 1
REMARK VINA RESULT:      -6.3      0.000      0.000
REMARK  7 active torsions:
REMARK  status: ('A' for Active; 'I' for Inactive)
REMARK    1  A    between atoms: C_2  and  C_3 
REMARK    2  A    between atoms: C_3  and  O_6 
REMARK    3  A    between atoms: C_3  and  C_4 
REMARK    4  A    between atoms: C_7  and  O_6 
REMARK    5  A    between atoms: C_9  and  C_10 
REMARK    6  A    between atoms: N_15  and  C_14 
REMARK    7  A    between atoms: N_20  and  C_19 
REMARK       I    between atoms: C_22  and  N_20 
ROOT
ATOM      1  C   LIG d   1       1.232  81.609 111.193  0.00  0.00     0.161 C 
ATOM      2  C   LIG d   1       1.316  80.320 110.639  0.00  0.00     0.016 C 
ATOM      3  C   LIG d   1       0.285  79.359 110.744  0.00  0.00     0.038 C 
ATOM      4  C   LIG d   1      -0.971  79.675 111.283  0.00  0.00     0.028 C 
ATOM      5  C   LIG d   1      -0.924  80.806 112.305  0.00  0.00    -0.047 C 
ATOM      6  C   LIG d   1      -0.174  82.008 111.688  0.00  0.00     0.091 C 
ENDROOT
BRANCH   1   7
ATOM      7  O   LIG d   1       1.725  82.580 110.249  0.00  0.00    -0.368 OA
BRANCH   7   8
ATOM      8  C   LIG d   1       3.048  83.110 110.512  0.00  0.00     0.119 C 
BRANCH   8   9
ATOM      9  C   LIG d   1       2.909  84.634 110.686  0.00  0.00     0.028 C 
ATOM     10  C   LIG d   1       4.083  85.245 111.470  0.00  0.00     0.006 C 
ENDBRANCH   8   9
BRANCH   8  11
ATOM     11  C   LIG d   1       3.974  82.921 109.307  0.00  0.00     0.028 C 
ATOM     12  C   LIG d   1       4.916  81.717 109.462  0.00  0.00     0.006 C 
ENDBRANCH   8  11
ENDBRANCH   7   8
ENDBRANCH   1   7
BRANCH   6  13
ATOM     13  N   LIG d   1      -0.009  83.128 112.652  0.00  0.00    -0.311 N 
ATOM     14  C   LIG d   1      -0.295  84.396 112.358  0.00  0.00     0.210 C 
ATOM     15  C   LIG d   1      -0.034  85.396 113.489  0.00  0.00     0.109 C 
ATOM     16  O   LIG d   1      -0.771  84.782 111.280  0.00  0.00    -0.276 OA
ATOM     17  H   LIG d   1       0.342  82.900 113.561  0.00  0.00     0.149 HD
ENDBRANCH   6  13
BRANCH   5  18
ATOM     18  N   LIG d   1      -2.315  81.124 112.682  0.00  0.00     0.381 N 
ATOM     19  H   LIG d   1      -2.537  80.687 113.554  0.00  0.00    -0.090 HD
ATOM     20  H   LIG d   1      -2.933  80.759 111.980  0.00  0.00    -0.090 HD
ATOM     21  H   LIG d   1      -2.430  82.110 112.757  0.00  0.00    -0.090 HD
ENDBRANCH   5  18
BRANCH   3  22
ATOM     22  C   LIG d   1       0.519  78.053 110.341  0.00  0.00     0.382 C 
ATOM     23  O   LIG d   1      -0.341  77.166 110.558  0.00  0.00    -0.241 OA
ATOM     24  O   LIG d   1       1.599  77.742 109.804  0.00  0.00    -0.241 OA
ENDBRANCH   3  22
TORSDOF 7
ENDMDL
MODEL 2
REMARK VINA RESULT:      -6.0      2.902      5.511
REMARK  7 active torsions:
REMARK  status: ('A' for Active; 'I' for Inactive)
REMARK    1  A    between atoms: C_2  and  C_3 
REMARK    2  A    between atoms: C_3  and  O_6 
REMARK    3  A    between atoms: C_3  and  C_4 
REMARK    4  A    between atoms: C_7  and  O_6 
REMARK    5  A    between atoms: C_9  and  C_10 
REMARK    6  A    between atoms: N_15  and  C_14 
REMARK    7  A    between atoms: N_20  and  C_19 
REMARK       I    between atoms: C_22  and  N_20 
ROOT
ATOM      1  C   LIG d   1       2.494  84.448 110.328  0.00  0.00     0.161 C 
ATOM      2  C   LIG d   1       1.530  85.429 110.613  0.00  0.00     0.016 C 
ATOM      3  C   LIG d   1       0.159  85.140 110.806  0.00  0.00     0.038 C 
ATOM      4  C   LIG d   1      -0.318  83.823 110.877  0.00  0.00     0.028 C 
ATOM      5  C   LIG d   1       0.532  82.828 110.095  0.00  0.00    -0.047 C 
ATOM      6  C   LIG d   1       2.011  82.994 110.512  0.00  0.00     0.091 C 
ENDROOT
BRANCH   1   7
ATOM      7  O   LIG d   1       3.679  84.686 111.113  0.00  0.00    -0.368 OA
BRANCH   7   8
ATOM      8  C   LIG d   1       3.586  85.736 112.106  0.00  0.00     0.119 C 
BRANCH   8   9
ATOM      9  C   LIG d   1       4.763  86.702 111.871  0.00  0.00     0.028 C 
ATOM     10  C   LIG d   1       4.540  88.072 112.533  0.00  0.00     0.006 C 
ENDBRANCH   8   9
BRANCH   8  11
ATOM     11  C   LIG d   1       3.790  85.185 113.521  0.00  0.00     0.028 C 
ATOM     12  C   LIG d   1       2.511  84.572 114.112  0.00  0.00     0.006 C 
ENDBRANCH   8  11
ENDBRANCH   7   8
ENDBRANCH   1   7
BRANCH   6  13
ATOM     13  N   LIG d   1       2.922  82.116 109.732  0.00  0.00    -0.311 N 
ATOM     14  C   LIG d   1       3.698  81.187 110.288  0.00  0.00     0.210 C 
ATOM     15  C   LIG d   1       4.576  80.405 109.305  0.00  0.00     0.109 C 
ATOM     16  O   LIG d   1       3.719  80.914 111.497  0.00  0.00    -0.276 OA
ATOM     17  H   LIG d   1       2.945  82.249 108.740  0.00  0.00     0.149 HD
ENDBRANCH   6  13
BRANCH   5  18
ATOM     18  N   LIG d   1       0.003  81.478 110.367  0.00  0.00     0.381 N 
ATOM     19  H   LIG d   1      -0.403  81.452 111.281  0.00  0.00    -0.090 HD
ATOM     20  H   LIG d   1       0.761  80.820 110.340  0.00  0.00    -0.090 HD
ATOM     21  H   LIG d   1      -0.682  81.236 109.685  0.00  0.00    -0.090 HD
ENDBRANCH   5  18
BRANCH   3  22
ATOM     22  C   LIG d   1      -0.757  86.178 110.891  0.00  0.00     0.382 C 
ATOM     23  O   LIG d   1      -1.813  86.139 110.215  0.00  0.00    -0.241 OA
ATOM     24  O   LIG d   1      -0.519  87.173 111.601  0.00  0.00    -0.241 OA
ENDBRANCH   3  22
TORSDOF 7
ENDMDL
MODEL 3
REMARK VINA RESULT:      -5.7      2.374      4.173
REMARK  7 active torsions:
REMARK  status: ('A' for Active; 'I' for Inactive)
REMARK    1  A    between atoms: C_2  and  C_3 
REMARK    2  A    between atoms: C_3  and  O_6 
REMARK    3  A    between atoms: C_3  and  C_4 
REMARK    4  A    between atoms: C_7  and  O_6 
REMARK    5  A    between atoms: C_9  and  C_10 
REMARK    6  A    between atoms: N_15  and  C_14 
REMARK    7  A    between atoms: N_20  and  C_19 
REMARK       I    between atoms: C_22  and  N_20 
ROOT
ATOM      1  C   LIG d   1       0.465  82.238 111.832  0.00  0.00     0.161 C 
ATOM      2  C   LIG d   1      -0.768  81.962 112.448  0.00  0.00     0.016 C 
ATOM      3  C   LIG d   1      -1.391  80.694 112.408  0.00  0.00     0.038 C 
ATOM      4  C   LIG d   1      -0.747  79.568 111.874  0.00  0.00     0.028 C 
ATOM      5  C   LIG d   1       0.276  79.909 110.797  0.00  0.00    -0.047 C 
ATOM      6  C   LIG d   1       1.234  80.994 111.340  0.00  0.00     0.091 C 
ENDROOT
BRANCH   1   7
ATOM      7  O   LIG d   1       1.290  83.020 112.719  0.00  0.00    -0.368 OA
BRANCH   7   8
ATOM      8  C   LIG d   1       1.543  84.387 112.313  0.00  0.00     0.119 C 
BRANCH   8   9
ATOM      9  C   LIG d   1       0.634  84.688 111.105  0.00  0.00     0.028 C 
ATOM     10  C   LIG d   1      -0.440  85.740 111.426  0.00  0.00     0.006 C 
ENDBRANCH   8   9
BRANCH   8  11
ATOM     11  C   LIG d   1       2.974  84.560 111.797  0.00  0.00     0.028 C 
ATOM     12  C   LIG d   1       3.348  86.031 111.557  0.00  0.00     0.006 C 
ENDBRANCH   8  11
ENDBRANCH   7   8
ENDBRANCH   1   7
BRANCH   6  13
ATOM     13  N   LIG d   1       2.215  81.447 110.320  0.00  0.00    -0.311 N 
ATOM     14  C   LIG d   1       3.534  81.329 110.468  0.00  0.00     0.210 C 
ATOM     15  C   LIG d   1       4.366  81.878 109.305  0.00  0.00     0.109 C 
ATOM     16  O   LIG d   1       4.092  80.792 111.437  0.00  0.00    -0.276 OA
ATOM     17  H   LIG d   1       1.848  81.866 109.488  0.00  0.00     0.149 HD
ENDBRANCH   6  13
BRANCH   5  18
ATOM     18  N   LIG d   1       0.968  78.660 110.427  0.00  0.00     0.381 N 
ATOM     19  H   LIG d   1       0.855  77.982 111.154  0.00  0.00    -0.090 HD
ATOM     20  H   LIG d   1       1.949  78.850 110.323  0.00  0.00    -0.090 HD
ATOM     21  H   LIG d   1       0.599  78.306 109.572  0.00  0.00    -0.090 HD
ENDBRANCH   5  18
BRANCH   3  22
ATOM     22  C   LIG d   1      -2.690  80.552 112.871  0.00  0.00     0.382 C 
ATOM     23  O   LIG d   1      -3.412  81.565 113.034  0.00  0.00    -0.241 OA
ATOM     24  O   LIG d   1      -3.135  79.427 113.171  0.00  0.00    -0.241 OA
ENDBRANCH   3  22
TORSDOF 7
ENDMDL
MODEL 4
REMARK VINA RESULT:      -5.6      2.154      4.667
REMARK  7 active torsions:
REMARK  status: ('A' for Active; 'I' for Inactive)
REMARK    1  A    between atoms: C_2  and  C_3 
REMARK    2  A    between atoms: C_3  and  O_6 
REMARK    3  A    between atoms: C_3  and  C_4 
REMARK    4  A    between atoms: C_7  and  O_6 
REMARK    5  A    between atoms: C_9  and  C_10 
REMARK    6  A    between atoms: N_15  and  C_14 
REMARK    7  A    between atoms: N_20  and  C_19 
REMARK       I    between atoms: C_22  and  N_20 
ROOT
ATOM      1  C   LIG d   1       0.869  81.621 111.913  0.00  0.00     0.161 C 
ATOM      2  C   LIG d   1       2.048  82.182 111.393  0.00  0.00     0.016 C 
ATOM      3  C   LIG d   1       2.823  81.565 110.384  0.00  0.00     0.038 C 
ATOM      4  C   LIG d   1       2.388  80.411 109.716  0.00  0.00     0.028 C 
ATOM      5  C   LIG d   1       1.459  79.539 110.554  0.00  0.00    -0.047 C 
ATOM      6  C   LIG d   1       0.320  80.418 111.118  0.00  0.00     0.091 C 
ENDROOT
BRANCH   1   7
ATOM      7  O   LIG d   1      -0.142  82.641 112.040  0.00  0.00    -0.368 OA
BRANCH   7   8
ATOM      8  C   LIG d   1       0.298  84.005 111.825  0.00  0.00     0.119 C 
BRANCH   8   9
ATOM      9  C   LIG d   1      -0.114  84.824 113.063  0.00  0.00     0.028 C 
ATOM     10  C   LIG d   1       1.052  85.029 114.046  0.00  0.00     0.006 C 
ENDBRANCH   8   9
BRANCH   8  11
ATOM     11  C   LIG d   1      -0.441  84.649 110.648  0.00  0.00     0.028 C 
ATOM     12  C   LIG d   1       0.401  85.714 109.928  0.00  0.00     0.006 C 
ENDBRANCH   8  11
ENDBRANCH   7   8
ENDBRANCH   1   7
BRANCH   6  13
ATOM     13  N   LIG d   1      -0.588  79.660 112.019  0.00  0.00    -0.311 N 
ATOM     14  C   LIG d   1      -1.583  78.893 111.580  0.00  0.00     0.210 C 
ATOM     15  C   LIG d   1      -2.410  78.216 112.677  0.00  0.00     0.109 C 
ATOM     16  O   LIG d   1      -1.840  78.682 110.385  0.00  0.00    -0.276 OA
ATOM     17  H   LIG d   1      -0.431  79.749 113.004  0.00  0.00     0.149 HD
ENDBRANCH   6  13
BRANCH   5  18
ATOM     18  N   LIG d   1       0.974  78.446 109.691  0.00  0.00     0.381 N 
ATOM     19  H   LIG d   1       0.932  77.595 110.213  0.00  0.00    -0.090 HD
ATOM     20  H   LIG d   1       1.621  78.320 108.932  0.00  0.00    -0.090 HD
ATOM     21  H   LIG d   1       0.071  78.670 109.333  0.00  0.00    -0.090 HD
ENDBRANCH   5  18
BRANCH   3  22
ATOM     22  C   LIG d   1       4.069  82.082 110.063  0.00  0.00     0.382 C 
ATOM     23  O   LIG d   1       4.837  81.442 109.305  0.00  0.00    -0.241 OA
ATOM     24  O   LIG d   1       4.452  83.160 110.556  0.00  0.00    -0.241 OA
ENDBRANCH   3  22
TORSDOF 7
ENDMDL
MODEL 5
REMARK VINA RESULT:      -5.6      2.238      5.031
REMARK  7 active torsions:
REMARK  status: ('A' for Active; 'I' for Inactive)
REMARK    1  A    between atoms: C_2  and  C_3 
REMARK    2  A    between atoms: C_3  and  O_6 
REMARK    3  A    between atoms: C_3  and  C_4 
REMARK    4  A    between atoms: C_7  and  O_6 
REMARK    5  A    between atoms: C_9  and  C_10 
REMARK    6  A    between atoms: N_15  and  C_14 
REMARK    7  A    between atoms: N_20  and  C_19 
REMARK       I    between atoms: C_22  and  N_20 
ROOT
ATOM      1  C   LIG d   1       0.717  82.989 110.662  0.00  0.00     0.161 C 
ATOM      2  C   LIG d   1       0.890  84.367 110.449  0.00  0.00     0.016 C 
ATOM      3  C   LIG d   1       1.191  85.282 111.483  0.00  0.00     0.038 C 
ATOM      4  C   LIG d   1       1.490  84.857 112.786  0.00  0.00     0.028 C 
ATOM      5  C   LIG d   1       0.834  83.532 113.156  0.00  0.00    -0.047 C 
ATOM      6  C   LIG d   1       1.149  82.491 112.057  0.00  0.00     0.091 C 
ENDROOT
BRANCH   1   7
ATOM      7  O   LIG d   1       1.398  82.246 109.632  0.00  0.00    -0.368 OA
BRANCH   7   8
ATOM      8  C   LIG d   1       2.658  81.638 110.011  0.00  0.00     0.119 C 
BRANCH   8   9
ATOM      9  C   LIG d   1       3.781  82.422 109.305  0.00  0.00     0.028 C 
ATOM     10  C   LIG d   1       4.418  83.484 110.217  0.00  0.00     0.006 C 
ENDBRANCH   8   9
BRANCH   8  11
ATOM     11  C   LIG d   1       2.768  80.206 109.480  0.00  0.00     0.028 C 
ATOM     12  C   LIG d   1       1.434  79.444 109.539  0.00  0.00     0.006 C 
ENDBRANCH   8  11
ENDBRANCH   7   8
ENDBRANCH   1   7
BRANCH   6  13
ATOM     13  N   LIG d   1       0.475  81.189 112.299  0.00  0.00    -0.311 N 
ATOM     14  C   LIG d   1      -0.848  81.053 112.385  0.00  0.00     0.210 C 
ATOM     15  C   LIG d   1      -1.335  79.627 112.658  0.00  0.00     0.109 C 
ATOM     16  O   LIG d   1      -1.665  81.973 112.229  0.00  0.00    -0.276 OA
ATOM     17  H   LIG d   1       1.061  80.385 112.406  0.00  0.00     0.149 HD
ENDBRANCH   6  13
BRANCH   5  18
ATOM     18  N   LIG d   1       1.340  83.140 114.485  0.00  0.00     0.381 N 
ATOM     19  H   LIG d   1       1.332  83.931 115.097  0.00  0.00    -0.090 HD
ATOM     20  H   LIG d   1       2.288  82.822 114.392  0.00  0.00    -0.090 HD
ATOM     21  H   LIG d   1       0.774  82.412 114.864  0.00  0.00    -0.090 HD
ENDBRANCH   5  18
BRANCH   3  22
ATOM     22  C   LIG d   1       1.156  86.645 111.227  0.00  0.00     0.382 C 
ATOM     23  O   LIG d   1       2.168  87.221 110.760  0.00  0.00    -0.241 OA
ATOM     24  O   LIG d   1       0.140  87.312 111.498  0.00  0.00    -0.241 OA
ENDBRANCH   3  22
TORSDOF 7
ENDMDL
MODEL 6
REMARK VINA RESULT:      -5.5      3.349      6.805
REMARK  7 active torsions:
REMARK  status: ('A' for Active; 'I' for Inactive)
REMARK    1  A    between atoms: C_2  and  C_3 
REMARK    2  A    between atoms: C_3  and  O_6 
REMARK    3  A    between atoms: C_3  and  C_4 
REMARK    4  A    between atoms: C_7  and  O_6 
REMARK    5  A    between atoms: C_9  and  C_10 
REMARK    6  A    between atoms: N_15  and  C_14 
REMARK    7  A    between atoms: N_20  and  C_19 
REMARK       I    between atoms: C_22  and  N_20 
ROOT
ATOM      1  C   LIG d   1       3.321  85.041 112.084  0.00  0.00     0.161 C 
ATOM      2  C   LIG d   1       3.615  86.311 112.609  0.00  0.00     0.016 C 
ATOM      3  C   LIG d   1       2.892  87.478 112.272  0.00  0.00     0.038 C 
ATOM      4  C   LIG d   1       1.722  87.429 111.499  0.00  0.00     0.028 C 
ATOM      5  C   LIG d   1       1.681  86.246 110.538  0.00  0.00    -0.047 C 
ATOM      6  C   LIG d   1       1.981  84.950 111.325  0.00  0.00     0.091 C 
ENDROOT
BRANCH   1   7
ATOM      7  O   LIG d   1       3.372  84.055 113.133  0.00  0.00    -0.368 OA
BRANCH   7   8
ATOM      8  C   LIG d   1       2.114  83.757 113.788  0.00  0.00     0.119 C 
BRANCH   8   9
ATOM      9  C   LIG d   1       2.257  84.159 115.269  0.00  0.00     0.028 C 
ATOM     10  C   LIG d   1       1.695  85.562 115.552  0.00  0.00     0.006 C 
ENDBRANCH   8   9
BRANCH   8  11
ATOM     11  C   LIG d   1       1.837  82.250 113.803  0.00  0.00     0.028 C 
ATOM     12  C   LIG d   1       2.198  81.591 115.143  0.00  0.00     0.006 C 
ENDBRANCH   8  11
ENDBRANCH   7   8
ENDBRANCH   1   7
BRANCH   6  13
ATOM     13  N   LIG d   1       2.043  83.754 110.445  0.00  0.00    -0.311 N 
ATOM     14  C   LIG d   1       1.006  82.946 110.231  0.00  0.00     0.210 C 
ATOM     15  C   LIG d   1       1.290  81.759 109.305  0.00  0.00     0.109 C 
ATOM     16  O   LIG d   1      -0.132  83.118 110.694  0.00  0.00    -0.276 OA
ATOM     17  H   LIG d   1       2.920  83.557 110.004  0.00  0.00     0.149 HD
ENDBRANCH   6  13
BRANCH   5  18
ATOM     18  N   LIG d   1       0.353  86.239 109.896  0.00  0.00     0.381 N 
ATOM     19  H   LIG d   1       0.429  85.885 108.964  0.00  0.00    -0.090 HD
ATOM     20  H   LIG d   1       0.010  87.182 109.848  0.00  0.00    -0.090 HD
ATOM     21  H   LIG d   1      -0.277  85.675 110.423  0.00  0.00    -0.090 HD
ENDBRANCH   5  18
BRANCH   3  22
ATOM     22  C   LIG d   1       3.360  88.718 112.679  0.00  0.00     0.382 C 
ATOM     23  O   LIG d   1       2.550  89.622 112.995  0.00  0.00    -0.241 OA
ATOM     24  O   LIG d   1       4.583  88.958 112.692  0.00  0.00    -0.241 OA
ENDBRANCH   3  22
TORSDOF 7
ENDMDL
MODEL 7
REMARK VINA RESULT:      -5.4      3.692      7.094
REMARK  7 active torsions:
REMARK  status: ('A' for Active; 'I' for Inactive)
REMARK    1  A    between atoms: C_2  and  C_3 
REMARK    2  A    between atoms: C_3  and  O_6 
REMARK    3  A    between atoms: C_3  and  C_4 
REMARK    4  A    between atoms: C_7  and  O_6 
REMARK    5  A    between atoms: C_9  and  C_10 
REMARK    6  A    between atoms: N_15  and  C_14 
REMARK    7  A    between atoms: N_20  and  C_19 
REMARK       I    between atoms: C_22  and  N_20 
ROOT
ATOM      1  C   LIG d   1       3.222  84.909 112.888  0.00  0.00     0.161 C 
ATOM      2  C   LIG d   1       4.012  86.064 113.004  0.00  0.00     0.016 C 
ATOM      3  C   LIG d   1       3.619  87.329 112.511  0.00  0.00     0.038 C 
ATOM      4  C   LIG d   1       2.333  87.558 111.999  0.00  0.00     0.028 C 
ATOM      5  C   LIG d   1       1.688  86.312 111.402  0.00  0.00    -0.047 C 
ATOM      6  C   LIG d   1       1.769  85.162 112.432  0.00  0.00     0.091 C 
ENDROOT
BRANCH   1   7
ATOM      7  O   LIG d   1       3.236  84.180 114.131  0.00  0.00    -0.368 OA
BRANCH   7   8
ATOM      8  C   LIG d   1       3.435  84.968 115.330  0.00  0.00     0.119 C 
BRANCH   8   9
ATOM      9  C   LIG d   1       4.380  84.176 116.254  0.00  0.00     0.028 C 
ATOM     10  C   LIG d   1       5.574  85.019 116.734  0.00  0.00     0.006 C 
ENDBRANCH   8   9
BRANCH   8  11
ATOM     11  C   LIG d   1       2.131  85.121 116.119  0.00  0.00     0.028 C 
ATOM     12  C   LIG d   1       1.475  86.497 115.925  0.00  0.00     0.006 C 
ENDBRANCH   8  11
ENDBRANCH   7   8
ENDBRANCH   1   7
BRANCH   6  13
ATOM     13  N   LIG d   1       1.236  83.883 111.897  0.00  0.00    -0.311 N 
ATOM     14  C   LIG d   1      -0.008  83.459 112.114  0.00  0.00     0.210 C 
ATOM     15  C   LIG d   1      -0.347  82.102 111.488  0.00  0.00     0.109 C 
ATOM     16  O   LIG d   1      -0.872  84.092 112.739  0.00  0.00    -0.276 OA
ATOM     17  H   LIG d   1       1.861  83.321 111.352  0.00  0.00     0.149 HD
ENDBRANCH   6  13
BRANCH   5  18
ATOM     18  N   LIG d   1       0.303  86.660 111.033  0.00  0.00     0.381 N 
ATOM     19  H   LIG d   1      -0.001  86.084 110.274  0.00  0.00    -0.090 HD
ATOM     20  H   LIG d   1       0.278  87.618 110.731  0.00  0.00    -0.090 HD
ATOM     21  H   LIG d   1      -0.300  86.536 111.816  0.00  0.00    -0.090 HD
ENDBRANCH   5  18
BRANCH   3  22
ATOM     22  C   LIG d   1       4.531  88.373 112.491  0.00  0.00     0.382 C 
ATOM     23  O   LIG d   1       4.171  89.527 112.827  0.00  0.00    -0.241 OA
ATOM     24  O   LIG d   1       5.698  88.185 112.098  0.00  0.00    -0.241 OA
ENDBRANCH   3  22
TORSDOF 7
ENDMDL
MODEL 8
REMARK VINA RESULT:      -5.3      4.291      7.372
REMARK  7 active torsions:
REMARK  status: ('A' for Active; 'I' for Inactive)
REMARK    1  A    between atoms: C_2  and  C_3 
REMARK    2  A    between atoms: C_3  and  O_6 
REMARK    3  A    between atoms: C_3  and  C_4 
REMARK    4  A    between atoms: C_7  and  O_6 
REMARK    5  A    between atoms: C_9  and  C_10 
REMARK    6  A    between atoms: N_15  and  C_14 
REMARK    7  A    between atoms: N_20  and  C_19 
REMARK       I    between atoms: C_22  and  N_20 
ROOT
ATOM      1  C   LIG d   1       3.360  85.399 113.143  0.00  0.00     0.161 C 
ATOM      2  C   LIG d   1       3.872  86.588 112.596  0.00  0.00     0.016 C 
ATOM      3  C   LIG d   1       4.540  87.571 113.360  0.00  0.00     0.038 C 
ATOM      4  C   LIG d   1       4.878  87.362 114.706  0.00  0.00     0.028 C 
ATOM      5  C   LIG d   1       3.940  86.397 115.422  0.00  0.00    -0.047 C 
ATOM      6  C   LIG d   1       3.817  85.102 114.586  0.00  0.00     0.091 C 
ENDROOT
BRANCH   1   7
ATOM      7  O   LIG d   1       3.675  84.289 112.279  0.00  0.00    -0.368 OA
BRANCH   7   8
ATOM      8  C   LIG d   1       3.443  84.496 110.864  0.00  0.00     0.119 C 
BRANCH   8   9
ATOM      9  C   LIG d   1       1.957  84.192 110.590  0.00  0.00     0.028 C 
ATOM     10  C   LIG d   1       1.177  85.438 110.138  0.00  0.00     0.006 C 
ENDBRANCH   8   9
BRANCH   8  11
ATOM     11  C   LIG d   1       4.226  83.488 110.018  0.00  0.00     0.028 C 
ATOM     12  C   LIG d   1       3.324  82.421 109.376  0.00  0.00     0.006 C 
ENDBRANCH   8  11
ENDBRANCH   7   8
ENDBRANCH   1   7
BRANCH   6  13
ATOM     13  N   LIG d   1       2.851  84.138 115.174  0.00  0.00    -0.311 N 
ATOM     14  C   LIG d   1       3.216  83.104 115.930  0.00  0.00     0.210 C 
ATOM     15  C   LIG d   1       2.063  82.221 116.419  0.00  0.00     0.109 C 
ATOM     16  O   LIG d   1       4.382  82.852 116.270  0.00  0.00    -0.276 OA
ATOM     17  H   LIG d   1       1.881  84.285 114.975  0.00  0.00     0.149 HD
ENDBRANCH   6  13
BRANCH   5  18
ATOM     18  N   LIG d   1       4.487  86.163 116.772  0.00  0.00     0.381 N 
ATOM     19  H   LIG d   1       3.879  85.554 117.283  0.00  0.00    -0.090 HD
ATOM     20  H   LIG d   1       4.536  87.041 117.259  0.00  0.00    -0.090 HD
ATOM     21  H   LIG d   1       5.395  85.760 116.707  0.00  0.00    -0.090 HD
ENDBRANCH   5  18
BRANCH   3  22
ATOM     22  C   LIG d   1       4.843  88.798 112.789  0.00  0.00     0.382 C 
ATOM     23  O   LIG d   1       5.984  89.000 112.308  0.00  0.00    -0.241 OA
ATOM     24  O   LIG d   1       4.005  89.718 112.787  0.00  0.00    -0.241 OA
ENDBRANCH   3  22
TORSDOF 7
ENDMDL
MODEL 9
REMARK VINA RESULT:      -5.3      7.222     10.122
REMARK  7 active torsions:
REMARK  status: ('A' for Active; 'I' for Inactive)
REMARK    1  A    between atoms: C_2  and  C_3 
REMARK    2  A    between atoms: C_3  and  O_6 
REMARK    3  A    between atoms: C_3  and  C_4 
REMARK    4  A    between atoms: C_7  and  O_6 
REMARK    5  A    between atoms: C_9  and  C_10 
REMARK    6  A    between atoms: N_15  and  C_14 
REMARK    7  A    between atoms: N_20  and  C_19 
REMARK       I    between atoms: C_22  and  N_20 
ROOT
ATOM      1  C   LIG d   1      -2.999  75.628 115.740  0.00  0.00     0.161 C 
ATOM      2  C   LIG d   1      -2.642  74.768 116.791  0.00  0.00     0.016 C 
ATOM      3  C   LIG d   1      -1.441  74.895 117.527  0.00  0.00     0.038 C 
ATOM      4  C   LIG d   1      -0.580  75.990 117.358  0.00  0.00     0.028 C 
ATOM      5  C   LIG d   1      -0.648  76.604 115.964  0.00  0.00    -0.047 C 
ATOM      6  C   LIG d   1      -2.126  76.894 115.615  0.00  0.00     0.091 C 
ENDROOT
BRANCH   1   7
ATOM      7  O   LIG d   1      -4.390  75.988 115.854  0.00  0.00    -0.368 OA
BRANCH   7   8
ATOM      8  C   LIG d   1      -5.242  75.032 116.531  0.00  0.00     0.119 C 
BRANCH   8   9
ATOM      9  C   LIG d   1      -6.054  74.289 115.452  0.00  0.00     0.028 C 
ATOM     10  C   LIG d   1      -6.644  72.966 115.969  0.00  0.00     0.006 C 
ENDBRANCH   8   9
BRANCH   8  11
ATOM     11  C   LIG d   1      -6.282  75.736 117.408  0.00  0.00     0.028 C 
ATOM     12  C   LIG d   1      -7.205  76.668 116.606  0.00  0.00     0.006 C 
ENDBRANCH   8  11
ENDBRANCH   7   8
ENDBRANCH   1   7
BRANCH   6  13
ATOM     13  N   LIG d   1      -2.290  77.419 114.234  0.00  0.00    -0.311 N 
ATOM     14  C   LIG d   1      -2.315  78.718 113.942  0.00  0.00     0.210 C 
ATOM     15  C   LIG d   1      -2.513  79.043 112.458  0.00  0.00     0.109 C 
ATOM     16  O   LIG d   1      -2.159  79.632 114.766  0.00  0.00    -0.276 OA
ATOM     17  H   LIG d   1      -2.392  76.746 113.499  0.00  0.00     0.149 HD
ENDBRANCH   6  13
BRANCH   5  18
ATOM     18  N   LIG d   1       0.193  77.816 115.969  0.00  0.00     0.381 N 
ATOM     19  H   LIG d   1      -0.215  78.514 115.380  0.00  0.00    -0.090 HD
ATOM     20  H   LIG d   1       1.099  77.584 115.603  0.00  0.00    -0.090 HD
ATOM     21  H   LIG d   1       0.282  78.165 116.898  0.00  0.00    -0.090 HD
ENDBRANCH   5  18
BRANCH   3  22
ATOM     22  C   LIG d   1      -1.071  73.897 118.416  0.00  0.00     0.382 C 
ATOM     23  O   LIG d   1      -1.035  74.136 119.647  0.00  0.00    -0.241 OA
ATOM     24  O   LIG d   1      -0.730  72.774 117.999  0.00  0.00    -0.241 OA
ENDBRANCH   3  22
TORSDOF 7
ENDMDL
