MODEL 1
REMARK VINA RESULT:      -7.0      0.000      0.000
REMARK  7 active torsions:
REMARK  status: ('A' for Active; 'I' for Inactive)
REMARK    1  A    between atoms: C_2  and  C_3 
REMARK    2  A    between atoms: C_3  and  O_6 
REMARK    3  A    between atoms: C_3  and  C_4 
REMARK    4  A    between atoms: C_7  and  O_6 
REMARK    5  A    between atoms: C_9  and  C_10 
REMARK    6  A    between atoms: N_15  and  C_14 
REMARK    7  A    between atoms: N_20  and  C_19 
REMARK       I    between atoms: C_22  and  N_20 
ROOT
ATOM      1  C   LIG d   1       0.123  82.673 111.031  0.00  0.00     0.161 C 
ATOM      2  C   LIG d   1      -1.017  82.380 111.797  0.00  0.00     0.016 C 
ATOM      3  C   LIG d   1      -1.514  81.069 111.983  0.00  0.00     0.038 C 
ATOM      4  C   LIG d   1      -0.812  79.940 111.536  0.00  0.00     0.028 C 
ATOM      5  C   LIG d   1       0.075  80.217 110.327  0.00  0.00    -0.047 C 
ATOM      6  C   LIG d   1       0.965  81.445 110.628  0.00  0.00     0.091 C 
ENDROOT
BRANCH   1   7
ATOM      7  O   LIG d   1       0.942  83.637 111.723  0.00  0.00    -0.368 OA
BRANCH   7   8
ATOM      8  C   LIG d   1       1.011  84.957 111.130  0.00  0.00     0.119 C 
BRANCH   8   9
ATOM      9  C   LIG d   1       0.096  84.956 109.890  0.00  0.00     0.028 C 
ATOM     10  C   LIG d   1      -0.946  86.087 109.929  0.00  0.00     0.006 C 
ENDBRANCH   8   9
BRANCH   8  11
ATOM     11  C   LIG d   1       2.415  85.256 110.598  0.00  0.00     0.028 C 
ATOM     12  C   LIG d   1       3.226  86.168 111.533  0.00  0.00     0.006 C 
ENDBRANCH   8  11
ENDBRANCH   7   8
ENDBRANCH   1   7
BRANCH   6  13
ATOM     13  N   LIG d   1       1.804  81.836 109.466  0.00  0.00    -0.311 N 
ATOM     14  C   LIG d   1       3.129  81.956 109.525  0.00  0.00     0.210 C 
ATOM     15  C   LIG d   1       3.798  82.390 108.217  0.00  0.00     0.109 C 
ATOM     16  O   LIG d   1       3.817  81.714 110.528  0.00  0.00    -0.276 OA
ATOM     17  H   LIG d   1       1.330  82.021 108.603  0.00  0.00     0.149 HD
ENDBRANCH   6  13
BRANCH   5  18
ATOM     18  N   LIG d   1       0.851  78.993 110.053  0.00  0.00     0.381 N 
ATOM     19  H   LIG d   1       1.756  79.064 110.474  0.00  0.00    -0.090 HD
ATOM     20  H   LIG d   1       0.972  78.901 109.060  0.00  0.00    -0.090 HD
ATOM     21  H   LIG d   1       0.371  78.198 110.412  0.00  0.00    -0.090 HD
ENDBRANCH   5  18
BRANCH   3  22
ATOM     22  C   LIG d   1      -2.747  80.881 112.588  0.00  0.00     0.382 C 
ATOM     23  O   LIG d   1      -3.744  81.534 112.196  0.00  0.00    -0.241 OA
ATOM     24  O   LIG d   1      -2.866  80.099 113.551  0.00  0.00    -0.241 OA
ENDBRANCH   3  22
TORSDOF 7
ENDMDL
MODEL 2
REMARK VINA RESULT:      -6.6      1.757      5.018
REMARK  7 active torsions:
REMARK  status: ('A' for Active; 'I' for Inactive)
REMARK    1  A    between atoms: C_2  and  C_3 
REMARK    2  A    between atoms: C_3  and  O_6 
REMARK    3  A    between atoms: C_3  and  C_4 
REMARK    4  A    between atoms: C_7  and  O_6 
REMARK    5  A    between atoms: C_9  and  C_10 
REMARK    6  A    between atoms: N_15  and  C_14 
REMARK    7  A    between atoms: N_20  and  C_19 
REMARK       I    between atoms: C_22  and  N_20 
ROOT
ATOM      1  C   LIG d   1       1.075  82.055 111.898  0.00  0.00     0.161 C 
ATOM      2  C   LIG d   1       2.186  82.700 111.329  0.00  0.00     0.016 C 
ATOM      3  C   LIG d   1       2.536  82.587 109.963  0.00  0.00     0.038 C 
ATOM      4  C   LIG d   1       1.706  81.938 109.036  0.00  0.00     0.028 C 
ATOM      5  C   LIG d   1       0.840  80.848 109.658  0.00  0.00    -0.047 C 
ATOM      6  C   LIG d   1       0.096  81.434 110.880  0.00  0.00     0.091 C 
ENDROOT
BRANCH   1   7
ATOM      7  O   LIG d   1       0.378  82.964 112.773  0.00  0.00    -0.368 OA
BRANCH   7   8
ATOM      8  C   LIG d   1       0.504  84.373 112.459  0.00  0.00     0.119 C 
BRANCH   8   9
ATOM      9  C   LIG d   1       0.907  85.102 113.756  0.00  0.00     0.028 C 
ATOM     10  C   LIG d   1       2.228  85.875 113.608  0.00  0.00     0.006 C 
ENDBRANCH   8   9
BRANCH   8  11
ATOM     11  C   LIG d   1      -0.845  84.977 112.057  0.00  0.00     0.028 C 
ATOM     12  C   LIG d   1      -0.699  86.238 111.190  0.00  0.00     0.006 C 
ENDBRANCH   8  11
ENDBRANCH   7   8
ENDBRANCH   1   7
BRANCH   6  13
ATOM     13  N   LIG d   1      -0.710  80.411 111.597  0.00  0.00    -0.311 N 
ATOM     14  C   LIG d   1      -1.905  80.661 112.130  0.00  0.00     0.210 C 
ATOM     15  C   LIG d   1      -2.556  79.472 112.842  0.00  0.00     0.109 C 
ATOM     16  O   LIG d   1      -2.501  81.746 112.052  0.00  0.00    -0.276 OA
ATOM     17  H   LIG d   1      -0.315  79.495 111.679  0.00  0.00     0.149 HD
ENDBRANCH   6  13
BRANCH   5  18
ATOM     18  N   LIG d   1      -0.071  80.352 108.610  0.00  0.00     0.381 N 
ATOM     19  H   LIG d   1       0.220  80.696 107.717  0.00  0.00    -0.090 HD
ATOM     20  H   LIG d   1      -0.997  80.696 108.794  0.00  0.00    -0.090 HD
ATOM     21  H   LIG d   1      -0.075  79.355 108.605  0.00  0.00    -0.090 HD
ENDBRANCH   5  18
BRANCH   3  22
ATOM     22  C   LIG d   1       3.749  83.092 109.521  0.00  0.00     0.382 C 
ATOM     23  O   LIG d   1       4.145  84.213 109.923  0.00  0.00    -0.241 OA
ATOM     24  O   LIG d   1       4.431  82.463 108.690  0.00  0.00    -0.241 OA
ENDBRANCH   3  22
TORSDOF 7
ENDMDL
MODEL 3
REMARK VINA RESULT:      -6.2      2.288      5.687
REMARK  7 active torsions:
REMARK  status: ('A' for Active; 'I' for Inactive)
REMARK    1  A    between atoms: C_2  and  C_3 
REMARK    2  A    between atoms: C_3  and  O_6 
REMARK    3  A    between atoms: C_3  and  C_4 
REMARK    4  A    between atoms: C_7  and  O_6 
REMARK    5  A    between atoms: C_9  and  C_10 
REMARK    6  A    between atoms: N_15  and  C_14 
REMARK    7  A    between atoms: N_20  and  C_19 
REMARK       I    between atoms: C_22  and  N_20 
ROOT
ATOM      1  C   LIG d   1       0.985  82.853 110.491  0.00  0.00     0.161 C 
ATOM      2  C   LIG d   1       1.592  84.105 110.295  0.00  0.00     0.016 C 
ATOM      3  C   LIG d   1       2.153  84.869 111.344  0.00  0.00     0.038 C 
ATOM      4  C   LIG d   1       2.281  84.362 112.645  0.00  0.00     0.028 C 
ATOM      5  C   LIG d   1       1.230  83.313 112.992  0.00  0.00    -0.047 C 
ATOM      6  C   LIG d   1       1.214  82.234 111.886  0.00  0.00     0.091 C 
ENDROOT
BRANCH   1   7
ATOM      7  O   LIG d   1       1.410  81.938 109.461  0.00  0.00    -0.368 OA
BRANCH   7   8
ATOM      8  C   LIG d   1       2.699  81.307 109.661  0.00  0.00     0.119 C 
BRANCH   8   9
ATOM      9  C   LIG d   1       3.610  81.737 108.494  0.00  0.00     0.028 C 
ATOM     10  C   LIG d   1       4.595  82.847 108.897  0.00  0.00     0.006 C 
ENDBRANCH   8   9
BRANCH   8  11
ATOM     11  C   LIG d   1       2.596  79.783 109.554  0.00  0.00     0.028 C 
ATOM     12  C   LIG d   1       1.206  79.310 109.100  0.00  0.00     0.006 C 
ENDBRANCH   8  11
ENDBRANCH   7   8
ENDBRANCH   1   7
BRANCH   6  13
ATOM     13  N   LIG d   1       0.156  81.213 112.104  0.00  0.00    -0.311 N 
ATOM     14  C   LIG d   1      -1.147  81.489 112.066  0.00  0.00     0.210 C 
ATOM     15  C   LIG d   1      -2.068  80.295 112.338  0.00  0.00     0.109 C 
ATOM     16  O   LIG d   1      -1.627  82.601 111.801  0.00  0.00    -0.276 OA
ATOM     17  H   LIG d   1       0.457  80.278 112.294  0.00  0.00     0.149 HD
ENDBRANCH   6  13
BRANCH   5  18
ATOM     18  N   LIG d   1       1.563  82.771 114.323  0.00  0.00     0.381 N 
ATOM     19  H   LIG d   1       0.829  82.983 114.969  0.00  0.00    -0.090 HD
ATOM     20  H   LIG d   1       2.406  83.210 114.651  0.00  0.00    -0.090 HD
ATOM     21  H   LIG d   1       1.693  81.785 114.267  0.00  0.00    -0.090 HD
ENDBRANCH   5  18
BRANCH   3  22
ATOM     22  C   LIG d   1       2.558  86.173 111.102  0.00  0.00     0.382 C 
ATOM     23  O   LIG d   1       3.728  86.529 111.384  0.00  0.00    -0.241 OA
ATOM     24  O   LIG d   1       1.755  87.010 110.648  0.00  0.00    -0.241 OA
ENDBRANCH   3  22
TORSDOF 7
ENDMDL
MODEL 4
REMARK VINA RESULT:      -5.7      3.280      5.499
REMARK  7 active torsions:
REMARK  status: ('A' for Active; 'I' for Inactive)
REMARK    1  A    between atoms: C_2  and  C_3 
REMARK    2  A    between atoms: C_3  and  O_6 
REMARK    3  A    between atoms: C_3  and  C_4 
REMARK    4  A    between atoms: C_7  and  O_6 
REMARK    5  A    between atoms: C_9  and  C_10 
REMARK    6  A    between atoms: N_15  and  C_14 
REMARK    7  A    between atoms: N_20  and  C_19 
REMARK       I    between atoms: C_22  and  N_20 
ROOT
ATOM      1  C   LIG d   1       1.097  83.126 112.235  0.00  0.00     0.161 C 
ATOM      2  C   LIG d   1       0.581  83.851 111.149  0.00  0.00     0.016 C 
ATOM      3  C   LIG d   1       0.269  85.228 111.210  0.00  0.00     0.038 C 
ATOM      4  C   LIG d   1       0.596  86.014 112.325  0.00  0.00     0.028 C 
ATOM      5  C   LIG d   1       0.654  85.222 113.627  0.00  0.00    -0.047 C 
ATOM      6  C   LIG d   1       1.565  83.990 113.425  0.00  0.00     0.091 C 
ENDROOT
BRANCH   1   7
ATOM      7  O   LIG d   1       2.166  82.269 111.787  0.00  0.00    -0.368 OA
BRANCH   7   8
ATOM      8  C   LIG d   1       2.268  82.073 110.355  0.00  0.00     0.119 C 
BRANCH   8   9
ATOM      9  C   LIG d   1       2.054  80.573 110.077  0.00  0.00     0.028 C 
ATOM     10  C   LIG d   1       0.615  80.258 109.636  0.00  0.00     0.006 C 
ENDBRANCH   8   9
BRANCH   8  11
ATOM     11  C   LIG d   1       3.681  82.381 109.850  0.00  0.00     0.028 C 
ATOM     12  C   LIG d   1       4.118  81.458 108.702  0.00  0.00     0.006 C 
ENDBRANCH   8  11
ENDBRANCH   7   8
ENDBRANCH   1   7
BRANCH   6  13
ATOM     13  N   LIG d   1       1.610  83.115 114.626  0.00  0.00    -0.311 N 
ATOM     14  C   LIG d   1       2.587  83.160 115.530  0.00  0.00     0.210 C 
ATOM     15  C   LIG d   1       2.451  82.158 116.680  0.00  0.00     0.109 C 
ATOM     16  O   LIG d   1       3.538  83.956 115.505  0.00  0.00    -0.276 OA
ATOM     17  H   LIG d   1       0.862  82.460 114.741  0.00  0.00     0.149 HD
ENDBRANCH   6  13
BRANCH   5  18
ATOM     18  N   LIG d   1       1.140  86.133 114.681  0.00  0.00     0.381 N 
ATOM     19  H   LIG d   1       0.577  86.960 114.700  0.00  0.00    -0.090 HD
ATOM     20  H   LIG d   1       2.085  86.400 114.470  0.00  0.00    -0.090 HD
ATOM     21  H   LIG d   1       1.106  85.679 115.567  0.00  0.00    -0.090 HD
ENDBRANCH   5  18
BRANCH   3  22
ATOM     22  C   LIG d   1      -0.415  85.826 110.162  0.00  0.00     0.382 C 
ATOM     23  O   LIG d   1      -1.447  86.500 110.390  0.00  0.00    -0.241 OA
ATOM     24  O   LIG d   1      -0.037  85.661 108.986  0.00  0.00    -0.241 OA
ENDBRANCH   3  22
TORSDOF 7
ENDMDL
MODEL 5
REMARK VINA RESULT:      -5.6      3.970      6.441
REMARK  7 active torsions:
REMARK  status: ('A' for Active; 'I' for Inactive)
REMARK    1  A    between atoms: C_2  and  C_3 
REMARK    2  A    between atoms: C_3  and  O_6 
REMARK    3  A    between atoms: C_3  and  C_4 
REMARK    4  A    between atoms: C_7  and  O_6 
REMARK    5  A    between atoms: C_9  and  C_10 
REMARK    6  A    between atoms: N_15  and  C_14 
REMARK    7  A    between atoms: N_20  and  C_19 
REMARK       I    between atoms: C_22  and  N_20 
ROOT
ATOM      1  C   LIG d   1       1.378  84.768 113.742  0.00  0.00     0.161 C 
ATOM      2  C   LIG d   1       1.850  85.921 113.094  0.00  0.00     0.016 C 
ATOM      3  C   LIG d   1       3.069  86.557 113.425  0.00  0.00     0.038 C 
ATOM      4  C   LIG d   1       3.977  85.991 114.333  0.00  0.00     0.028 C 
ATOM      5  C   LIG d   1       3.314  85.099 115.377  0.00  0.00    -0.047 C 
ATOM      6  C   LIG d   1       2.408  84.073 114.658  0.00  0.00     0.091 C 
ENDROOT
BRANCH   1   7
ATOM      7  O   LIG d   1       0.864  83.837 112.770  0.00  0.00    -0.368 OA
BRANCH   7   8
ATOM      8  C   LIG d   1       0.852  84.293 111.394  0.00  0.00     0.119 C 
BRANCH   8   9
ATOM      9  C   LIG d   1      -0.620  84.353 110.940  0.00  0.00     0.028 C 
ATOM     10  C   LIG d   1      -0.918  85.595 110.083  0.00  0.00     0.006 C 
ENDBRANCH   8   9
BRANCH   8  11
ATOM     11  C   LIG d   1       1.522  83.277 110.464  0.00  0.00     0.028 C 
ATOM     12  C   LIG d   1       2.885  83.757 109.941  0.00  0.00     0.006 C 
ENDBRANCH   8  11
ENDBRANCH   7   8
ENDBRANCH   1   7
BRANCH   6  13
ATOM     13  N   LIG d   1       1.656  83.215 115.610  0.00  0.00    -0.311 N 
ATOM     14  C   LIG d   1       2.121  82.059 116.079  0.00  0.00     0.210 C 
ATOM     15  C   LIG d   1       1.177  81.322 117.035  0.00  0.00     0.109 C 
ATOM     16  O   LIG d   1       3.238  81.588 115.819  0.00  0.00    -0.276 OA
ATOM     17  H   LIG d   1       0.753  83.537 115.898  0.00  0.00     0.149 HD
ENDBRANCH   6  13
BRANCH   5  18
ATOM     18  N   LIG d   1       4.386  84.467 116.169  0.00  0.00     0.381 N 
ATOM     19  H   LIG d   1       4.001  84.062 116.998  0.00  0.00    -0.090 HD
ATOM     20  H   LIG d   1       5.048  85.173 116.441  0.00  0.00    -0.090 HD
ATOM     21  H   LIG d   1       4.841  83.765 115.628  0.00  0.00    -0.090 HD
ENDBRANCH   5  18
BRANCH   3  22
ATOM     22  C   LIG d   1       3.371  87.793 112.876  0.00  0.00     0.382 C 
ATOM     23  O   LIG d   1       2.447  88.577 112.550  0.00  0.00    -0.241 OA
ATOM     24  O   LIG d   1       4.555  88.117 112.661  0.00  0.00    -0.241 OA
ENDBRANCH   3  22
TORSDOF 7
ENDMDL
MODEL 6
REMARK VINA RESULT:      -5.2      4.806      7.709
REMARK  7 active torsions:
REMARK  status: ('A' for Active; 'I' for Inactive)
REMARK    1  A    between atoms: C_2  and  C_3 
REMARK    2  A    between atoms: C_3  and  O_6 
REMARK    3  A    between atoms: C_3  and  C_4 
REMARK    4  A    between atoms: C_7  and  O_6 
REMARK    5  A    between atoms: C_9  and  C_10 
REMARK    6  A    between atoms: N_15  and  C_14 
REMARK    7  A    between atoms: N_20  and  C_19 
REMARK       I    between atoms: C_22  and  N_20 
ROOT
ATOM      1  C   LIG d   1       2.213  86.425 114.266  0.00  0.00     0.161 C 
ATOM      2  C   LIG d   1       2.789  87.658 113.918  0.00  0.00     0.016 C 
ATOM      3  C   LIG d   1       3.959  88.170 114.524  0.00  0.00     0.038 C 
ATOM      4  C   LIG d   1       4.724  87.408 115.420  0.00  0.00     0.028 C 
ATOM      5  C   LIG d   1       3.909  86.365 116.177  0.00  0.00    -0.047 C 
ATOM      6  C   LIG d   1       3.096  85.530 115.161  0.00  0.00     0.091 C 
ENDROOT
BRANCH   1   7
ATOM      7  O   LIG d   1       1.825  85.713 113.074  0.00  0.00    -0.368 OA
BRANCH   7   8
ATOM      8  C   LIG d   1       0.465  85.923 112.622  0.00  0.00     0.119 C 
BRANCH   8   9
ATOM      9  C   LIG d   1      -0.177  84.536 112.426  0.00  0.00     0.028 C 
ATOM     10  C   LIG d   1       0.867  83.408 112.377  0.00  0.00     0.006 C 
ENDBRANCH   8   9
BRANCH   8  11
ATOM     11  C   LIG d   1       0.433  86.584 111.240  0.00  0.00     0.028 C 
ATOM     12  C   LIG d   1      -0.919  86.412 110.529  0.00  0.00     0.006 C 
ENDBRANCH   8  11
ENDBRANCH   7   8
ENDBRANCH   1   7
BRANCH   6  13
ATOM     13  N   LIG d   1       2.206  84.541 115.824  0.00  0.00    -0.311 N 
ATOM     14  C   LIG d   1       2.590  83.306 116.141  0.00  0.00     0.210 C 
ATOM     15  C   LIG d   1       1.511  82.442 116.801  0.00  0.00     0.109 C 
ATOM     16  O   LIG d   1       3.732  82.854 115.968  0.00  0.00    -0.276 OA
ATOM     17  H   LIG d   1       1.271  84.834 116.030  0.00  0.00     0.149 HD
ENDBRANCH   6  13
BRANCH   5  18
ATOM     18  N   LIG d   1       4.851  85.553 116.970  0.00  0.00     0.381 N 
ATOM     19  H   LIG d   1       5.780  85.907 116.859  0.00  0.00    -0.090 HD
ATOM     20  H   LIG d   1       4.832  84.607 116.629  0.00  0.00    -0.090 HD
ATOM     21  H   LIG d   1       4.592  85.572 117.932  0.00  0.00    -0.090 HD
ENDBRANCH   5  18
BRANCH   3  22
ATOM     22  C   LIG d   1       4.353  89.474 114.265  0.00  0.00     0.382 C 
ATOM     23  O   LIG d   1       4.732  89.797 113.114  0.00  0.00    -0.241 OA
ATOM     24  O   LIG d   1       4.377  90.320 115.179  0.00  0.00    -0.241 OA
ENDBRANCH   3  22
TORSDOF 7
ENDMDL
MODEL 7
REMARK VINA RESULT:      -4.4      7.476      9.767
REMARK  7 active torsions:
REMARK  status: ('A' for Active; 'I' for Inactive)
REMARK    1  A    between atoms: C_2  and  C_3 
REMARK    2  A    between atoms: C_3  and  O_6 
REMARK    3  A    between atoms: C_3  and  C_4 
REMARK    4  A    between atoms: C_7  and  O_6 
REMARK    5  A    between atoms: C_9  and  C_10 
REMARK    6  A    between atoms: N_15  and  C_14 
REMARK    7  A    between atoms: N_20  and  C_19 
REMARK       I    between atoms: C_22  and  N_20 
ROOT
ATOM      1  C   LIG d   1      -3.352  75.775 116.016  0.00  0.00     0.161 C 
ATOM      2  C   LIG d   1      -4.332  74.790 115.802  0.00  0.00     0.016 C 
ATOM      3  C   LIG d   1      -5.715  75.014 115.991  0.00  0.00     0.038 C 
ATOM      4  C   LIG d   1      -6.228  76.291 116.264  0.00  0.00     0.028 C 
ATOM      5  C   LIG d   1      -5.239  77.201 116.983  0.00  0.00    -0.047 C 
ATOM      6  C   LIG d   1      -3.903  77.204 116.206  0.00  0.00     0.091 C 
ENDROOT
BRANCH   1   7
ATOM      7  O   LIG d   1      -2.389  75.747 114.944  0.00  0.00    -0.368 OA
BRANCH   7   8
ATOM      8  C   LIG d   1      -1.257  74.862 115.127  0.00  0.00     0.119 C 
BRANCH   8   9
ATOM      9  C   LIG d   1      -0.566  75.261 116.446  0.00  0.00     0.028 C 
ATOM     10  C   LIG d   1       0.438  76.412 116.257  0.00  0.00     0.006 C 
ENDBRANCH   8   9
BRANCH   8  11
ATOM     11  C   LIG d   1      -0.202  75.073 114.037  0.00  0.00     0.028 C 
ATOM     12  C   LIG d   1       0.314  73.752 113.444  0.00  0.00     0.006 C 
ENDBRANCH   8  11
ENDBRANCH   7   8
ENDBRANCH   1   7
BRANCH   6  13
ATOM     13  N   LIG d   1      -2.852  78.003 116.888  0.00  0.00    -0.311 N 
ATOM     14  C   LIG d   1      -2.205  79.012 116.306  0.00  0.00     0.210 C 
ATOM     15  C   LIG d   1      -1.145  79.690 117.180  0.00  0.00     0.109 C 
ATOM     16  O   LIG d   1      -2.431  79.430 115.161  0.00  0.00    -0.276 OA
ATOM     17  H   LIG d   1      -2.627  77.752 117.831  0.00  0.00     0.149 HD
ENDBRANCH   6  13
BRANCH   5  18
ATOM     18  N   LIG d   1      -5.853  78.539 117.081  0.00  0.00     0.381 N 
ATOM     19  H   LIG d   1      -6.837  78.449 117.238  0.00  0.00    -0.090 HD
ATOM     20  H   LIG d   1      -5.716  79.024 116.212  0.00  0.00    -0.090 HD
ATOM     21  H   LIG d   1      -5.437  79.052 117.826  0.00  0.00    -0.090 HD
ENDBRANCH   5  18
BRANCH   3  22
ATOM     22  C   LIG d   1      -6.596  73.945 115.947  0.00  0.00     0.382 C 
ATOM     23  O   LIG d   1      -6.322  72.934 115.257  0.00  0.00    -0.241 OA
ATOM     24  O   LIG d   1      -7.683  73.997 116.553  0.00  0.00    -0.241 OA
ENDBRANCH   3  22
TORSDOF 7
ENDMDL
MODEL 8
REMARK VINA RESULT:      -4.4      6.899      9.824
REMARK  7 active torsions:
REMARK  status: ('A' for Active; 'I' for Inactive)
REMARK    1  A    between atoms: C_2  and  C_3 
REMARK    2  A    between atoms: C_3  and  O_6 
REMARK    3  A    between atoms: C_3  and  C_4 
REMARK    4  A    between atoms: C_7  and  O_6 
REMARK    5  A    between atoms: C_9  and  C_10 
REMARK    6  A    between atoms: N_15  and  C_14 
REMARK    7  A    between atoms: N_20  and  C_19 
REMARK       I    between atoms: C_22  and  N_20 
ROOT
ATOM      1  C   LIG d   1      -3.970  75.328 116.572  0.00  0.00     0.161 C 
ATOM      2  C   LIG d   1      -4.780  74.214 116.849  0.00  0.00     0.016 C 
ATOM      3  C   LIG d   1      -5.727  73.694 115.937  0.00  0.00     0.038 C 
ATOM      4  C   LIG d   1      -5.823  74.165 114.619  0.00  0.00     0.028 C 
ATOM      5  C   LIG d   1      -5.380  75.616 114.460  0.00  0.00    -0.047 C 
ATOM      6  C   LIG d   1      -3.983  75.786 115.099  0.00  0.00     0.091 C 
ENDROOT
BRANCH   1   7
ATOM      7  O   LIG d   1      -2.620  75.071 117.006  0.00  0.00    -0.368 OA
BRANCH   7   8
ATOM      8  C   LIG d   1      -1.572  75.729 116.251  0.00  0.00     0.119 C 
BRANCH   8   9
ATOM      9  C   LIG d   1      -0.790  74.637 115.496  0.00  0.00     0.028 C 
ATOM     10  C   LIG d   1      -0.020  75.196 114.288  0.00  0.00     0.006 C 
ENDBRANCH   8   9
BRANCH   8  11
ATOM     11  C   LIG d   1      -0.550  76.391 117.179  0.00  0.00     0.028 C 
ATOM     12  C   LIG d   1      -0.427  77.905 116.946  0.00  0.00     0.006 C 
ENDBRANCH   8  11
ENDBRANCH   7   8
ENDBRANCH   1   7
BRANCH   6  13
ATOM     13  N   LIG d   1      -3.510  77.195 115.062  0.00  0.00    -0.311 N 
ATOM     14  C   LIG d   1      -2.870  77.727 114.022  0.00  0.00     0.210 C 
ATOM     15  C   LIG d   1      -2.453  79.190 114.199  0.00  0.00     0.109 C 
ATOM     16  O   LIG d   1      -2.637  77.135 112.957  0.00  0.00    -0.276 OA
ATOM     17  H   LIG d   1      -3.686  77.756 115.872  0.00  0.00     0.149 HD
ENDBRANCH   6  13
BRANCH   5  18
ATOM     18  N   LIG d   1      -5.400  75.933 113.020  0.00  0.00     0.381 N 
ATOM     19  H   LIG d   1      -6.064  76.661 112.843  0.00  0.00    -0.090 HD
ATOM     20  H   LIG d   1      -5.686  75.115 112.511  0.00  0.00    -0.090 HD
ATOM     21  H   LIG d   1      -4.494  76.220 112.721  0.00  0.00    -0.090 HD
ENDBRANCH   5  18
BRANCH   3  22
ATOM     22  C   LIG d   1      -6.619  72.718 116.354  0.00  0.00     0.382 C 
ATOM     23  O   LIG d   1      -6.198  71.699 116.953  0.00  0.00    -0.241 OA
ATOM     24  O   LIG d   1      -7.834  72.822 116.100  0.00  0.00    -0.241 OA
ENDBRANCH   3  22
TORSDOF 7
ENDMDL
MODEL 9
REMARK VINA RESULT:      -4.4     17.389     19.329
REMARK  7 active torsions:
REMARK  status: ('A' for Active; 'I' for Inactive)
REMARK    1  A    between atoms: C_2  and  C_3 
REMARK    2  A    between atoms: C_3  and  O_6 
REMARK    3  A    between atoms: C_3  and  C_4 
REMARK    4  A    between atoms: C_7  and  O_6 
REMARK    5  A    between atoms: C_9  and  C_10 
REMARK    6  A    between atoms: N_15  and  C_14 
REMARK    7  A    between atoms: N_20  and  C_19 
REMARK       I    between atoms: C_22  and  N_20 
ROOT
ATOM      1  C   LIG d   1      11.292  96.951 111.206  0.00  0.00     0.161 C 
ATOM      2  C   LIG d   1      10.664  98.171 110.905  0.00  0.00     0.016 C 
ATOM      3  C   LIG d   1      10.065  98.999 111.881  0.00  0.00     0.038 C 
ATOM      4  C   LIG d   1      10.187  98.735 113.254  0.00  0.00     0.028 C 
ATOM      5  C   LIG d   1      10.376  97.256 113.572  0.00  0.00    -0.047 C 
ATOM      6  C   LIG d   1      11.533  96.701 112.710  0.00  0.00     0.091 C 
ENDROOT
BRANCH   1   7
ATOM      7  O   LIG d   1      12.531  96.846 110.477  0.00  0.00    -0.368 OA
BRANCH   7   8
ATOM      8  C   LIG d   1      13.728  97.235 111.194  0.00  0.00     0.119 C 
BRANCH   8   9
ATOM      9  C   LIG d   1      14.290  98.494 110.507  0.00  0.00     0.028 C 
ATOM     10  C   LIG d   1      13.982  99.779 111.294  0.00  0.00     0.006 C 
ENDBRANCH   8   9
BRANCH   8  11
ATOM     11  C   LIG d   1      14.826  96.176 111.061  0.00  0.00     0.028 C 
ATOM     12  C   LIG d   1      15.159  95.844 109.597  0.00  0.00     0.006 C 
ENDBRANCH   8  11
ENDBRANCH   7   8
ENDBRANCH   1   7
BRANCH   6  13
ATOM     13  N   LIG d   1      11.729  95.240 112.897  0.00  0.00    -0.311 N 
ATOM     14  C   LIG d   1      12.592  94.722 113.770  0.00  0.00     0.210 C 
ATOM     15  C   LIG d   1      12.652  93.191 113.789  0.00  0.00     0.109 C 
ATOM     16  O   LIG d   1      13.290  95.384 114.552  0.00  0.00    -0.276 OA
ATOM     17  H   LIG d   1      11.180  94.629 112.325  0.00  0.00     0.149 HD
ENDBRANCH   6  13
BRANCH   5  18
ATOM     18  N   LIG d   1      10.627  97.140 115.021  0.00  0.00     0.381 N 
ATOM     19  H   LIG d   1       9.943  97.666 115.526  0.00  0.00    -0.090 HD
ATOM     20  H   LIG d   1      11.534  97.523 115.225  0.00  0.00    -0.090 HD
ATOM     21  H   LIG d   1      10.593  96.184 115.297  0.00  0.00    -0.090 HD
ENDBRANCH   5  18
BRANCH   3  22
ATOM     22  C   LIG d   1       9.300 100.086 111.485  0.00  0.00     0.382 C 
ATOM     23  O   LIG d   1       8.632 100.725 112.333  0.00  0.00    -0.241 OA
ATOM     24  O   LIG d   1       9.234 100.407 110.284  0.00  0.00    -0.241 OA
ENDBRANCH   3  22
TORSDOF 7
ENDMDL
