MODEL 1
REMARK VINA RESULT:      -6.7      0.000      0.000
REMARK  7 active torsions:
REMARK  status: ('A' for Active; 'I' for Inactive)
REMARK    1  A    between atoms: C_2  and  C_3 
REMARK    2  A    between atoms: C_3  and  O_6 
REMARK    3  A    between atoms: C_3  and  C_4 
REMARK    4  A    between atoms: C_7  and  O_6 
REMARK    5  A    between atoms: C_9  and  C_10 
REMARK    6  A    between atoms: N_15  and  C_14 
REMARK    7  A    between atoms: N_20  and  C_19 
REMARK       I    between atoms: C_22  and  N_20 
ROOT
ATOM      1  C   LIG d   1      -0.136  82.389 111.296  0.00  0.00     0.161 C 
ATOM      2  C   LIG d   1      -1.272  82.183 112.096  0.00  0.00     0.016 C 
ATOM      3  C   LIG d   1      -1.834  80.908 112.337  0.00  0.00     0.038 C 
ATOM      4  C   LIG d   1      -1.204  79.728 111.914  0.00  0.00     0.028 C 
ATOM      5  C   LIG d   1      -0.333  79.917 110.676  0.00  0.00    -0.047 C 
ATOM      6  C   LIG d   1       0.629  81.104 110.916  0.00  0.00     0.091 C 
ENDROOT
BRANCH   1   7
ATOM      7  O   LIG d   1       0.749  83.329 111.936  0.00  0.00    -0.368 OA
BRANCH   7   8
ATOM      8  C   LIG d   1       0.955  84.584 111.243  0.00  0.00     0.119 C 
BRANCH   8   9
ATOM      9  C   LIG d   1       2.352  85.105 111.634  0.00  0.00     0.028 C 
ATOM     10  C   LIG d   1       3.325  85.124 110.443  0.00  0.00     0.006 C 
ENDBRANCH   8   9
BRANCH   8  11
ATOM     11  C   LIG d   1      -0.027  85.655 111.727  0.00  0.00     0.028 C 
ATOM     12  C   LIG d   1      -1.265  85.779 110.824  0.00  0.00     0.006 C 
ENDBRANCH   8  11
ENDBRANCH   7   8
ENDBRANCH   1   7
BRANCH   6  13
ATOM     13  N   LIG d   1       1.459  81.411 109.723  0.00  0.00    -0.311 N 
ATOM     14  C   LIG d   1       2.785  81.530 109.763  0.00  0.00     0.210 C 
ATOM     15  C   LIG d   1       3.445  81.870 108.423  0.00  0.00     0.109 C 
ATOM     16  O   LIG d   1       3.481  81.356 110.775  0.00  0.00    -0.276 OA
ATOM     17  H   LIG d   1       0.979  81.537 108.853  0.00  0.00     0.149 HD
ENDBRANCH   6  13
BRANCH   5  18
ATOM     18  N   LIG d   1       0.370  78.645 110.427  0.00  0.00     0.381 N 
ATOM     19  H   LIG d   1       1.352  78.765 110.577  0.00  0.00    -0.090 HD
ATOM     20  H   LIG d   1       0.228  78.377 109.469  0.00  0.00    -0.090 HD
ATOM     21  H   LIG d   1       0.018  77.936 111.033  0.00  0.00    -0.090 HD
ENDBRANCH   5  18
BRANCH   3  22
ATOM     22  C   LIG d   1      -3.060  80.806 112.976  0.00  0.00     0.382 C 
ATOM     23  O   LIG d   1      -3.400  79.725 113.513  0.00  0.00    -0.241 OA
ATOM     24  O   LIG d   1      -3.850  81.770 112.983  0.00  0.00    -0.241 OA
ENDBRANCH   3  22
TORSDOF 7
ENDMDL
MODEL 2
REMARK VINA RESULT:      -6.7      0.604      1.770
REMARK  7 active torsions:
REMARK  status: ('A' for Active; 'I' for Inactive)
REMARK    1  A    between atoms: C_2  and  C_3 
REMARK    2  A    between atoms: C_3  and  O_6 
REMARK    3  A    between atoms: C_3  and  C_4 
REMARK    4  A    between atoms: C_7  and  O_6 
REMARK    5  A    between atoms: C_9  and  C_10 
REMARK    6  A    between atoms: N_15  and  C_14 
REMARK    7  A    between atoms: N_20  and  C_19 
REMARK       I    between atoms: C_22  and  N_20 
ROOT
ATOM      1  C   LIG d   1       0.027  82.570 111.184  0.00  0.00     0.161 C 
ATOM      2  C   LIG d   1      -1.081  82.324 112.012  0.00  0.00     0.016 C 
ATOM      3  C   LIG d   1      -1.577  81.028 112.284  0.00  0.00     0.038 C 
ATOM      4  C   LIG d   1      -0.902  79.873 111.864  0.00  0.00     0.028 C 
ATOM      5  C   LIG d   1      -0.066  80.083 110.606  0.00  0.00    -0.047 C 
ATOM      6  C   LIG d   1       0.843  81.316 110.807  0.00  0.00     0.091 C 
ENDROOT
BRANCH   1   7
ATOM      7  O   LIG d   1       0.880  83.560 111.792  0.00  0.00    -0.368 OA
BRANCH   7   8
ATOM      8  C   LIG d   1       0.876  84.870 111.174  0.00  0.00     0.119 C 
BRANCH   8   9
ATOM      9  C   LIG d   1      -0.085  84.812 109.971  0.00  0.00     0.028 C 
ATOM     10  C   LIG d   1      -1.359  85.644 110.198  0.00  0.00     0.006 C 
ENDBRANCH   8   9
BRANCH   8  11
ATOM     11  C   LIG d   1       2.247  85.211 110.581  0.00  0.00     0.028 C 
ATOM     12  C   LIG d   1       3.405  84.900 111.542  0.00  0.00     0.006 C 
ENDBRANCH   8  11
ENDBRANCH   7   8
ENDBRANCH   1   7
BRANCH   6  13
ATOM     13  N   LIG d   1       1.634  81.643 109.592  0.00  0.00    -0.311 N 
ATOM     14  C   LIG d   1       2.964  81.707 109.577  0.00  0.00     0.210 C 
ATOM     15  C   LIG d   1       3.579  82.079 108.224  0.00  0.00     0.109 C 
ATOM     16  O   LIG d   1       3.694  81.459 110.548  0.00  0.00    -0.276 OA
ATOM     17  H   LIG d   1       1.122  81.827 108.751  0.00  0.00     0.149 HD
ENDBRANCH   6  13
BRANCH   5  18
ATOM     18  N   LIG d   1       0.690  78.840 110.360  0.00  0.00     0.381 N 
ATOM     19  H   LIG d   1       1.559  79.055 109.913  0.00  0.00    -0.090 HD
ATOM     20  H   LIG d   1       0.156  78.251 109.745  0.00  0.00    -0.090 HD
ATOM     21  H   LIG d   1       0.859  78.368 111.221  0.00  0.00    -0.090 HD
ENDBRANCH   5  18
BRANCH   3  22
ATOM     22  C   LIG d   1      -2.784  80.880 112.950  0.00  0.00     0.382 C 
ATOM     23  O   LIG d   1      -2.927  79.961 113.792  0.00  0.00    -0.241 OA
ATOM     24  O   LIG d   1      -3.746  81.626 112.687  0.00  0.00    -0.241 OA
ENDBRANCH   3  22
TORSDOF 7
ENDMDL
MODEL 3
REMARK VINA RESULT:      -6.5      1.676      4.742
REMARK  7 active torsions:
REMARK  status: ('A' for Active; 'I' for Inactive)
REMARK    1  A    between atoms: C_2  and  C_3 
REMARK    2  A    between atoms: C_3  and  O_6 
REMARK    3  A    between atoms: C_3  and  C_4 
REMARK    4  A    between atoms: C_7  and  O_6 
REMARK    5  A    between atoms: C_9  and  C_10 
REMARK    6  A    between atoms: N_15  and  C_14 
REMARK    7  A    between atoms: N_20  and  C_19 
REMARK       I    between atoms: C_22  and  N_20 
ROOT
ATOM      1  C   LIG d   1       1.512  82.249 111.589  0.00  0.00     0.161 C 
ATOM      2  C   LIG d   1       2.296  82.611 110.481  0.00  0.00     0.016 C 
ATOM      3  C   LIG d   1       2.434  81.804 109.328  0.00  0.00     0.038 C 
ATOM      4  C   LIG d   1       1.671  80.642 109.141  0.00  0.00     0.028 C 
ATOM      5  C   LIG d   1       1.249  79.978 110.447  0.00  0.00    -0.047 C 
ATOM      6  C   LIG d   1       0.585  81.037 111.357  0.00  0.00     0.091 C 
ENDROOT
BRANCH   1   7
ATOM      7  O   LIG d   1       0.748  83.385 112.039  0.00  0.00    -0.368 OA
BRANCH   7   8
ATOM      8  C   LIG d   1       0.423  84.374 111.032  0.00  0.00     0.119 C 
BRANCH   8   9
ATOM      9  C   LIG d   1       0.693  85.763 111.643  0.00  0.00     0.028 C 
ATOM     10  C   LIG d   1       2.053  86.339 111.214  0.00  0.00     0.006 C 
ENDBRANCH   8   9
BRANCH   8  11
ATOM     11  C   LIG d   1      -1.072  84.361 110.700  0.00  0.00     0.028 C 
ATOM     12  C   LIG d   1      -1.478  85.487 109.735  0.00  0.00     0.006 C 
ENDBRANCH   8  11
ENDBRANCH   7   8
ENDBRANCH   1   7
BRANCH   6  13
ATOM     13  N   LIG d   1       0.218  80.490 112.689  0.00  0.00    -0.311 N 
ATOM     14  C   LIG d   1      -0.996  80.029 112.983  0.00  0.00     0.210 C 
ATOM     15  C   LIG d   1      -1.167  79.528 114.421  0.00  0.00     0.109 C 
ATOM     16  O   LIG d   1      -1.938  79.956 112.180  0.00  0.00    -0.276 OA
ATOM     17  H   LIG d   1       0.932  80.482 113.391  0.00  0.00     0.149 HD
ENDBRANCH   6  13
BRANCH   5  18
ATOM     18  N   LIG d   1       0.348  78.860 110.108  0.00  0.00     0.381 N 
ATOM     19  H   LIG d   1       0.127  78.887 109.133  0.00  0.00    -0.090 HD
ATOM     20  H   LIG d   1      -0.506  78.963 110.628  0.00  0.00    -0.090 HD
ATOM     21  H   LIG d   1       0.781  77.992 110.335  0.00  0.00    -0.090 HD
ENDBRANCH   5  18
BRANCH   3  22
ATOM     22  C   LIG d   1       3.373  82.138 108.364  0.00  0.00     0.382 C 
ATOM     23  O   LIG d   1       4.535  81.670 108.432  0.00  0.00    -0.241 OA
ATOM     24  O   LIG d   1       3.085  82.936 107.451  0.00  0.00    -0.241 OA
ENDBRANCH   3  22
TORSDOF 7
ENDMDL
MODEL 4
REMARK VINA RESULT:      -6.3      2.641      3.908
REMARK  7 active torsions:
REMARK  status: ('A' for Active; 'I' for Inactive)
REMARK    1  A    between atoms: C_2  and  C_3 
REMARK    2  A    between atoms: C_3  and  O_6 
REMARK    3  A    between atoms: C_3  and  C_4 
REMARK    4  A    between atoms: C_7  and  O_6 
REMARK    5  A    between atoms: C_9  and  C_10 
REMARK    6  A    between atoms: N_15  and  C_14 
REMARK    7  A    between atoms: N_20  and  C_19 
REMARK       I    between atoms: C_22  and  N_20 
ROOT
ATOM      1  C   LIG d   1       0.920  83.526 109.052  0.00  0.00     0.161 C 
ATOM      2  C   LIG d   1       0.351  84.601 109.754  0.00  0.00     0.016 C 
ATOM      3  C   LIG d   1      -0.489  84.438 110.880  0.00  0.00     0.038 C 
ATOM      4  C   LIG d   1      -0.695  83.185 111.476  0.00  0.00     0.028 C 
ATOM      5  C   LIG d   1      -0.549  82.020 110.502  0.00  0.00    -0.047 C 
ATOM      6  C   LIG d   1       0.796  82.158 109.754  0.00  0.00     0.091 C 
ENDROOT
BRANCH   1   7
ATOM      7  O   LIG d   1       2.301  83.813 108.754  0.00  0.00    -0.368 OA
BRANCH   7   8
ATOM      8  C   LIG d   1       3.242  83.613 109.838  0.00  0.00     0.119 C 
BRANCH   8   9
ATOM      9  C   LIG d   1       3.546  84.995 110.448  0.00  0.00     0.028 C 
ATOM     10  C   LIG d   1       3.419  85.001 111.980  0.00  0.00     0.006 C 
ENDBRANCH   8   9
BRANCH   8  11
ATOM     11  C   LIG d   1       4.586  83.093 109.320  0.00  0.00     0.028 C 
ATOM     12  C   LIG d   1       4.431  81.951 108.303  0.00  0.00     0.006 C 
ENDBRANCH   8  11
ENDBRANCH   7   8
ENDBRANCH   1   7
BRANCH   6  13
ATOM     13  N   LIG d   1       0.981  81.104 108.721  0.00  0.00    -0.311 N 
ATOM     14  C   LIG d   1       1.605  79.951 108.954  0.00  0.00     0.210 C 
ATOM     15  C   LIG d   1       1.703  79.014 107.746  0.00  0.00     0.109 C 
ATOM     16  O   LIG d   1       2.058  79.602 110.054  0.00  0.00    -0.276 OA
ATOM     17  H   LIG d   1       0.616  81.292 107.808  0.00  0.00     0.149 HD
ENDBRANCH   6  13
BRANCH   5  18
ATOM     18  N   LIG d   1      -0.653  80.772 111.282  0.00  0.00     0.381 N 
ATOM     19  H   LIG d   1       0.235  80.312 111.303  0.00  0.00    -0.090 HD
ATOM     20  H   LIG d   1      -1.313  80.163 110.833  0.00  0.00    -0.090 HD
ATOM     21  H   LIG d   1      -0.953  80.974 112.210  0.00  0.00    -0.090 HD
ENDBRANCH   5  18
BRANCH   3  22
ATOM     22  C   LIG d   1      -1.164  85.533 111.398  0.00  0.00     0.382 C 
ATOM     23  O   LIG d   1      -2.082  86.074 110.735  0.00  0.00    -0.241 OA
ATOM     24  O   LIG d   1      -0.838  86.014 112.499  0.00  0.00    -0.241 OA
ENDBRANCH   3  22
TORSDOF 7
ENDMDL
MODEL 5
REMARK VINA RESULT:      -5.9      1.813      2.020
REMARK  7 active torsions:
REMARK  status: ('A' for Active; 'I' for Inactive)
REMARK    1  A    between atoms: C_2  and  C_3 
REMARK    2  A    between atoms: C_3  and  O_6 
REMARK    3  A    between atoms: C_3  and  C_4 
REMARK    4  A    between atoms: C_7  and  O_6 
REMARK    5  A    between atoms: C_9  and  C_10 
REMARK    6  A    between atoms: N_15  and  C_14 
REMARK    7  A    between atoms: N_20  and  C_19 
REMARK       I    between atoms: C_22  and  N_20 
ROOT
ATOM      1  C   LIG d   1       0.108  82.720 110.927  0.00  0.00     0.161 C 
ATOM      2  C   LIG d   1      -0.237  81.904 112.017  0.00  0.00     0.016 C 
ATOM      3  C   LIG d   1      -0.331  80.496 111.937  0.00  0.00     0.038 C 
ATOM      4  C   LIG d   1       0.062  79.791 110.789  0.00  0.00     0.028 C 
ATOM      5  C   LIG d   1      -0.066  80.603 109.505  0.00  0.00    -0.047 C 
ATOM      6  C   LIG d   1       0.649  81.961 109.697  0.00  0.00     0.091 C 
ENDROOT
BRANCH   1   7
ATOM      7  O   LIG d   1       1.050  83.727 111.348  0.00  0.00    -0.368 OA
BRANCH   7   8
ATOM      8  C   LIG d   1       0.801  85.071 110.870  0.00  0.00     0.119 C 
BRANCH   8   9
ATOM      9  C   LIG d   1       2.038  85.923 111.219  0.00  0.00     0.028 C 
ATOM     10  C   LIG d   1       3.337  85.331 110.648  0.00  0.00     0.006 C 
ENDBRANCH   8   9
BRANCH   8  11
ATOM     11  C   LIG d   1      -0.365  85.723 111.619  0.00  0.00     0.028 C 
ATOM     12  C   LIG d   1      -1.603  85.929 110.732  0.00  0.00     0.006 C 
ENDBRANCH   8  11
ENDBRANCH   7   8
ENDBRANCH   1   7
BRANCH   6  13
ATOM     13  N   LIG d   1       0.500  82.852 108.517  0.00  0.00    -0.311 N 
ATOM     14  C   LIG d   1       1.529  83.292 107.796  0.00  0.00     0.210 C 
ATOM     15  C   LIG d   1       1.156  84.216 106.633  0.00  0.00     0.109 C 
ATOM     16  O   LIG d   1       2.714  82.978 107.989  0.00  0.00    -0.276 OA
ATOM     17  H   LIG d   1      -0.430  83.130 108.271  0.00  0.00     0.149 HD
ENDBRANCH   6  13
BRANCH   5  18
ATOM     18  N   LIG d   1       0.507  79.799 108.410  0.00  0.00     0.381 N 
ATOM     19  H   LIG d   1       0.052  80.027 107.548  0.00  0.00    -0.090 HD
ATOM     20  H   LIG d   1       0.346  78.826 108.603  0.00  0.00    -0.090 HD
ATOM     21  H   LIG d   1       1.485  79.972 108.333  0.00  0.00    -0.090 HD
ENDBRANCH   5  18
BRANCH   3  22
ATOM     22  C   LIG d   1      -0.863  79.781 112.999  0.00  0.00     0.382 C 
ATOM     23  O   LIG d   1      -1.625  78.808 112.782  0.00  0.00    -0.241 OA
ATOM     24  O   LIG d   1      -0.625  80.123 114.173  0.00  0.00    -0.241 OA
ENDBRANCH   3  22
TORSDOF 7
ENDMDL
MODEL 6
REMARK VINA RESULT:      -5.8      2.159      5.173
REMARK  7 active torsions:
REMARK  status: ('A' for Active; 'I' for Inactive)
REMARK    1  A    between atoms: C_2  and  C_3 
REMARK    2  A    between atoms: C_3  and  O_6 
REMARK    3  A    between atoms: C_3  and  C_4 
REMARK    4  A    between atoms: C_7  and  O_6 
REMARK    5  A    between atoms: C_9  and  C_10 
REMARK    6  A    between atoms: N_15  and  C_14 
REMARK    7  A    between atoms: N_20  and  C_19 
REMARK       I    between atoms: C_22  and  N_20 
ROOT
ATOM      1  C   LIG d   1       1.804  82.776 111.713  0.00  0.00     0.161 C 
ATOM      2  C   LIG d   1       2.076  84.138 111.921  0.00  0.00     0.016 C 
ATOM      3  C   LIG d   1       2.444  85.025 110.883  0.00  0.00     0.038 C 
ATOM      4  C   LIG d   1       2.417  84.641 109.534  0.00  0.00     0.028 C 
ATOM      5  C   LIG d   1       2.638  83.146 109.326  0.00  0.00    -0.047 C 
ATOM      6  C   LIG d   1       1.661  82.363 110.233  0.00  0.00     0.091 C 
ENDROOT
BRANCH   1   7
ATOM      7  O   LIG d   1       0.629  82.394 112.455  0.00  0.00    -0.368 OA
BRANCH   7   8
ATOM      8  C   LIG d   1      -0.621  82.413 111.724  0.00  0.00     0.119 C 
BRANCH   8   9
ATOM      9  C   LIG d   1      -1.237  83.815 111.897  0.00  0.00     0.028 C 
ATOM     10  C   LIG d   1      -1.236  84.622 110.588  0.00  0.00     0.006 C 
ENDBRANCH   8   9
BRANCH   8  11
ATOM     11  C   LIG d   1      -1.639  81.445 112.334  0.00  0.00     0.028 C 
ATOM     12  C   LIG d   1      -0.985  80.181 112.914  0.00  0.00     0.006 C 
ENDBRANCH   8  11
ENDBRANCH   7   8
ENDBRANCH   1   7
BRANCH   6  13
ATOM     13  N   LIG d   1       1.868  80.894 110.153  0.00  0.00    -0.311 N 
ATOM     14  C   LIG d   1       0.997  80.060 109.587  0.00  0.00     0.210 C 
ATOM     15  C   LIG d   1       1.395  78.581 109.631  0.00  0.00     0.109 C 
ATOM     16  O   LIG d   1      -0.052  80.408 109.025  0.00  0.00    -0.276 OA
ATOM     17  H   LIG d   1       2.708  80.529 110.557  0.00  0.00     0.149 HD
ENDBRANCH   6  13
BRANCH   5  18
ATOM     18  N   LIG d   1       2.447  82.863 107.891  0.00  0.00     0.381 N 
ATOM     19  H   LIG d   1       2.053  83.663 107.437  0.00  0.00    -0.090 HD
ATOM     20  H   LIG d   1       1.805  82.097 107.793  0.00  0.00    -0.090 HD
ATOM     21  H   LIG d   1       3.320  82.630 107.470  0.00  0.00    -0.090 HD
ENDBRANCH   5  18
BRANCH   3  22
ATOM     22  C   LIG d   1       2.883  86.303 111.194  0.00  0.00     0.382 C 
ATOM     23  O   LIG d   1       4.110  86.531 111.324  0.00  0.00    -0.241 OA
ATOM     24  O   LIG d   1       2.065  87.222 111.392  0.00  0.00    -0.241 OA
ENDBRANCH   3  22
TORSDOF 7
ENDMDL
MODEL 7
REMARK VINA RESULT:      -5.3      1.526      2.041
REMARK  7 active torsions:
REMARK  status: ('A' for Active; 'I' for Inactive)
REMARK    1  A    between atoms: C_2  and  C_3 
REMARK    2  A    between atoms: C_3  and  O_6 
REMARK    3  A    between atoms: C_3  and  C_4 
REMARK    4  A    between atoms: C_7  and  O_6 
REMARK    5  A    between atoms: C_9  and  C_10 
REMARK    6  A    between atoms: N_15  and  C_14 
REMARK    7  A    between atoms: N_20  and  C_19 
REMARK       I    between atoms: C_22  and  N_20 
ROOT
ATOM      1  C   LIG d   1       1.224  82.298 111.627  0.00  0.00     0.161 C 
ATOM      2  C   LIG d   1      -0.076  82.222 112.154  0.00  0.00     0.016 C 
ATOM      3  C   LIG d   1      -0.920  81.100 111.984  0.00  0.00     0.038 C 
ATOM      4  C   LIG d   1      -0.462  79.910 111.400  0.00  0.00     0.028 C 
ATOM      5  C   LIG d   1       0.676  80.121 110.407  0.00  0.00    -0.047 C 
ATOM      6  C   LIG d   1       1.781  80.966 111.082  0.00  0.00     0.091 C 
ENDROOT
BRANCH   1   7
ATOM      7  O   LIG d   1       2.120  82.849 112.613  0.00  0.00    -0.368 OA
BRANCH   7   8
ATOM      8  C   LIG d   1       2.859  84.029 112.213  0.00  0.00     0.119 C 
BRANCH   8   9
ATOM      9  C   LIG d   1       3.414  84.683 113.494  0.00  0.00     0.028 C 
ATOM     10  C   LIG d   1       3.822  83.645 114.553  0.00  0.00     0.006 C 
ENDBRANCH   8   9
BRANCH   8  11
ATOM     11  C   LIG d   1       1.936  85.080 111.589  0.00  0.00     0.028 C 
ATOM     12  C   LIG d   1       2.299  85.401 110.131  0.00  0.00     0.006 C 
ENDBRANCH   8  11
ENDBRANCH   7   8
ENDBRANCH   1   7
BRANCH   6  13
ATOM     13  N   LIG d   1       2.894  81.289 110.153  0.00  0.00    -0.311 N 
ATOM     14  C   LIG d   1       2.720  81.915 108.990  0.00  0.00     0.210 C 
ATOM     15  C   LIG d   1       3.999  82.133 108.175  0.00  0.00     0.109 C 
ATOM     16  O   LIG d   1       1.632  82.338 108.570  0.00  0.00    -0.276 OA
ATOM     17  H   LIG d   1       3.815  81.010 110.429  0.00  0.00     0.149 HD
ENDBRANCH   6  13
BRANCH   5  18
ATOM     18  N   LIG d   1       1.147  78.790 109.979  0.00  0.00     0.381 N 
ATOM     19  H   LIG d   1       0.400  78.128 110.049  0.00  0.00    -0.090 HD
ATOM     20  H   LIG d   1       1.887  78.494 110.591  0.00  0.00    -0.090 HD
ATOM     21  H   LIG d   1       1.478  78.830 109.041  0.00  0.00    -0.090 HD
ENDBRANCH   5  18
BRANCH   3  22
ATOM     22  C   LIG d   1      -2.250  81.178 112.366  0.00  0.00     0.382 C 
ATOM     23  O   LIG d   1      -2.831  82.290 112.393  0.00  0.00    -0.241 OA
ATOM     24  O   LIG d   1      -2.865  80.156 112.725  0.00  0.00    -0.241 OA
ENDBRANCH   3  22
TORSDOF 7
ENDMDL
MODEL 8
REMARK VINA RESULT:      -4.9      2.549      5.511
REMARK  7 active torsions:
REMARK  status: ('A' for Active; 'I' for Inactive)
REMARK    1  A    between atoms: C_2  and  C_3 
REMARK    2  A    between atoms: C_3  and  O_6 
REMARK    3  A    between atoms: C_3  and  C_4 
REMARK    4  A    between atoms: C_7  and  O_6 
REMARK    5  A    between atoms: C_9  and  C_10 
REMARK    6  A    between atoms: N_15  and  C_14 
REMARK    7  A    between atoms: N_20  and  C_19 
REMARK       I    between atoms: C_22  and  N_20 
ROOT
ATOM      1  C   LIG d   1       1.724  82.777 111.605  0.00  0.00     0.161 C 
ATOM      2  C   LIG d   1       1.957  84.137 111.866  0.00  0.00     0.016 C 
ATOM      3  C   LIG d   1       2.250  85.084 110.858  0.00  0.00     0.038 C 
ATOM      4  C   LIG d   1       2.180  84.761 109.495  0.00  0.00     0.028 C 
ATOM      5  C   LIG d   1       2.444  83.287 109.207  0.00  0.00    -0.047 C 
ATOM      6  C   LIG d   1       1.534  82.428 110.114  0.00  0.00     0.091 C 
ENDROOT
BRANCH   1   7
ATOM      7  O   LIG d   1       0.595  82.318 112.375  0.00  0.00    -0.368 OA
BRANCH   7   8
ATOM      8  C   LIG d   1       0.815  81.140 113.190  0.00  0.00     0.119 C 
BRANCH   8   9
ATOM      9  C   LIG d   1      -0.563  80.523 113.493  0.00  0.00     0.028 C 
ATOM     10  C   LIG d   1      -1.179  79.829 112.266  0.00  0.00     0.006 C 
ENDBRANCH   8   9
BRANCH   8  11
ATOM     11  C   LIG d   1       1.404  81.509 114.555  0.00  0.00     0.028 C 
ATOM     12  C   LIG d   1       2.920  81.754 114.503  0.00  0.00     0.006 C 
ENDBRANCH   8  11
ENDBRANCH   7   8
ENDBRANCH   1   7
BRANCH   6  13
ATOM     13  N   LIG d   1       1.788  80.972 109.957  0.00  0.00    -0.311 N 
ATOM     14  C   LIG d   1       0.914  80.130 109.409  0.00  0.00     0.210 C 
ATOM     15  C   LIG d   1       1.367  78.667 109.362  0.00  0.00     0.109 C 
ATOM     16  O   LIG d   1      -0.181  80.460 108.929  0.00  0.00    -0.276 OA
ATOM     17  H   LIG d   1       2.665  80.624 110.292  0.00  0.00     0.149 HD
ENDBRANCH   6  13
BRANCH   5  18
ATOM     18  N   LIG d   1       2.204  83.063 107.769  0.00  0.00     0.381 N 
ATOM     19  H   LIG d   1       1.903  83.915 107.339  0.00  0.00    -0.090 HD
ATOM     20  H   LIG d   1       1.473  82.382 107.664  0.00  0.00    -0.090 HD
ATOM     21  H   LIG d   1       3.037  82.738 107.331  0.00  0.00    -0.090 HD
ENDBRANCH   5  18
BRANCH   3  22
ATOM     22  C   LIG d   1       2.657  86.362 111.212  0.00  0.00     0.382 C 
ATOM     23  O   LIG d   1       1.806  87.272 111.358  0.00  0.00    -0.241 OA
ATOM     24  O   LIG d   1       3.867  86.626 111.344  0.00  0.00    -0.241 OA
ENDBRANCH   3  22
TORSDOF 7
ENDMDL
MODEL 9
REMARK VINA RESULT:      -4.8      2.437      5.561
REMARK  7 active torsions:
REMARK  status: ('A' for Active; 'I' for Inactive)
REMARK    1  A    between atoms: C_2  and  C_3 
REMARK    2  A    between atoms: C_3  and  O_6 
REMARK    3  A    between atoms: C_3  and  C_4 
REMARK    4  A    between atoms: C_7  and  O_6 
REMARK    5  A    between atoms: C_9  and  C_10 
REMARK    6  A    between atoms: N_15  and  C_14 
REMARK    7  A    between atoms: N_20  and  C_19 
REMARK       I    between atoms: C_22  and  N_20 
ROOT
ATOM      1  C   LIG d   1       0.352  82.382 111.132  0.00  0.00     0.161 C 
ATOM      2  C   LIG d   1       0.767  81.172 110.552  0.00  0.00     0.016 C 
ATOM      3  C   LIG d   1       2.058  80.969 110.014  0.00  0.00     0.038 C 
ATOM      4  C   LIG d   1       3.079  81.921 110.156  0.00  0.00     0.028 C 
ATOM      5  C   LIG d   1       2.561  83.349 110.285  0.00  0.00    -0.047 C 
ATOM      6  C   LIG d   1       1.486  83.395 111.396  0.00  0.00     0.091 C 
ENDROOT
BRANCH   1   7
ATOM      7  O   LIG d   1      -0.376  82.118 112.347  0.00  0.00    -0.368 OA
BRANCH   7   8
ATOM      8  C   LIG d   1      -0.613  80.723 112.657  0.00  0.00     0.119 C 
BRANCH   8   9
ATOM      9  C   LIG d   1      -2.092  80.424 112.346  0.00  0.00     0.028 C 
ATOM     10  C   LIG d   1      -3.041  81.480 112.935  0.00  0.00     0.006 C 
ENDBRANCH   8   9
BRANCH   8  11
ATOM     11  C   LIG d   1      -0.451  80.450 114.156  0.00  0.00     0.028 C 
ATOM     12  C   LIG d   1      -0.893  79.033 114.555  0.00  0.00     0.006 C 
ENDBRANCH   8  11
ENDBRANCH   7   8
ENDBRANCH   1   7
BRANCH   6  13
ATOM     13  N   LIG d   1       0.867  84.739 111.530  0.00  0.00    -0.311 N 
ATOM     14  C   LIG d   1       1.381  85.711 112.281  0.00  0.00     0.210 C 
ATOM     15  C   LIG d   1       0.573  87.013 112.296  0.00  0.00     0.109 C 
ATOM     16  O   LIG d   1       2.447  85.630 112.911  0.00  0.00    -0.276 OA
ATOM     17  H   LIG d   1       0.016  84.902 111.028  0.00  0.00     0.149 HD
ENDBRANCH   6  13
BRANCH   5  18
ATOM     18  N   LIG d   1       3.719  84.220 110.565  0.00  0.00     0.381 N 
ATOM     19  H   LIG d   1       3.870  84.840 109.795  0.00  0.00    -0.090 HD
ATOM     20  H   LIG d   1       4.537  83.647 110.674  0.00  0.00    -0.090 HD
ATOM     21  H   LIG d   1       3.558  84.744 111.396  0.00  0.00    -0.090 HD
ENDBRANCH   5  18
BRANCH   3  22
ATOM     22  C   LIG d   1       2.328  79.818 109.289  0.00  0.00     0.382 C 
ATOM     23  O   LIG d   1       1.420  79.275 108.615  0.00  0.00    -0.241 OA
ATOM     24  O   LIG d   1       3.455  79.291 109.337  0.00  0.00    -0.241 OA
ENDBRANCH   3  22
TORSDOF 7
ENDMDL
