MODEL 1
REMARK VINA RESULT:      -6.1      0.000      0.000
REMARK  7 active torsions:
REMARK  status: ('A' for Active; 'I' for Inactive)
REMARK    1  A    between atoms: C_2  and  C_3 
REMARK    2  A    between atoms: C_3  and  O_6 
REMARK    3  A    between atoms: C_3  and  C_4 
REMARK    4  A    between atoms: C_7  and  O_6 
REMARK    5  A    between atoms: C_9  and  C_10 
REMARK    6  A    between atoms: N_15  and  C_14 
REMARK    7  A    between atoms: N_20  and  C_19 
REMARK       I    between atoms: C_22  and  N_20 
ROOT
ATOM      1  C   LIG d   1       0.252  82.858 112.238  0.00  0.00     0.161 C 
ATOM      2  C   LIG d   1      -0.961  82.471 112.832  0.00  0.00     0.016 C 
ATOM      3  C   LIG d   1      -1.553  81.202 112.636  0.00  0.00     0.038 C 
ATOM      4  C   LIG d   1      -0.892  80.174 111.948  0.00  0.00     0.028 C 
ATOM      5  C   LIG d   1       0.102  80.681 110.909  0.00  0.00    -0.047 C 
ATOM      6  C   LIG d   1       1.043  81.711 111.575  0.00  0.00     0.091 C 
ENDROOT
BRANCH   1   7
ATOM      7  O   LIG d   1       1.075  83.539 113.206  0.00  0.00    -0.368 OA
BRANCH   7   8
ATOM      8  C   LIG d   1       1.285  84.955 112.980  0.00  0.00     0.119 C 
BRANCH   8   9
ATOM      9  C   LIG d   1       2.785  85.159 112.691  0.00  0.00     0.028 C 
ATOM     10  C   LIG d   1       3.037  85.765 111.300  0.00  0.00     0.006 C 
ENDBRANCH   8   9
BRANCH   8  11
ATOM     11  C   LIG d   1       1.002  85.769 114.246  0.00  0.00     0.028 C 
ATOM     12  C   LIG d   1      -0.377  85.466 114.853  0.00  0.00     0.006 C 
ENDBRANCH   8  11
ENDBRANCH   7   8
ENDBRANCH   1   7
BRANCH   6  13
ATOM     13  N   LIG d   1       1.993  82.319 110.608  0.00  0.00    -0.311 N 
ATOM     14  C   LIG d   1       3.250  81.906 110.456  0.00  0.00     0.210 C 
ATOM     15  C   LIG d   1       4.066  82.683 109.418  0.00  0.00     0.109 C 
ATOM     16  O   LIG d   1       3.757  80.948 111.059  0.00  0.00    -0.276 OA
ATOM     17  H   LIG d   1       1.655  83.083 110.055  0.00  0.00     0.149 HD
ENDBRANCH   6  13
BRANCH   5  18
ATOM     18  N   LIG d   1       0.817  79.510 110.368  0.00  0.00     0.381 N 
ATOM     19  H   LIG d   1       1.787  79.563 110.610  0.00  0.00    -0.090 HD
ATOM     20  H   LIG d   1       0.742  79.517 109.366  0.00  0.00    -0.090 HD
ATOM     21  H   LIG d   1       0.423  78.671 110.732  0.00  0.00    -0.090 HD
ENDBRANCH   5  18
BRANCH   3  22
ATOM     22  C   LIG d   1      -2.839  80.966 113.096  0.00  0.00     0.382 C 
ATOM     23  O   LIG d   1      -3.827  81.358 112.429  0.00  0.00    -0.241 OA
ATOM     24  O   LIG d   1      -3.024  80.405 114.193  0.00  0.00    -0.241 OA
ENDBRANCH   3  22
TORSDOF 7
ENDMDL
MODEL 2
REMARK VINA RESULT:      -6.1      3.062      4.870
REMARK  7 active torsions:
REMARK  status: ('A' for Active; 'I' for Inactive)
REMARK    1  A    between atoms: C_2  and  C_3 
REMARK    2  A    between atoms: C_3  and  O_6 
REMARK    3  A    between atoms: C_3  and  C_4 
REMARK    4  A    between atoms: C_7  and  O_6 
REMARK    5  A    between atoms: C_9  and  C_10 
REMARK    6  A    between atoms: N_15  and  C_14 
REMARK    7  A    between atoms: N_20  and  C_19 
REMARK       I    between atoms: C_22  and  N_20 
ROOT
ATOM      1  C   LIG d   1       1.645  84.750 112.626  0.00  0.00     0.161 C 
ATOM      2  C   LIG d   1       0.674  83.736 112.674  0.00  0.00     0.016 C 
ATOM      3  C   LIG d   1      -0.438  83.764 113.547  0.00  0.00     0.038 C 
ATOM      4  C   LIG d   1      -0.738  84.889 114.329  0.00  0.00     0.028 C 
ATOM      5  C   LIG d   1       0.487  85.724 114.685  0.00  0.00    -0.047 C 
ATOM      6  C   LIG d   1       1.274  86.037 113.392  0.00  0.00     0.091 C 
ENDROOT
BRANCH   1   7
ATOM      7  O   LIG d   1       1.962  85.058 111.254  0.00  0.00    -0.368 OA
BRANCH   7   8
ATOM      8  C   LIG d   1       1.197  84.348 110.248  0.00  0.00     0.119 C 
BRANCH   8   9
ATOM      9  C   LIG d   1       2.200  83.656 109.306  0.00  0.00     0.028 C 
ATOM     10  C   LIG d   1       3.642  83.717 109.837  0.00  0.00     0.006 C 
ENDBRANCH   8   9
BRANCH   8  11
ATOM     11  C   LIG d   1       0.409  85.317 109.361  0.00  0.00     0.028 C 
ATOM     12  C   LIG d   1      -0.901  85.789 110.012  0.00  0.00     0.006 C 
ENDBRANCH   8  11
ENDBRANCH   7   8
ENDBRANCH   1   7
BRANCH   6  13
ATOM     13  N   LIG d   1       2.533  86.780 113.660  0.00  0.00    -0.311 N 
ATOM     14  C   LIG d   1       2.844  87.933 113.070  0.00  0.00     0.210 C 
ATOM     15  C   LIG d   1       4.200  88.521 113.474  0.00  0.00     0.109 C 
ATOM     16  O   LIG d   1       2.112  88.541 112.275  0.00  0.00    -0.276 OA
ATOM     17  H   LIG d   1       3.171  86.374 114.316  0.00  0.00     0.149 HD
ENDBRANCH   6  13
BRANCH   5  18
ATOM     18  N   LIG d   1       0.014  86.935 115.382  0.00  0.00     0.381 N 
ATOM     19  H   LIG d   1      -0.936  87.121 115.130  0.00  0.00    -0.090 HD
ATOM     20  H   LIG d   1       0.576  87.717 115.092  0.00  0.00    -0.090 HD
ATOM     21  H   LIG d   1       0.086  86.812 116.368  0.00  0.00    -0.090 HD
ENDBRANCH   5  18
BRANCH   3  22
ATOM     22  C   LIG d   1      -1.241  82.641 113.673  0.00  0.00     0.382 C 
ATOM     23  O   LIG d   1      -1.963  82.276 112.714  0.00  0.00    -0.241 OA
ATOM     24  O   LIG d   1      -1.286  82.014 114.748  0.00  0.00    -0.241 OA
ENDBRANCH   3  22
TORSDOF 7
ENDMDL
MODEL 3
REMARK VINA RESULT:      -5.8      1.786      4.854
REMARK  7 active torsions:
REMARK  status: ('A' for Active; 'I' for Inactive)
REMARK    1  A    between atoms: C_2  and  C_3 
REMARK    2  A    between atoms: C_3  and  O_6 
REMARK    3  A    between atoms: C_3  and  C_4 
REMARK    4  A    between atoms: C_7  and  O_6 
REMARK    5  A    between atoms: C_9  and  C_10 
REMARK    6  A    between atoms: N_15  and  C_14 
REMARK    7  A    between atoms: N_20  and  C_19 
REMARK       I    between atoms: C_22  and  N_20 
ROOT
ATOM      1  C   LIG d   1       1.318  82.963 112.167  0.00  0.00     0.161 C 
ATOM      2  C   LIG d   1       2.418  82.856 111.300  0.00  0.00     0.016 C 
ATOM      3  C   LIG d   1       2.593  81.783 110.395  0.00  0.00     0.038 C 
ATOM      4  C   LIG d   1       1.597  80.818 110.188  0.00  0.00     0.028 C 
ATOM      5  C   LIG d   1       0.697  80.606 111.401  0.00  0.00    -0.047 C 
ATOM      6  C   LIG d   1       0.166  81.978 111.877  0.00  0.00     0.091 C 
ENDROOT
BRANCH   1   7
ATOM      7  O   LIG d   1       0.828  84.319 112.169  0.00  0.00    -0.368 OA
BRANCH   7   8
ATOM      8  C   LIG d   1       1.573  85.267 111.365  0.00  0.00     0.119 C 
BRANCH   8   9
ATOM      9  C   LIG d   1       2.142  86.336 112.318  0.00  0.00     0.028 C 
ATOM     10  C   LIG d   1       3.627  86.632 112.049  0.00  0.00     0.006 C 
ENDBRANCH   8   9
BRANCH   8  11
ATOM     11  C   LIG d   1       0.653  86.027 110.405  0.00  0.00     0.028 C 
ATOM     12  C   LIG d   1      -0.777  85.464 110.379  0.00  0.00     0.006 C 
ENDBRANCH   8  11
ENDBRANCH   7   8
ENDBRANCH   1   7
BRANCH   6  13
ATOM     13  N   LIG d   1      -0.656  81.871 113.110  0.00  0.00    -0.311 N 
ATOM     14  C   LIG d   1      -1.979  81.723 113.099  0.00  0.00     0.210 C 
ATOM     15  C   LIG d   1      -2.634  81.653 114.482  0.00  0.00     0.109 C 
ATOM     16  O   LIG d   1      -2.669  81.611 112.075  0.00  0.00    -0.276 OA
ATOM     17  H   LIG d   1      -0.173  81.921 113.986  0.00  0.00     0.149 HD
ENDBRANCH   6  13
BRANCH   5  18
ATOM     18  N   LIG d   1      -0.378  79.678 111.001  0.00  0.00     0.381 N 
ATOM     19  H   LIG d   1      -1.217  79.895 111.502  0.00  0.00    -0.090 HD
ATOM     20  H   LIG d   1      -0.103  78.741 111.239  0.00  0.00    -0.090 HD
ATOM     21  H   LIG d   1      -0.541  79.746 110.021  0.00  0.00    -0.090 HD
ENDBRANCH   5  18
BRANCH   3  22
ATOM     22  C   LIG d   1       3.794  81.648 109.715  0.00  0.00     0.382 C 
ATOM     23  O   LIG d   1       4.294  80.510 109.547  0.00  0.00    -0.241 OA
ATOM     24  O   LIG d   1       4.405  82.653 109.305  0.00  0.00    -0.241 OA
ENDBRANCH   3  22
TORSDOF 7
ENDMDL
MODEL 4
REMARK VINA RESULT:      -5.6      3.576      7.055
REMARK  7 active torsions:
REMARK  status: ('A' for Active; 'I' for Inactive)
REMARK    1  A    between atoms: C_2  and  C_3 
REMARK    2  A    between atoms: C_3  and  O_6 
REMARK    3  A    between atoms: C_3  and  C_4 
REMARK    4  A    between atoms: C_7  and  O_6 
REMARK    5  A    between atoms: C_9  and  C_10 
REMARK    6  A    between atoms: N_15  and  C_14 
REMARK    7  A    between atoms: N_20  and  C_19 
REMARK       I    between atoms: C_22  and  N_20 
ROOT
ATOM      1  C   LIG d   1       2.561  86.190 112.441  0.00  0.00     0.161 C 
ATOM      2  C   LIG d   1       3.423  87.295 112.363  0.00  0.00     0.016 C 
ATOM      3  C   LIG d   1       4.038  87.884 113.492  0.00  0.00     0.038 C 
ATOM      4  C   LIG d   1       3.951  87.308 114.768  0.00  0.00     0.028 C 
ATOM      5  C   LIG d   1       2.683  86.486 114.976  0.00  0.00    -0.047 C 
ATOM      6  C   LIG d   1       2.541  85.480 113.811  0.00  0.00     0.091 C 
ENDROOT
BRANCH   1   7
ATOM      7  O   LIG d   1       2.875  85.250 111.394  0.00  0.00    -0.368 OA
BRANCH   7   8
ATOM      8  C   LIG d   1       2.151  85.415 110.151  0.00  0.00     0.119 C 
BRANCH   8   9
ATOM      9  C   LIG d   1       0.685  85.730 110.507  0.00  0.00     0.028 C 
ATOM     10  C   LIG d   1      -0.219  84.489 110.422  0.00  0.00     0.006 C 
ENDBRANCH   8   9
BRANCH   8  11
ATOM     11  C   LIG d   1       2.102  84.107 109.356  0.00  0.00     0.028 C 
ATOM     12  C   LIG d   1       3.354  83.239 109.560  0.00  0.00     0.006 C 
ENDBRANCH   8  11
ENDBRANCH   7   8
ENDBRANCH   1   7
BRANCH   6  13
ATOM     13  N   LIG d   1       1.283  84.693 113.892  0.00  0.00    -0.311 N 
ATOM     14  C   LIG d   1       1.233  83.371 113.733  0.00  0.00     0.210 C 
ATOM     15  C   LIG d   1      -0.167  82.760 113.836  0.00  0.00     0.109 C 
ATOM     16  O   LIG d   1       2.220  82.644 113.548  0.00  0.00    -0.276 OA
ATOM     17  H   LIG d   1       0.438  85.200 114.070  0.00  0.00     0.149 HD
ENDBRANCH   6  13
BRANCH   5  18
ATOM     18  N   LIG d   1       2.787  85.833 116.295  0.00  0.00     0.381 N 
ATOM     19  H   LIG d   1       2.314  84.951 116.274  0.00  0.00    -0.090 HD
ATOM     20  H   LIG d   1       2.341  86.414 116.982  0.00  0.00    -0.090 HD
ATOM     21  H   LIG d   1       3.745  85.698 116.534  0.00  0.00    -0.090 HD
ENDBRANCH   5  18
BRANCH   3  22
ATOM     22  C   LIG d   1       4.719  89.084 113.356  0.00  0.00     0.382 C 
ATOM     23  O   LIG d   1       4.101  90.171 113.466  0.00  0.00    -0.241 OA
ATOM     24  O   LIG d   1       5.934  89.095 113.082  0.00  0.00    -0.241 OA
ENDBRANCH   3  22
TORSDOF 7
ENDMDL
MODEL 5
REMARK VINA RESULT:      -5.6      2.516      5.335
REMARK  7 active torsions:
REMARK  status: ('A' for Active; 'I' for Inactive)
REMARK    1  A    between atoms: C_2  and  C_3 
REMARK    2  A    between atoms: C_3  and  O_6 
REMARK    3  A    between atoms: C_3  and  C_4 
REMARK    4  A    between atoms: C_7  and  O_6 
REMARK    5  A    between atoms: C_9  and  C_10 
REMARK    6  A    between atoms: N_15  and  C_14 
REMARK    7  A    between atoms: N_20  and  C_19 
REMARK       I    between atoms: C_22  and  N_20 
ROOT
ATOM      1  C   LIG d   1       0.209  82.030 110.417  0.00  0.00     0.161 C 
ATOM      2  C   LIG d   1       0.959  80.854 110.251  0.00  0.00     0.016 C 
ATOM      3  C   LIG d   1       2.363  80.842 110.090  0.00  0.00     0.038 C 
ATOM      4  C   LIG d   1       3.136  82.004 110.236  0.00  0.00     0.028 C 
ATOM      5  C   LIG d   1       2.376  83.283 109.903  0.00  0.00    -0.047 C 
ATOM      6  C   LIG d   1       1.047  83.297 110.691  0.00  0.00     0.091 C 
ENDROOT
BRANCH   1   7
ATOM      7  O   LIG d   1      -0.770  81.842 111.458  0.00  0.00    -0.368 OA
BRANCH   7   8
ATOM      8  C   LIG d   1      -0.418  80.902 112.502  0.00  0.00     0.119 C 
BRANCH   8   9
ATOM      9  C   LIG d   1      -1.656  80.025 112.772  0.00  0.00     0.028 C 
ATOM     10  C   LIG d   1      -2.961  80.838 112.783  0.00  0.00     0.006 C 
ENDBRANCH   8   9
BRANCH   8  11
ATOM     11  C   LIG d   1      -0.134  81.619 113.825  0.00  0.00     0.028 C 
ATOM     12  C   LIG d   1       1.368  81.823 114.081  0.00  0.00     0.006 C 
ENDBRANCH   8  11
ENDBRANCH   7   8
ENDBRANCH   1   7
BRANCH   6  13
ATOM     13  N   LIG d   1       0.203  84.474 110.359  0.00  0.00    -0.311 N 
ATOM     14  C   LIG d   1      -0.301  85.298 111.276  0.00  0.00     0.210 C 
ATOM     15  C   LIG d   1      -1.160  86.438 110.720  0.00  0.00     0.109 C 
ATOM     16  O   LIG d   1      -0.091  85.211 112.496  0.00  0.00    -0.276 OA
ATOM     17  H   LIG d   1       0.008  84.637 109.390  0.00  0.00     0.149 HD
ENDBRANCH   6  13
BRANCH   5  18
ATOM     18  N   LIG d   1       3.255  84.422 110.230  0.00  0.00     0.381 N 
ATOM     19  H   LIG d   1       4.172  84.089 110.451  0.00  0.00    -0.090 HD
ATOM     20  H   LIG d   1       2.888  84.894 111.038  0.00  0.00    -0.090 HD
ATOM     21  H   LIG d   1       3.298  85.052 109.460  0.00  0.00    -0.090 HD
ENDBRANCH   5  18
BRANCH   3  22
ATOM     22  C   LIG d   1       3.005  79.664 109.739  0.00  0.00     0.382 C 
ATOM     23  O   LIG d   1       4.258  79.622 109.696  0.00  0.00    -0.241 OA
ATOM     24  O   LIG d   1       2.346  78.656 109.421  0.00  0.00    -0.241 OA
ENDBRANCH   3  22
TORSDOF 7
ENDMDL
MODEL 6
REMARK VINA RESULT:      -5.5      1.352      2.069
REMARK  7 active torsions:
REMARK  status: ('A' for Active; 'I' for Inactive)
REMARK    1  A    between atoms: C_2  and  C_3 
REMARK    2  A    between atoms: C_3  and  O_6 
REMARK    3  A    between atoms: C_3  and  C_4 
REMARK    4  A    between atoms: C_7  and  O_6 
REMARK    5  A    between atoms: C_9  and  C_10 
REMARK    6  A    between atoms: N_15  and  C_14 
REMARK    7  A    between atoms: N_20  and  C_19 
REMARK       I    between atoms: C_22  and  N_20 
ROOT
ATOM      1  C   LIG d   1       0.313  82.662 112.018  0.00  0.00     0.161 C 
ATOM      2  C   LIG d   1      -0.905  82.221 112.563  0.00  0.00     0.016 C 
ATOM      3  C   LIG d   1      -1.437  80.932 112.336  0.00  0.00     0.038 C 
ATOM      4  C   LIG d   1      -0.710  79.936 111.667  0.00  0.00     0.028 C 
ATOM      5  C   LIG d   1       0.301  80.492 110.670  0.00  0.00    -0.047 C 
ATOM      6  C   LIG d   1       1.174  81.553 111.378  0.00  0.00     0.091 C 
ENDROOT
BRANCH   1   7
ATOM      7  O   LIG d   1       1.070  83.368 113.022  0.00  0.00    -0.368 OA
BRANCH   7   8
ATOM      8  C   LIG d   1       0.542  83.319 114.370  0.00  0.00     0.119 C 
BRANCH   8   9
ATOM      9  C   LIG d   1       0.584  84.751 114.936  0.00  0.00     0.028 C 
ATOM     10  C   LIG d   1      -0.817  85.296 115.261  0.00  0.00     0.006 C 
ENDBRANCH   8   9
BRANCH   8  11
ATOM     11  C   LIG d   1       1.444  82.492 115.291  0.00  0.00     0.028 C 
ATOM     12  C   LIG d   1       0.650  81.645 116.299  0.00  0.00     0.006 C 
ENDBRANCH   8  11
ENDBRANCH   7   8
ENDBRANCH   1   7
BRANCH   6  13
ATOM     13  N   LIG d   1       2.134  82.208 110.452  0.00  0.00    -0.311 N 
ATOM     14  C   LIG d   1       3.393  81.804 110.295  0.00  0.00     0.210 C 
ATOM     15  C   LIG d   1       4.220  82.631 109.305  0.00  0.00     0.109 C 
ATOM     16  O   LIG d   1       3.896  80.820 110.859  0.00  0.00    -0.276 OA
ATOM     17  H   LIG d   1       1.801  82.996 109.931  0.00  0.00     0.149 HD
ENDBRANCH   6  13
BRANCH   5  18
ATOM     18  N   LIG d   1       1.083  79.355 110.148  0.00  0.00     0.381 N 
ATOM     19  H   LIG d   1       0.766  79.119 109.229  0.00  0.00    -0.090 HD
ATOM     20  H   LIG d   1       0.940  78.560 110.745  0.00  0.00    -0.090 HD
ATOM     21  H   LIG d   1       2.051  79.590 110.123  0.00  0.00    -0.090 HD
ENDBRANCH   5  18
BRANCH   3  22
ATOM     22  C   LIG d   1      -2.729  80.639 112.746  0.00  0.00     0.382 C 
ATOM     23  O   LIG d   1      -3.027  79.472 113.096  0.00  0.00    -0.241 OA
ATOM     24  O   LIG d   1      -3.612  81.518 112.728  0.00  0.00    -0.241 OA
ENDBRANCH   3  22
TORSDOF 7
ENDMDL
MODEL 7
REMARK VINA RESULT:      -5.2      3.150      5.063
REMARK  7 active torsions:
REMARK  status: ('A' for Active; 'I' for Inactive)
REMARK    1  A    between atoms: C_2  and  C_3 
REMARK    2  A    between atoms: C_3  and  O_6 
REMARK    3  A    between atoms: C_3  and  C_4 
REMARK    4  A    between atoms: C_7  and  O_6 
REMARK    5  A    between atoms: C_9  and  C_10 
REMARK    6  A    between atoms: N_15  and  C_14 
REMARK    7  A    between atoms: N_20  and  C_19 
REMARK       I    between atoms: C_22  and  N_20 
ROOT
ATOM      1  C   LIG d   1       1.037  83.040 112.367  0.00  0.00     0.161 C 
ATOM      2  C   LIG d   1       0.602  83.868 111.319  0.00  0.00     0.016 C 
ATOM      3  C   LIG d   1       0.027  85.143 111.522  0.00  0.00     0.038 C 
ATOM      4  C   LIG d   1      -0.014  85.745 112.789  0.00  0.00     0.028 C 
ATOM      5  C   LIG d   1      -0.048  84.740 113.936  0.00  0.00    -0.047 C 
ATOM      6  C   LIG d   1       1.103  83.725 113.748  0.00  0.00     0.091 C 
ENDROOT
BRANCH   1   7
ATOM      7  O   LIG d   1       2.314  82.460 112.034  0.00  0.00    -0.368 OA
BRANCH   7   8
ATOM      8  C   LIG d   1       3.136  83.217 111.112  0.00  0.00     0.119 C 
BRANCH   8   9
ATOM      9  C   LIG d   1       4.041  82.214 110.369  0.00  0.00     0.028 C 
ATOM     10  C   LIG d   1       3.465  80.788 110.374  0.00  0.00     0.006 C 
ENDBRANCH   8   9
BRANCH   8  11
ATOM     11  C   LIG d   1       4.093  84.152 111.857  0.00  0.00     0.028 C 
ATOM     12  C   LIG d   1       3.766  85.637 111.638  0.00  0.00     0.006 C 
ENDBRANCH   8  11
ENDBRANCH   7   8
ENDBRANCH   1   7
BRANCH   6  13
ATOM     13  N   LIG d   1       1.090  82.657 114.781  0.00  0.00    -0.311 N 
ATOM     14  C   LIG d   1       2.141  82.365 115.546  0.00  0.00     0.210 C 
ATOM     15  C   LIG d   1       1.921  81.215 116.534  0.00  0.00     0.109 C 
ATOM     16  O   LIG d   1       3.223  82.970 115.522  0.00  0.00    -0.276 OA
ATOM     17  H   LIG d   1       0.242  82.137 114.889  0.00  0.00     0.149 HD
ENDBRANCH   6  13
BRANCH   5  18
ATOM     18  N   LIG d   1       0.051  85.500 115.196  0.00  0.00     0.381 N 
ATOM     19  H   LIG d   1      -0.840  85.893 115.425  0.00  0.00    -0.090 HD
ATOM     20  H   LIG d   1       0.706  86.252 115.072  0.00  0.00    -0.090 HD
ATOM     21  H   LIG d   1       0.357  84.901 115.932  0.00  0.00    -0.090 HD
ENDBRANCH   5  18
BRANCH   3  22
ATOM     22  C   LIG d   1      -0.551  85.814 110.455  0.00  0.00     0.382 C 
ATOM     23  O   LIG d   1      -1.574  86.518 110.638  0.00  0.00    -0.241 OA
ATOM     24  O   LIG d   1      -0.090  85.689 109.305  0.00  0.00    -0.241 OA
ENDBRANCH   3  22
TORSDOF 7
ENDMDL
MODEL 8
REMARK VINA RESULT:      -5.1      2.722      5.666
REMARK  7 active torsions:
REMARK  status: ('A' for Active; 'I' for Inactive)
REMARK    1  A    between atoms: C_2  and  C_3 
REMARK    2  A    between atoms: C_3  and  O_6 
REMARK    3  A    between atoms: C_3  and  C_4 
REMARK    4  A    between atoms: C_7  and  O_6 
REMARK    5  A    between atoms: C_9  and  C_10 
REMARK    6  A    between atoms: N_15  and  C_14 
REMARK    7  A    between atoms: N_20  and  C_19 
REMARK       I    between atoms: C_22  and  N_20 
ROOT
ATOM      1  C   LIG d   1       1.335  84.717 113.158  0.00  0.00     0.161 C 
ATOM      2  C   LIG d   1       1.824  85.975 113.548  0.00  0.00     0.016 C 
ATOM      3  C   LIG d   1       2.263  86.957 112.631  0.00  0.00     0.038 C 
ATOM      4  C   LIG d   1       2.101  86.805 111.246  0.00  0.00     0.028 C 
ATOM      5  C   LIG d   1       2.079  85.348 110.796  0.00  0.00    -0.047 C 
ATOM      6  C   LIG d   1       1.047  84.575 111.648  0.00  0.00     0.091 C 
ENDROOT
BRANCH   1   7
ATOM      7  O   LIG d   1       0.159  84.390 113.925  0.00  0.00    -0.368 OA
BRANCH   7   8
ATOM      8  C   LIG d   1       0.388  83.699 115.178  0.00  0.00     0.119 C 
BRANCH   8   9
ATOM      9  C   LIG d   1       0.430  82.189 114.873  0.00  0.00     0.028 C 
ATOM     10  C   LIG d   1       1.590  81.478 115.590  0.00  0.00     0.006 C 
ENDBRANCH   8   9
BRANCH   8  11
ATOM     11  C   LIG d   1      -0.789  83.885 116.140  0.00  0.00     0.028 C 
ATOM     12  C   LIG d   1      -1.990  82.991 115.792  0.00  0.00     0.006 C 
ENDBRANCH   8  11
ENDBRANCH   7   8
ENDBRANCH   1   7
BRANCH   6  13
ATOM     13  N   LIG d   1       1.022  83.123 111.330  0.00  0.00    -0.311 N 
ATOM     14  C   LIG d   1      -0.084  82.468 110.983  0.00  0.00     0.210 C 
ATOM     15  C   LIG d   1       0.108  80.972 110.716  0.00  0.00     0.109 C 
ATOM     16  O   LIG d   1      -1.200  82.990 110.839  0.00  0.00    -0.276 OA
ATOM     17  H   LIG d   1       1.890  82.628 111.391  0.00  0.00     0.149 HD
ENDBRANCH   6  13
BRANCH   5  18
ATOM     18  N   LIG d   1       1.766  85.332 109.355  0.00  0.00     0.381 N 
ATOM     19  H   LIG d   1       2.405  85.924 108.863  0.00  0.00    -0.090 HD
ATOM     20  H   LIG d   1       0.837  85.689 109.219  0.00  0.00    -0.090 HD
ATOM     21  H   LIG d   1       1.827  84.402 109.003  0.00  0.00    -0.090 HD
ENDBRANCH   5  18
BRANCH   3  22
ATOM     22  C   LIG d   1       2.909  88.092 113.098  0.00  0.00     0.382 C 
ATOM     23  O   LIG d   1       4.048  88.388 112.663  0.00  0.00    -0.241 OA
ATOM     24  O   LIG d   1       2.387  88.799 113.980  0.00  0.00    -0.241 OA
ENDBRANCH   3  22
TORSDOF 7
ENDMDL
MODEL 9
REMARK VINA RESULT:      -5.1      4.046      7.477
REMARK  7 active torsions:
REMARK  status: ('A' for Active; 'I' for Inactive)
REMARK    1  A    between atoms: C_2  and  C_3 
REMARK    2  A    between atoms: C_3  and  O_6 
REMARK    3  A    between atoms: C_3  and  C_4 
REMARK    4  A    between atoms: C_7  and  O_6 
REMARK    5  A    between atoms: C_9  and  C_10 
REMARK    6  A    between atoms: N_15  and  C_14 
REMARK    7  A    between atoms: N_20  and  C_19 
REMARK       I    between atoms: C_22  and  N_20 
ROOT
ATOM      1  C   LIG d   1       1.828  86.713 113.151  0.00  0.00     0.161 C 
ATOM      2  C   LIG d   1       2.947  87.545 112.977  0.00  0.00     0.016 C 
ATOM      3  C   LIG d   1       3.581  88.229 114.039  0.00  0.00     0.038 C 
ATOM      4  C   LIG d   1       3.230  88.006 115.379  0.00  0.00     0.028 C 
ATOM      5  C   LIG d   1       1.781  87.565 115.560  0.00  0.00    -0.047 C 
ATOM      6  C   LIG d   1       1.499  86.371 114.620  0.00  0.00     0.091 C 
ENDROOT
BRANCH   1   7
ATOM      7  O   LIG d   1       1.991  85.507 112.380  0.00  0.00    -0.368 OA
BRANCH   7   8
ATOM      8  C   LIG d   1       0.850  85.100 111.584  0.00  0.00     0.119 C 
BRANCH   8   9
ATOM      9  C   LIG d   1       1.393  84.434 110.305  0.00  0.00     0.028 C 
ATOM     10  C   LIG d   1       2.910  84.626 110.141  0.00  0.00     0.006 C 
ENDBRANCH   8   9
BRANCH   8  11
ATOM     11  C   LIG d   1       0.048  86.312 111.101  0.00  0.00     0.028 C 
ATOM     12  C   LIG d   1      -1.004  85.946 110.041  0.00  0.00     0.006 C 
ENDBRANCH   8  11
ENDBRANCH   7   8
ENDBRANCH   1   7
BRANCH   6  13
ATOM     13  N   LIG d   1       0.080  85.931 114.672  0.00  0.00    -0.311 N 
ATOM     14  C   LIG d   1      -0.354  84.949 115.460  0.00  0.00     0.210 C 
ATOM     15  C   LIG d   1      -1.850  84.642 115.345  0.00  0.00     0.109 C 
ATOM     16  O   LIG d   1       0.352  84.325 116.267  0.00  0.00    -0.276 OA
ATOM     17  H   LIG d   1      -0.567  86.405 114.072  0.00  0.00     0.149 HD
ENDBRANCH   6  13
BRANCH   5  18
ATOM     18  N   LIG d   1       1.590  87.236 116.985  0.00  0.00     0.381 N 
ATOM     19  H   LIG d   1       0.618  87.089 117.172  0.00  0.00    -0.090 HD
ATOM     20  H   LIG d   1       1.904  88.011 117.543  0.00  0.00    -0.090 HD
ATOM     21  H   LIG d   1       2.108  86.418 117.219  0.00  0.00    -0.090 HD
ENDBRANCH   5  18
BRANCH   3  22
ATOM     22  C   LIG d   1       4.554  89.177 113.762  0.00  0.00     0.382 C 
ATOM     23  O   LIG d   1       5.677  89.103 114.316  0.00  0.00    -0.241 OA
ATOM     24  O   LIG d   1       4.307  90.131 113.000  0.00  0.00    -0.241 OA
ENDBRANCH   3  22
TORSDOF 7
ENDMDL
