MODEL 1
REMARK VINA RESULT:      -5.5      0.000      0.000
REMARK  7 active torsions:
REMARK  status: ('A' for Active; 'I' for Inactive)
REMARK    1  A    between atoms: C_2  and  C_3 
REMARK    2  A    between atoms: C_3  and  O_6 
REMARK    3  A    between atoms: C_3  and  C_4 
REMARK    4  A    between atoms: C_7  and  O_6 
REMARK    5  A    between atoms: C_9  and  C_10 
REMARK    6  A    between atoms: N_15  and  C_14 
REMARK    7  A    between atoms: N_20  and  C_19 
REMARK       I    between atoms: C_22  and  N_20 
ROOT
ATOM      1  C   LIG d   1      -4.256  90.808 117.695  0.00  0.00     0.161 C 
ATOM      2  C   LIG d   1      -5.167  90.126 116.871  0.00  0.00     0.016 C 
ATOM      3  C   LIG d   1      -6.419  90.659 116.487  0.00  0.00     0.038 C 
ATOM      4  C   LIG d   1      -6.782  91.982 116.779  0.00  0.00     0.028 C 
ATOM      5  C   LIG d   1      -6.112  92.531 118.034  0.00  0.00    -0.047 C 
ATOM      6  C   LIG d   1      -4.588  92.296 117.933  0.00  0.00     0.091 C 
ENDROOT
BRANCH   1   7
ATOM      7  O   LIG d   1      -2.922  90.669 117.168  0.00  0.00    -0.368 OA
BRANCH   7   8
ATOM      8  C   LIG d   1      -1.963  90.004 118.027  0.00  0.00     0.119 C 
BRANCH   8   9
ATOM      9  C   LIG d   1      -0.555  90.360 117.512  0.00  0.00     0.028 C 
ATOM     10  C   LIG d   1       0.278  91.120 118.557  0.00  0.00     0.006 C 
ENDBRANCH   8   9
BRANCH   8  11
ATOM     11  C   LIG d   1      -2.067  88.481 117.904  0.00  0.00     0.028 C 
ATOM     12  C   LIG d   1      -2.459  87.802 119.226  0.00  0.00     0.006 C 
ENDBRANCH   8  11
ENDBRANCH   7   8
ENDBRANCH   1   7
BRANCH   6  13
ATOM     13  N   LIG d   1      -3.865  92.728 119.157  0.00  0.00    -0.311 N 
ATOM     14  C   LIG d   1      -2.705  93.383 119.131  0.00  0.00     0.210 C 
ATOM     15  C   LIG d   1      -2.120  93.716 120.507  0.00  0.00     0.109 C 
ATOM     16  O   LIG d   1      -2.122  93.747 118.100  0.00  0.00    -0.276 OA
ATOM     17  H   LIG d   1      -4.283  92.501 120.038  0.00  0.00     0.149 HD
ENDBRANCH   6  13
BRANCH   5  18
ATOM     18  N   LIG d   1      -6.471  93.958 118.143  0.00  0.00     0.381 N 
ATOM     19  H   LIG d   1      -6.102  94.461 117.360  0.00  0.00    -0.090 HD
ATOM     20  H   LIG d   1      -6.061  94.333 118.980  0.00  0.00    -0.090 HD
ATOM     21  H   LIG d   1      -7.462  94.059 118.175  0.00  0.00    -0.090 HD
ENDBRANCH   5  18
BRANCH   3  22
ATOM     22  C   LIG d   1      -7.339  89.852 115.835  0.00  0.00     0.382 C 
ATOM     23  O   LIG d   1      -8.119  89.129 116.500  0.00  0.00    -0.241 OA
ATOM     24  O   LIG d   1      -7.368  89.804 114.591  0.00  0.00    -0.241 OA
ENDBRANCH   3  22
TORSDOF 7
ENDMDL
MODEL 2
REMARK VINA RESULT:      -5.2      1.666      4.725
REMARK  7 active torsions:
REMARK  status: ('A' for Active; 'I' for Inactive)
REMARK    1  A    between atoms: C_2  and  C_3 
REMARK    2  A    between atoms: C_3  and  O_6 
REMARK    3  A    between atoms: C_3  and  C_4 
REMARK    4  A    between atoms: C_7  and  O_6 
REMARK    5  A    between atoms: C_9  and  C_10 
REMARK    6  A    between atoms: N_15  and  C_14 
REMARK    7  A    between atoms: N_20  and  C_19 
REMARK       I    between atoms: C_22  and  N_20 
ROOT
ATOM      1  C   LIG d   1      -3.918  91.738 117.434  0.00  0.00     0.161 C 
ATOM      2  C   LIG d   1      -3.277  92.441 118.468  0.00  0.00     0.016 C 
ATOM      3  C   LIG d   1      -3.969  93.065 119.531  0.00  0.00     0.038 C 
ATOM      4  C   LIG d   1      -5.350  92.897 119.716  0.00  0.00     0.028 C 
ATOM      5  C   LIG d   1      -6.105  92.618 118.421  0.00  0.00    -0.047 C 
ATOM      6  C   LIG d   1      -5.414  91.451 117.679  0.00  0.00     0.091 C 
ENDROOT
BRANCH   1   7
ATOM      7  O   LIG d   1      -3.209  90.512 117.165  0.00  0.00    -0.368 OA
BRANCH   7   8
ATOM      8  C   LIG d   1      -2.315  90.051 118.207  0.00  0.00     0.119 C 
BRANCH   8   9
ATOM      9  C   LIG d   1      -0.979  89.674 117.537  0.00  0.00     0.028 C 
ATOM     10  C   LIG d   1      -0.749  88.154 117.499  0.00  0.00     0.006 C 
ENDBRANCH   8   9
BRANCH   8  11
ATOM     11  C   LIG d   1      -2.826  88.757 118.848  0.00  0.00     0.028 C 
ATOM     12  C   LIG d   1      -3.646  89.007 120.123  0.00  0.00     0.006 C 
ENDBRANCH   8  11
ENDBRANCH   7   8
ENDBRANCH   1   7
BRANCH   6  13
ATOM     13  N   LIG d   1      -6.039  91.168 116.361  0.00  0.00    -0.311 N 
ATOM     14  C   LIG d   1      -7.024  90.288 116.190  0.00  0.00     0.210 C 
ATOM     15  C   LIG d   1      -7.511  90.134 114.746  0.00  0.00     0.109 C 
ATOM     16  O   LIG d   1      -7.562  89.643 117.103  0.00  0.00    -0.276 OA
ATOM     17  H   LIG d   1      -5.684  91.670 115.571  0.00  0.00     0.149 HD
ENDBRANCH   6  13
BRANCH   5  18
ATOM     18  N   LIG d   1      -7.507  92.328 118.776  0.00  0.00     0.381 N 
ATOM     19  H   LIG d   1      -7.926  93.138 119.187  0.00  0.00    -0.090 HD
ATOM     20  H   LIG d   1      -7.524  91.586 119.453  0.00  0.00    -0.090 HD
ATOM     21  H   LIG d   1      -8.015  92.058 117.963  0.00  0.00    -0.090 HD
ENDBRANCH   5  18
BRANCH   3  22
ATOM     22  C   LIG d   1      -3.284  93.899 120.402  0.00  0.00     0.382 C 
ATOM     23  O   LIG d   1      -3.872  94.876 120.926  0.00  0.00    -0.241 OA
ATOM     24  O   LIG d   1      -2.075  93.713 120.635  0.00  0.00    -0.241 OA
ENDBRANCH   3  22
TORSDOF 7
ENDMDL
MODEL 3
REMARK VINA RESULT:      -4.7      1.308      1.625
REMARK  7 active torsions:
REMARK  status: ('A' for Active; 'I' for Inactive)
REMARK    1  A    between atoms: C_2  and  C_3 
REMARK    2  A    between atoms: C_3  and  O_6 
REMARK    3  A    between atoms: C_3  and  C_4 
REMARK    4  A    between atoms: C_7  and  O_6 
REMARK    5  A    between atoms: C_9  and  C_10 
REMARK    6  A    between atoms: N_15  and  C_14 
REMARK    7  A    between atoms: N_20  and  C_19 
REMARK       I    between atoms: C_22  and  N_20 
ROOT
ATOM      1  C   LIG d   1      -3.087  90.558 117.883  0.00  0.00     0.161 C 
ATOM      2  C   LIG d   1      -4.099  90.024 117.067  0.00  0.00     0.016 C 
ATOM      3  C   LIG d   1      -5.337  90.667 116.842  0.00  0.00     0.038 C 
ATOM      4  C   LIG d   1      -5.591  91.969 117.300  0.00  0.00     0.028 C 
ATOM      5  C   LIG d   1      -4.795  92.338 118.548  0.00  0.00    -0.047 C 
ATOM      6  C   LIG d   1      -3.301  92.027 118.300  0.00  0.00     0.091 C 
ENDROOT
BRANCH   1   7
ATOM      7  O   LIG d   1      -1.807  90.401 117.239  0.00  0.00    -0.368 OA
BRANCH   7   8
ATOM      8  C   LIG d   1      -0.828  89.605 117.951  0.00  0.00     0.119 C 
BRANCH   8   9
ATOM      9  C   LIG d   1       0.562  89.987 117.408  0.00  0.00     0.028 C 
ATOM     10  C   LIG d   1       1.441  90.668 118.470  0.00  0.00     0.006 C 
ENDBRANCH   8   9
BRANCH   8  11
ATOM     11  C   LIG d   1      -0.990  88.114 117.640  0.00  0.00     0.028 C 
ATOM     12  C   LIG d   1       0.159  87.556 116.785  0.00  0.00     0.006 C 
ENDBRANCH   8  11
ENDBRANCH   7   8
ENDBRANCH   1   7
BRANCH   6  13
ATOM     13  N   LIG d   1      -2.463  92.280 119.501  0.00  0.00    -0.311 N 
ATOM     14  C   LIG d   1      -1.340  92.996 119.475  0.00  0.00     0.210 C 
ATOM     15  C   LIG d   1      -0.619  93.118 120.820  0.00  0.00     0.109 C 
ATOM     16  O   LIG d   1      -0.891  93.569 118.471  0.00  0.00    -0.276 OA
ATOM     17  H   LIG d   1      -2.771  91.879 120.365  0.00  0.00     0.149 HD
ENDBRANCH   6  13
BRANCH   5  18
ATOM     18  N   LIG d   1      -5.050  93.762 118.834  0.00  0.00     0.381 N 
ATOM     19  H   LIG d   1      -4.206  94.287 118.720  0.00  0.00    -0.090 HD
ATOM     20  H   LIG d   1      -5.352  93.853 119.788  0.00  0.00    -0.090 HD
ATOM     21  H   LIG d   1      -5.753  94.113 118.221  0.00  0.00    -0.090 HD
ENDBRANCH   5  18
BRANCH   3  22
ATOM     22  C   LIG d   1      -6.354  89.990 116.186  0.00  0.00     0.382 C 
ATOM     23  O   LIG d   1      -6.193  89.616 114.999  0.00  0.00    -0.241 OA
ATOM     24  O   LIG d   1      -7.446  89.789 116.750  0.00  0.00    -0.241 OA
ENDBRANCH   3  22
TORSDOF 7
ENDMDL
MODEL 4
REMARK VINA RESULT:      -4.7      1.957      4.894
REMARK  7 active torsions:
REMARK  status: ('A' for Active; 'I' for Inactive)
REMARK    1  A    between atoms: C_2  and  C_3 
REMARK    2  A    between atoms: C_3  and  O_6 
REMARK    3  A    between atoms: C_3  and  C_4 
REMARK    4  A    between atoms: C_7  and  O_6 
REMARK    5  A    between atoms: C_9  and  C_10 
REMARK    6  A    between atoms: N_15  and  C_14 
REMARK    7  A    between atoms: N_20  and  C_19 
REMARK       I    between atoms: C_22  and  N_20 
ROOT
ATOM      1  C   LIG d   1      -4.201  92.119 118.193  0.00  0.00     0.161 C 
ATOM      2  C   LIG d   1      -3.949  93.070 119.195  0.00  0.00     0.016 C 
ATOM      3  C   LIG d   1      -4.942  93.928 119.722  0.00  0.00     0.038 C 
ATOM      4  C   LIG d   1      -6.297  93.787 119.387  0.00  0.00     0.028 C 
ATOM      5  C   LIG d   1      -6.519  93.177 118.007  0.00  0.00    -0.047 C 
ATOM      6  C   LIG d   1      -5.695  91.874 117.895  0.00  0.00     0.091 C 
ENDROOT
BRANCH   1   7
ATOM      7  O   LIG d   1      -3.546  90.878 118.522  0.00  0.00    -0.368 OA
BRANCH   7   8
ATOM      8  C   LIG d   1      -2.495  90.453 117.619  0.00  0.00     0.119 C 
BRANCH   8   9
ATOM      9  C   LIG d   1      -2.234  88.958 117.883  0.00  0.00     0.028 C 
ATOM     10  C   LIG d   1      -2.976  88.444 119.129  0.00  0.00     0.006 C 
ENDBRANCH   8   9
BRANCH   8  11
ATOM     11  C   LIG d   1      -1.172  91.158 117.935  0.00  0.00     0.028 C 
ATOM     12  C   LIG d   1       0.039  90.468 117.288  0.00  0.00     0.006 C 
ENDBRANCH   8  11
ENDBRANCH   7   8
ENDBRANCH   1   7
BRANCH   6  13
ATOM     13  N   LIG d   1      -5.790  91.258 116.545  0.00  0.00    -0.311 N 
ATOM     14  C   LIG d   1      -6.684  90.325 116.227  0.00  0.00     0.210 C 
ATOM     15  C   LIG d   1      -6.596  89.809 114.787  0.00  0.00     0.109 C 
ATOM     16  O   LIG d   1      -7.563  89.897 116.991  0.00  0.00    -0.276 OA
ATOM     17  H   LIG d   1      -5.135  91.570 115.855  0.00  0.00     0.149 HD
ENDBRANCH   6  13
BRANCH   5  18
ATOM     18  N   LIG d   1      -7.969  92.960 117.844  0.00  0.00     0.381 N 
ATOM     19  H   LIG d   1      -8.133  92.306 117.105  0.00  0.00    -0.090 HD
ATOM     20  H   LIG d   1      -8.403  93.832 117.595  0.00  0.00    -0.090 HD
ATOM     21  H   LIG d   1      -8.360  92.618 118.694  0.00  0.00    -0.090 HD
ENDBRANCH   5  18
BRANCH   3  22
ATOM     22  C   LIG d   1      -4.577  94.966 120.565  0.00  0.00     0.382 C 
ATOM     23  O   LIG d   1      -5.432  95.808 120.930  0.00  0.00    -0.241 OA
ATOM     24  O   LIG d   1      -3.393  95.097 120.930  0.00  0.00    -0.241 OA
ENDBRANCH   3  22
TORSDOF 7
ENDMDL
MODEL 5
REMARK VINA RESULT:      -4.6      1.986      2.923
REMARK  7 active torsions:
REMARK  status: ('A' for Active; 'I' for Inactive)
REMARK    1  A    between atoms: C_2  and  C_3 
REMARK    2  A    between atoms: C_3  and  O_6 
REMARK    3  A    between atoms: C_3  and  C_4 
REMARK    4  A    between atoms: C_7  and  O_6 
REMARK    5  A    between atoms: C_9  and  C_10 
REMARK    6  A    between atoms: N_15  and  C_14 
REMARK    7  A    between atoms: N_20  and  C_19 
REMARK       I    between atoms: C_22  and  N_20 
ROOT
ATOM      1  C   LIG d   1      -5.510  90.959 118.136  0.00  0.00     0.161 C 
ATOM      2  C   LIG d   1      -5.367  90.166 116.985  0.00  0.00     0.016 C 
ATOM      3  C   LIG d   1      -6.006  90.453 115.757  0.00  0.00     0.038 C 
ATOM      4  C   LIG d   1      -6.716  91.646 115.553  0.00  0.00     0.028 C 
ATOM      5  C   LIG d   1      -7.305  92.228 116.833  0.00  0.00    -0.047 C 
ATOM      6  C   LIG d   1      -6.191  92.323 117.900  0.00  0.00     0.091 C 
ENDROOT
BRANCH   1   7
ATOM      7  O   LIG d   1      -4.227  91.141 118.766  0.00  0.00    -0.368 OA
BRANCH   7   8
ATOM      8  C   LIG d   1      -3.380  89.968 118.839  0.00  0.00     0.119 C 
BRANCH   8   9
ATOM      9  C   LIG d   1      -3.564  89.350 120.239  0.00  0.00     0.028 C 
ATOM     10  C   LIG d   1      -3.190  87.859 120.276  0.00  0.00     0.006 C 
ENDBRANCH   8   9
BRANCH   8  11
ATOM     11  C   LIG d   1      -1.898  90.345 118.754  0.00  0.00     0.028 C 
ATOM     12  C   LIG d   1      -1.199  89.740 117.526  0.00  0.00     0.006 C 
ENDBRANCH   8  11
ENDBRANCH   7   8
ENDBRANCH   1   7
BRANCH   6  13
ATOM     13  N   LIG d   1      -6.701  92.804 119.211  0.00  0.00    -0.311 N 
ATOM     14  C   LIG d   1      -6.834  94.093 119.518  0.00  0.00     0.210 C 
ATOM     15  C   LIG d   1      -7.359  94.371 120.930  0.00  0.00     0.109 C 
ATOM     16  O   LIG d   1      -6.597  95.033 118.743  0.00  0.00    -0.276 OA
ATOM     17  H   LIG d   1      -6.947  92.108 119.888  0.00  0.00     0.149 HD
ENDBRANCH   6  13
BRANCH   5  18
ATOM     18  N   LIG d   1      -7.898  93.536 116.497  0.00  0.00     0.381 N 
ATOM     19  H   LIG d   1      -8.597  93.775 117.172  0.00  0.00    -0.090 HD
ATOM     20  H   LIG d   1      -8.339  93.471 115.596  0.00  0.00    -0.090 HD
ATOM     21  H   LIG d   1      -7.190  94.236 116.479  0.00  0.00    -0.090 HD
ENDBRANCH   5  18
BRANCH   3  22
ATOM     22  C   LIG d   1      -5.971  89.523 114.730  0.00  0.00     0.382 C 
ATOM     23  O   LIG d   1      -4.984  88.758 114.610  0.00  0.00    -0.241 OA
ATOM     24  O   LIG d   1      -6.894  89.469 113.895  0.00  0.00    -0.241 OA
ENDBRANCH   3  22
TORSDOF 7
ENDMDL
MODEL 6
REMARK VINA RESULT:      -4.6      2.089      5.501
REMARK  7 active torsions:
REMARK  status: ('A' for Active; 'I' for Inactive)
REMARK    1  A    between atoms: C_2  and  C_3 
REMARK    2  A    between atoms: C_3  and  O_6 
REMARK    3  A    between atoms: C_3  and  C_4 
REMARK    4  A    between atoms: C_7  and  O_6 
REMARK    5  A    between atoms: C_9  and  C_10 
REMARK    6  A    between atoms: N_15  and  C_14 
REMARK    7  A    between atoms: N_20  and  C_19 
REMARK       I    between atoms: C_22  and  N_20 
ROOT
ATOM      1  C   LIG d   1      -1.513  90.212 117.546  0.00  0.00     0.161 C 
ATOM      2  C   LIG d   1      -0.522  90.749 118.385  0.00  0.00     0.016 C 
ATOM      3  C   LIG d   1      -0.706  91.919 119.156  0.00  0.00     0.038 C 
ATOM      4  C   LIG d   1      -1.954  92.552 119.256  0.00  0.00     0.028 C 
ATOM      5  C   LIG d   1      -2.842  92.338 118.035  0.00  0.00    -0.047 C 
ATOM      6  C   LIG d   1      -2.917  90.825 117.728  0.00  0.00     0.091 C 
ENDROOT
BRANCH   1   7
ATOM      7  O   LIG d   1      -1.566  88.780 117.708  0.00  0.00    -0.368 OA
BRANCH   7   8
ATOM      8  C   LIG d   1      -1.430  88.286 119.063  0.00  0.00     0.119 C 
BRANCH   8   9
ATOM      9  C   LIG d   1      -0.536  87.032 119.010  0.00  0.00     0.028 C 
ATOM     10  C   LIG d   1      -1.176  85.826 119.717  0.00  0.00     0.006 C 
ENDBRANCH   8   9
BRANCH   8  11
ATOM     11  C   LIG d   1      -2.773  87.804 119.618  0.00  0.00     0.028 C 
ATOM     12  C   LIG d   1      -3.365  88.764 120.663  0.00  0.00     0.006 C 
ENDBRANCH   8  11
ENDBRANCH   7   8
ENDBRANCH   1   7
BRANCH   6  13
ATOM     13  N   LIG d   1      -3.698  90.534 116.498  0.00  0.00    -0.311 N 
ATOM     14  C   LIG d   1      -4.990  90.212 116.509  0.00  0.00     0.210 C 
ATOM     15  C   LIG d   1      -5.598  89.932 115.131  0.00  0.00     0.109 C 
ATOM     16  O   LIG d   1      -5.698  90.163 117.526  0.00  0.00    -0.276 OA
ATOM     17  H   LIG d   1      -3.209  90.582 115.625  0.00  0.00     0.149 HD
ENDBRANCH   6  13
BRANCH   5  18
ATOM     18  N   LIG d   1      -4.158  92.934 118.332  0.00  0.00     0.381 N 
ATOM     19  H   LIG d   1      -4.856  92.524 117.743  0.00  0.00    -0.090 HD
ATOM     20  H   LIG d   1      -4.120  93.919 118.138  0.00  0.00    -0.090 HD
ATOM     21  H   LIG d   1      -4.392  92.785 119.289  0.00  0.00    -0.090 HD
ENDBRANCH   5  18
BRANCH   3  22
ATOM     22  C   LIG d   1       0.377  92.492 119.805  0.00  0.00     0.382 C 
ATOM     23  O   LIG d   1       0.780  93.631 119.468  0.00  0.00    -0.241 OA
ATOM     24  O   LIG d   1       0.985  91.865 120.694  0.00  0.00    -0.241 OA
ENDBRANCH   3  22
TORSDOF 7
ENDMDL
MODEL 7
REMARK VINA RESULT:      -4.4      2.209      4.261
REMARK  7 active torsions:
REMARK  status: ('A' for Active; 'I' for Inactive)
REMARK    1  A    between atoms: C_2  and  C_3 
REMARK    2  A    between atoms: C_3  and  O_6 
REMARK    3  A    between atoms: C_3  and  C_4 
REMARK    4  A    between atoms: C_7  and  O_6 
REMARK    5  A    between atoms: C_9  and  C_10 
REMARK    6  A    between atoms: N_15  and  C_14 
REMARK    7  A    between atoms: N_20  and  C_19 
REMARK       I    between atoms: C_22  and  N_20 
ROOT
ATOM      1  C   LIG d   1      -4.768  91.905 118.491  0.00  0.00     0.161 C 
ATOM      2  C   LIG d   1      -5.603  92.014 117.367  0.00  0.00     0.016 C 
ATOM      3  C   LIG d   1      -5.539  91.133 116.262  0.00  0.00     0.038 C 
ATOM      4  C   LIG d   1      -4.733  89.985 116.275  0.00  0.00     0.028 C 
ATOM      5  C   LIG d   1      -3.508  90.115 117.173  0.00  0.00    -0.047 C 
ATOM      6  C   LIG d   1      -3.959  90.593 118.572  0.00  0.00     0.091 C 
ENDROOT
BRANCH   1   7
ATOM      7  O   LIG d   1      -5.541  92.092 119.693  0.00  0.00    -0.368 OA
BRANCH   7   8
ATOM      8  C   LIG d   1      -5.342  93.346 120.391  0.00  0.00     0.119 C 
BRANCH   8   9
ATOM      9  C   LIG d   1      -6.567  94.236 120.101  0.00  0.00     0.028 C 
ATOM     10  C   LIG d   1      -6.207  95.476 119.265  0.00  0.00     0.006 C 
ENDBRANCH   8   9
BRANCH   8  11
ATOM     11  C   LIG d   1      -4.142  94.113 119.827  0.00  0.00     0.028 C 
ATOM     12  C   LIG d   1      -3.038  94.343 120.871  0.00  0.00     0.006 C 
ENDBRANCH   8  11
ENDBRANCH   7   8
ENDBRANCH   1   7
BRANCH   6  13
ATOM     13  N   LIG d   1      -2.813  90.828 119.488  0.00  0.00    -0.311 N 
ATOM     14  C   LIG d   1      -1.671  91.394 119.104  0.00  0.00     0.210 C 
ATOM     15  C   LIG d   1      -0.611  91.524 120.202  0.00  0.00     0.109 C 
ATOM     16  O   LIG d   1      -1.446  91.831 117.965  0.00  0.00    -0.276 OA
ATOM     17  H   LIG d   1      -2.921  90.532 120.439  0.00  0.00     0.149 HD
ENDBRANCH   6  13
BRANCH   5  18
ATOM     18  N   LIG d   1      -2.834  88.803 117.200  0.00  0.00     0.381 N 
ATOM     19  H   LIG d   1      -3.022  88.344 118.069  0.00  0.00    -0.090 HD
ATOM     20  H   LIG d   1      -1.842  88.946 117.128  0.00  0.00    -0.090 HD
ATOM     21  H   LIG d   1      -3.152  88.241 116.442  0.00  0.00    -0.090 HD
ENDBRANCH   5  18
BRANCH   3  22
ATOM     22  C   LIG d   1      -6.259  91.420 115.112  0.00  0.00     0.382 C 
ATOM     23  O   LIG d   1      -6.935  90.521 114.556  0.00  0.00    -0.241 OA
ATOM     24  O   LIG d   1      -6.205  92.553 114.600  0.00  0.00    -0.241 OA
ENDBRANCH   3  22
TORSDOF 7
ENDMDL
MODEL 8
REMARK VINA RESULT:      -4.4      2.214      5.094
REMARK  7 active torsions:
REMARK  status: ('A' for Active; 'I' for Inactive)
REMARK    1  A    between atoms: C_2  and  C_3 
REMARK    2  A    between atoms: C_3  and  O_6 
REMARK    3  A    between atoms: C_3  and  C_4 
REMARK    4  A    between atoms: C_7  and  O_6 
REMARK    5  A    between atoms: C_9  and  C_10 
REMARK    6  A    between atoms: N_15  and  C_14 
REMARK    7  A    between atoms: N_20  and  C_19 
REMARK       I    between atoms: C_22  and  N_20 
ROOT
ATOM      1  C   LIG d   1      -4.104  91.785 118.813  0.00  0.00     0.161 C 
ATOM      2  C   LIG d   1      -3.033  91.010 119.288  0.00  0.00     0.016 C 
ATOM      3  C   LIG d   1      -2.560  89.850 118.631  0.00  0.00     0.038 C 
ATOM      4  C   LIG d   1      -3.033  89.469 117.367  0.00  0.00     0.028 C 
ATOM      5  C   LIG d   1      -4.458  89.933 117.088  0.00  0.00    -0.047 C 
ATOM      6  C   LIG d   1      -4.559  91.448 117.377  0.00  0.00     0.091 C 
ENDROOT
BRANCH   1   7
ATOM      7  O   LIG d   1      -3.779  93.185 118.921  0.00  0.00    -0.368 OA
BRANCH   7   8
ATOM      8  C   LIG d   1      -2.404  93.496 119.254  0.00  0.00     0.119 C 
BRANCH   8   9
ATOM      9  C   LIG d   1      -2.407  94.827 120.032  0.00  0.00     0.028 C 
ATOM     10  C   LIG d   1      -2.299  96.049 119.105  0.00  0.00     0.006 C 
ENDBRANCH   8   9
BRANCH   8  11
ATOM     11  C   LIG d   1      -1.572  93.764 117.997  0.00  0.00     0.028 C 
ATOM     12  C   LIG d   1      -0.249  92.982 117.981  0.00  0.00     0.006 C 
ENDBRANCH   8  11
ENDBRANCH   7   8
ENDBRANCH   1   7
BRANCH   6  13
ATOM     13  N   LIG d   1      -5.941  91.967 117.211  0.00  0.00    -0.311 N 
ATOM     14  C   LIG d   1      -6.438  92.369 116.042  0.00  0.00     0.210 C 
ATOM     15  C   LIG d   1      -7.878  92.887 116.095  0.00  0.00     0.109 C 
ATOM     16  O   LIG d   1      -5.833  92.316 114.961  0.00  0.00    -0.276 OA
ATOM     17  H   LIG d   1      -6.513  92.015 118.032  0.00  0.00     0.149 HD
ENDBRANCH   6  13
BRANCH   5  18
ATOM     18  N   LIG d   1      -4.773  89.590 115.688  0.00  0.00     0.381 N 
ATOM     19  H   LIG d   1      -4.373  88.702 115.459  0.00  0.00    -0.090 HD
ATOM     20  H   LIG d   1      -4.368  90.283 115.084  0.00  0.00    -0.090 HD
ATOM     21  H   LIG d   1      -5.760  89.561 115.558  0.00  0.00    -0.090 HD
ENDBRANCH   5  18
BRANCH   3  22
ATOM     22  C   LIG d   1      -1.631  89.034 119.260  0.00  0.00     0.382 C 
ATOM     23  O   LIG d   1      -1.872  87.813 119.414  0.00  0.00    -0.241 OA
ATOM     24  O   LIG d   1      -0.576  89.514 119.715  0.00  0.00    -0.241 OA
ENDBRANCH   3  22
TORSDOF 7
ENDMDL
MODEL 9
REMARK VINA RESULT:      -4.4      2.372      5.242
REMARK  7 active torsions:
REMARK  status: ('A' for Active; 'I' for Inactive)
REMARK    1  A    between atoms: C_2  and  C_3 
REMARK    2  A    between atoms: C_3  and  O_6 
REMARK    3  A    between atoms: C_3  and  C_4 
REMARK    4  A    between atoms: C_7  and  O_6 
REMARK    5  A    between atoms: C_9  and  C_10 
REMARK    6  A    between atoms: N_15  and  C_14 
REMARK    7  A    between atoms: N_20  and  C_19 
REMARK       I    between atoms: C_22  and  N_20 
ROOT
ATOM      1  C   LIG d   1      -4.155  90.769 118.416  0.00  0.00     0.161 C 
ATOM      2  C   LIG d   1      -4.763  91.721 119.251  0.00  0.00     0.016 C 
ATOM      3  C   LIG d   1      -4.223  93.006 119.488  0.00  0.00     0.038 C 
ATOM      4  C   LIG d   1      -3.109  93.484 118.781  0.00  0.00     0.028 C 
ATOM      5  C   LIG d   1      -2.173  92.377 118.306  0.00  0.00    -0.047 C 
ATOM      6  C   LIG d   1      -2.999  91.311 117.550  0.00  0.00     0.091 C 
ENDROOT
BRANCH   1   7
ATOM      7  O   LIG d   1      -5.151  90.141 117.584  0.00  0.00    -0.368 OA
BRANCH   7   8
ATOM      8  C   LIG d   1      -5.562  90.884 116.410  0.00  0.00     0.119 C 
BRANCH   8   9
ATOM      9  C   LIG d   1      -6.990  91.404 116.667  0.00  0.00     0.028 C 
ATOM     10  C   LIG d   1      -7.053  92.939 116.731  0.00  0.00     0.006 C 
ENDBRANCH   8   9
BRANCH   8  11
ATOM     11  C   LIG d   1      -5.676  89.972 115.185  0.00  0.00     0.028 C 
ATOM     12  C   LIG d   1      -7.077  89.997 114.553  0.00  0.00     0.006 C 
ENDBRANCH   8  11
ENDBRANCH   7   8
ENDBRANCH   1   7
BRANCH   6  13
ATOM     13  N   LIG d   1      -2.173  90.152 117.124  0.00  0.00    -0.311 N 
ATOM     14  C   LIG d   1      -1.478  89.396 117.973  0.00  0.00     0.210 C 
ATOM     15  C   LIG d   1      -0.678  88.262 117.322  0.00  0.00     0.109 C 
ATOM     16  O   LIG d   1      -1.474  89.536 119.205  0.00  0.00    -0.276 OA
ATOM     17  H   LIG d   1      -2.144  89.947 116.145  0.00  0.00     0.149 HD
ENDBRANCH   6  13
BRANCH   5  18
ATOM     18  N   LIG d   1      -1.132  93.003 117.469  0.00  0.00     0.381 N 
ATOM     19  H   LIG d   1      -1.288  93.990 117.416  0.00  0.00    -0.090 HD
ATOM     20  H   LIG d   1      -1.191  92.624 116.540  0.00  0.00    -0.090 HD
ATOM     21  H   LIG d   1      -0.231  92.822 117.853  0.00  0.00    -0.090 HD
ENDBRANCH   5  18
BRANCH   3  22
ATOM     22  C   LIG d   1      -4.776  93.813 120.470  0.00  0.00     0.382 C 
ATOM     23  O   LIG d   1      -5.913  93.552 120.929  0.00  0.00    -0.241 OA
ATOM     24  O   LIG d   1      -4.170  94.826 120.870  0.00  0.00    -0.241 OA
ENDBRANCH   3  22
TORSDOF 7
ENDMDL
