MODEL 1
REMARK VINA RESULT:      -5.5      0.000      0.000
REMARK  7 active torsions:
REMARK  status: ('A' for Active; 'I' for Inactive)
REMARK    1  A    between atoms: C_2  and  C_3 
REMARK    2  A    between atoms: C_3  and  O_6 
REMARK    3  A    between atoms: C_3  and  C_4 
REMARK    4  A    between atoms: C_7  and  O_6 
REMARK    5  A    between atoms: C_9  and  C_10 
REMARK    6  A    between atoms: N_15  and  C_14 
REMARK    7  A    between atoms: N_20  and  C_19 
REMARK       I    between atoms: C_22  and  N_20 
ROOT
ATOM      1  C   LIG d   1      -3.721  90.881 117.728  0.00  0.00     0.161 C 
ATOM      2  C   LIG d   1      -4.576  90.234 116.820  0.00  0.00     0.016 C 
ATOM      3  C   LIG d   1      -5.885  90.683 116.528  0.00  0.00     0.038 C 
ATOM      4  C   LIG d   1      -6.375  91.904 117.015  0.00  0.00     0.028 C 
ATOM      5  C   LIG d   1      -5.735  92.333 118.331  0.00  0.00    -0.047 C 
ATOM      6  C   LIG d   1      -4.198  92.276 118.184  0.00  0.00     0.091 C 
ENDROOT
BRANCH   1   7
ATOM      7  O   LIG d   1      -2.392  90.962 117.175  0.00  0.00    -0.368 OA
BRANCH   7   8
ATOM      8  C   LIG d   1      -1.405  90.076 117.758  0.00  0.00     0.119 C 
BRANCH   8   9
ATOM      9  C   LIG d   1      -2.070  89.360 118.949  0.00  0.00     0.028 C 
ATOM     10  C   LIG d   1      -1.367  89.662 120.283  0.00  0.00     0.006 C 
ENDBRANCH   8   9
BRANCH   8  11
ATOM     11  C   LIG d   1      -0.237  90.863 118.359  0.00  0.00     0.028 C 
ATOM     12  C   LIG d   1       1.056  90.732 117.537  0.00  0.00     0.006 C 
ENDBRANCH   8  11
ENDBRANCH   7   8
ENDBRANCH   1   7
BRANCH   6  13
ATOM     13  N   LIG d   1      -3.494  92.599 119.452  0.00  0.00    -0.311 N 
ATOM     14  C   LIG d   1      -2.479  93.458 119.529  0.00  0.00     0.210 C 
ATOM     15  C   LIG d   1      -1.884  93.631 120.930  0.00  0.00     0.109 C 
ATOM     16  O   LIG d   1      -2.036  94.117 118.576  0.00  0.00    -0.276 OA
ATOM     17  H   LIG d   1      -3.809  92.133 120.280  0.00  0.00     0.149 HD
ENDBRANCH   6  13
BRANCH   5  18
ATOM     18  N   LIG d   1      -6.236  93.683 118.651  0.00  0.00     0.381 N 
ATOM     19  H   LIG d   1      -7.226  93.653 118.790  0.00  0.00    -0.090 HD
ATOM     20  H   LIG d   1      -6.044  94.293 117.876  0.00  0.00    -0.090 HD
ATOM     21  H   LIG d   1      -5.789  94.027 119.473  0.00  0.00    -0.090 HD
ENDBRANCH   5  18
BRANCH   3  22
ATOM     22  C   LIG d   1      -6.732  89.887 115.773  0.00  0.00     0.382 C 
ATOM     23  O   LIG d   1      -7.779  89.423 116.286  0.00  0.00    -0.241 OA
ATOM     24  O   LIG d   1      -6.441  89.591 114.599  0.00  0.00    -0.241 OA
ENDBRANCH   3  22
TORSDOF 7
ENDMDL
MODEL 2
REMARK VINA RESULT:      -5.4      2.619      4.030
REMARK  7 active torsions:
REMARK  status: ('A' for Active; 'I' for Inactive)
REMARK    1  A    between atoms: C_2  and  C_3 
REMARK    2  A    between atoms: C_3  and  O_6 
REMARK    3  A    between atoms: C_3  and  C_4 
REMARK    4  A    between atoms: C_7  and  O_6 
REMARK    5  A    between atoms: C_9  and  C_10 
REMARK    6  A    between atoms: N_15  and  C_14 
REMARK    7  A    between atoms: N_20  and  C_19 
REMARK       I    between atoms: C_22  and  N_20 
ROOT
ATOM      1  C   LIG d   1      -4.918  92.521 118.842  0.00  0.00     0.161 C 
ATOM      2  C   LIG d   1      -6.269  92.895 118.751  0.00  0.00     0.016 C 
ATOM      3  C   LIG d   1      -6.791  94.075 119.330  0.00  0.00     0.038 C 
ATOM      4  C   LIG d   1      -5.961  95.043 119.914  0.00  0.00     0.028 C 
ATOM      5  C   LIG d   1      -4.663  94.471 120.474  0.00  0.00    -0.047 C 
ATOM      6  C   LIG d   1      -3.978  93.619 119.380  0.00  0.00     0.091 C 
ENDROOT
BRANCH   1   7
ATOM      7  O   LIG d   1      -4.455  92.047 117.562  0.00  0.00    -0.368 OA
BRANCH   7   8
ATOM      8  C   LIG d   1      -4.446  90.610 117.379  0.00  0.00     0.119 C 
BRANCH   8   9
ATOM      9  C   LIG d   1      -2.974  90.155 117.358  0.00  0.00     0.028 C 
ATOM     10  C   LIG d   1      -2.569  89.419 118.646  0.00  0.00     0.006 C 
ENDBRANCH   8   9
BRANCH   8  11
ATOM     11  C   LIG d   1      -5.011  90.219 116.010  0.00  0.00     0.028 C 
ATOM     12  C   LIG d   1      -5.956  91.283 115.430  0.00  0.00     0.006 C 
ENDBRANCH   8  11
ENDBRANCH   7   8
ENDBRANCH   1   7
BRANCH   6  13
ATOM     13  N   LIG d   1      -2.743  92.954 119.871  0.00  0.00    -0.311 N 
ATOM     14  C   LIG d   1      -1.576  93.009 119.231  0.00  0.00     0.210 C 
ATOM     15  C   LIG d   1      -0.435  92.236 119.899  0.00  0.00     0.109 C 
ATOM     16  O   LIG d   1      -1.370  93.651 118.190  0.00  0.00    -0.276 OA
ATOM     17  H   LIG d   1      -2.812  92.436 120.725  0.00  0.00     0.149 HD
ENDBRANCH   6  13
BRANCH   5  18
ATOM     18  N   LIG d   1      -3.835  95.604 120.927  0.00  0.00     0.381 N 
ATOM     19  H   LIG d   1      -2.889  95.473 120.630  0.00  0.00    -0.090 HD
ATOM     20  H   LIG d   1      -3.848  95.635 121.931  0.00  0.00    -0.090 HD
ATOM     21  H   LIG d   1      -4.192  96.457 120.556  0.00  0.00    -0.090 HD
ENDBRANCH   5  18
BRANCH   3  22
ATOM     22  C   LIG d   1      -8.162  94.276 119.362  0.00  0.00     0.382 C 
ATOM     23  O   LIG d   1      -8.897  93.728 118.506  0.00  0.00    -0.241 OA
ATOM     24  O   LIG d   1      -8.669  95.035 120.210  0.00  0.00    -0.241 OA
ENDBRANCH   3  22
TORSDOF 7
ENDMDL
MODEL 3
REMARK VINA RESULT:      -5.1      2.238      4.190
REMARK  7 active torsions:
REMARK  status: ('A' for Active; 'I' for Inactive)
REMARK    1  A    between atoms: C_2  and  C_3 
REMARK    2  A    between atoms: C_3  and  O_6 
REMARK    3  A    between atoms: C_3  and  C_4 
REMARK    4  A    between atoms: C_7  and  O_6 
REMARK    5  A    between atoms: C_9  and  C_10 
REMARK    6  A    between atoms: N_15  and  C_14 
REMARK    7  A    between atoms: N_20  and  C_19 
REMARK       I    between atoms: C_22  and  N_20 
ROOT
ATOM      1  C   LIG d   1      -4.689  91.966 118.681  0.00  0.00     0.161 C 
ATOM      2  C   LIG d   1      -5.653  91.852 117.666  0.00  0.00     0.016 C 
ATOM      3  C   LIG d   1      -5.527  90.970 116.568  0.00  0.00     0.038 C 
ATOM      4  C   LIG d   1      -4.491  90.026 116.491  0.00  0.00     0.028 C 
ATOM      5  C   LIG d   1      -3.228  90.451 117.233  0.00  0.00    -0.047 C 
ATOM      6  C   LIG d   1      -3.608  90.866 118.673  0.00  0.00     0.091 C 
ENDROOT
BRANCH   1   7
ATOM      7  O   LIG d   1      -5.338  92.021 119.967  0.00  0.00    -0.368 OA
BRANCH   7   8
ATOM      8  C   LIG d   1      -5.337  93.310 120.628  0.00  0.00     0.119 C 
BRANCH   8   9
ATOM      9  C   LIG d   1      -6.737  93.927 120.443  0.00  0.00     0.028 C 
ATOM     10  C   LIG d   1      -6.679  95.353 119.871  0.00  0.00     0.006 C 
ENDBRANCH   8   9
BRANCH   8  11
ATOM     11  C   LIG d   1      -4.371  94.284 119.946  0.00  0.00     0.028 C 
ATOM     12  C   LIG d   1      -3.172  94.653 120.833  0.00  0.00     0.006 C 
ENDBRANCH   8  11
ENDBRANCH   7   8
ENDBRANCH   1   7
BRANCH   6  13
ATOM     13  N   LIG d   1      -2.442  91.375 119.441  0.00  0.00    -0.311 N 
ATOM     14  C   LIG d   1      -1.671  90.601 120.202  0.00  0.00     0.210 C 
ATOM     15  C   LIG d   1      -0.534  91.331 120.925  0.00  0.00     0.109 C 
ATOM     16  O   LIG d   1      -1.800  89.373 120.322  0.00  0.00    -0.276 OA
ATOM     17  H   LIG d   1      -2.246  92.355 119.377  0.00  0.00     0.149 HD
ENDBRANCH   6  13
BRANCH   5  18
ATOM     18  N   LIG d   1      -2.283  89.319 117.187  0.00  0.00     0.381 N 
ATOM     19  H   LIG d   1      -2.102  89.068 116.236  0.00  0.00    -0.090 HD
ATOM     20  H   LIG d   1      -2.699  88.529 117.649  0.00  0.00    -0.090 HD
ATOM     21  H   LIG d   1      -1.432  89.567 117.641  0.00  0.00    -0.090 HD
ENDBRANCH   5  18
BRANCH   3  22
ATOM     22  C   LIG d   1      -6.421  91.054 115.512  0.00  0.00     0.382 C 
ATOM     23  O   LIG d   1      -7.414  90.288 115.469  0.00  0.00    -0.241 OA
ATOM     24  O   LIG d   1      -6.224  91.856 114.579  0.00  0.00    -0.241 OA
ENDBRANCH   3  22
TORSDOF 7
ENDMDL
MODEL 4
REMARK VINA RESULT:      -5.0      2.107      4.313
REMARK  7 active torsions:
REMARK  status: ('A' for Active; 'I' for Inactive)
REMARK    1  A    between atoms: C_2  and  C_3 
REMARK    2  A    between atoms: C_3  and  O_6 
REMARK    3  A    between atoms: C_3  and  C_4 
REMARK    4  A    between atoms: C_7  and  O_6 
REMARK    5  A    between atoms: C_9  and  C_10 
REMARK    6  A    between atoms: N_15  and  C_14 
REMARK    7  A    between atoms: N_20  and  C_19 
REMARK       I    between atoms: C_22  and  N_20 
ROOT
ATOM      1  C   LIG d   1      -4.594  92.208 118.373  0.00  0.00     0.161 C 
ATOM      2  C   LIG d   1      -5.571  92.048 117.377  0.00  0.00     0.016 C 
ATOM      3  C   LIG d   1      -5.548  91.005 116.423  0.00  0.00     0.038 C 
ATOM      4  C   LIG d   1      -4.621  89.955 116.496  0.00  0.00     0.028 C 
ATOM      5  C   LIG d   1      -3.314  90.347 117.178  0.00  0.00    -0.047 C 
ATOM      6  C   LIG d   1      -3.636  91.009 118.537  0.00  0.00     0.091 C 
ENDROOT
BRANCH   1   7
ATOM      7  O   LIG d   1      -5.224  92.521 119.631  0.00  0.00    -0.368 OA
BRANCH   7   8
ATOM      8  C   LIG d   1      -5.511  93.922 119.868  0.00  0.00     0.119 C 
BRANCH   8   9
ATOM      9  C   LIG d   1      -4.515  94.425 120.930  0.00  0.00     0.028 C 
ATOM     10  C   LIG d   1      -3.468  95.387 120.342  0.00  0.00     0.006 C 
ENDBRANCH   8   9
BRANCH   8  11
ATOM     11  C   LIG d   1      -6.897  94.108 120.492  0.00  0.00     0.028 C 
ATOM     12  C   LIG d   1      -8.024  94.131 119.447  0.00  0.00     0.006 C 
ENDBRANCH   8  11
ENDBRANCH   7   8
ENDBRANCH   1   7
BRANCH   6  13
ATOM     13  N   LIG d   1      -2.417  91.499 119.232  0.00  0.00    -0.311 N 
ATOM     14  C   LIG d   1      -1.707  92.545 118.816  0.00  0.00     0.210 C 
ATOM     15  C   LIG d   1      -0.474  92.870 119.666  0.00  0.00     0.109 C 
ATOM     16  O   LIG d   1      -1.998  93.256 117.842  0.00  0.00    -0.276 OA
ATOM     17  H   LIG d   1      -2.127  90.999 120.050  0.00  0.00     0.149 HD
ENDBRANCH   6  13
BRANCH   5  18
ATOM     18  N   LIG d   1      -2.496  89.126 117.309  0.00  0.00     0.381 N 
ATOM     19  H   LIG d   1      -2.239  88.992 118.267  0.00  0.00    -0.090 HD
ATOM     20  H   LIG d   1      -1.656  89.238 116.769  0.00  0.00    -0.090 HD
ATOM     21  H   LIG d   1      -3.007  88.336 116.981  0.00  0.00    -0.090 HD
ENDBRANCH   5  18
BRANCH   3  22
ATOM     22  C   LIG d   1      -6.436  91.027 115.359  0.00  0.00     0.382 C 
ATOM     23  O   LIG d   1      -6.269  91.842 114.420  0.00  0.00    -0.241 OA
ATOM     24  O   LIG d   1      -7.426  90.271 115.346  0.00  0.00    -0.241 OA
ENDBRANCH   3  22
TORSDOF 7
ENDMDL
MODEL 5
REMARK VINA RESULT:      -4.8      1.878      2.337
REMARK  7 active torsions:
REMARK  status: ('A' for Active; 'I' for Inactive)
REMARK    1  A    between atoms: C_2  and  C_3 
REMARK    2  A    between atoms: C_3  and  O_6 
REMARK    3  A    between atoms: C_3  and  C_4 
REMARK    4  A    between atoms: C_7  and  O_6 
REMARK    5  A    between atoms: C_9  and  C_10 
REMARK    6  A    between atoms: N_15  and  C_14 
REMARK    7  A    between atoms: N_20  and  C_19 
REMARK       I    between atoms: C_22  and  N_20 
ROOT
ATOM      1  C   LIG d   1      -1.963  90.465 117.967  0.00  0.00     0.161 C 
ATOM      2  C   LIG d   1      -2.960  89.921 117.140  0.00  0.00     0.016 C 
ATOM      3  C   LIG d   1      -4.208  90.544 116.914  0.00  0.00     0.038 C 
ATOM      4  C   LIG d   1      -4.488  91.837 117.381  0.00  0.00     0.028 C 
ATOM      5  C   LIG d   1      -3.707  92.208 118.637  0.00  0.00    -0.047 C 
ATOM      6  C   LIG d   1      -2.206  91.927 118.396  0.00  0.00     0.091 C 
ENDROOT
BRANCH   1   7
ATOM      7  O   LIG d   1      -0.676  90.338 117.329  0.00  0.00    -0.368 OA
BRANCH   7   8
ATOM      8  C   LIG d   1       0.120  89.193 117.724  0.00  0.00     0.119 C 
BRANCH   8   9
ATOM      9  C   LIG d   1       1.103  89.666 118.812  0.00  0.00     0.028 C 
ATOM     10  C   LIG d   1       0.744  89.119 120.204  0.00  0.00     0.006 C 
ENDBRANCH   8   9
BRANCH   8  11
ATOM     11  C   LIG d   1       0.998  88.701 116.569  0.00  0.00     0.028 C 
ATOM     12  C   LIG d   1       0.606  87.299 116.078  0.00  0.00     0.006 C 
ENDBRANCH   8  11
ENDBRANCH   7   8
ENDBRANCH   1   7
BRANCH   6  13
ATOM     13  N   LIG d   1      -1.380  92.184 119.605  0.00  0.00    -0.311 N 
ATOM     14  C   LIG d   1      -0.220  92.837 119.574  0.00  0.00     0.210 C 
ATOM     15  C   LIG d   1       0.480  92.976 120.930  0.00  0.00     0.109 C 
ATOM     16  O   LIG d   1       0.281  93.343 118.559  0.00  0.00    -0.276 OA
ATOM     17  H   LIG d   1      -1.727  91.836 120.477  0.00  0.00     0.149 HD
ENDBRANCH   6  13
BRANCH   5  18
ATOM     18  N   LIG d   1      -3.989  93.625 118.934  0.00  0.00     0.381 N 
ATOM     19  H   LIG d   1      -3.973  94.159 118.088  0.00  0.00    -0.090 HD
ATOM     20  H   LIG d   1      -3.273  93.979 119.544  0.00  0.00    -0.090 HD
ATOM     21  H   LIG d   1      -4.880  93.711 119.372  0.00  0.00    -0.090 HD
ENDBRANCH   5  18
BRANCH   3  22
ATOM     22  C   LIG d   1      -5.209  89.855 116.245  0.00  0.00     0.382 C 
ATOM     23  O   LIG d   1      -4.917  89.104 115.283  0.00  0.00    -0.241 OA
ATOM     24  O   LIG d   1      -6.403  90.010 116.562  0.00  0.00    -0.241 OA
ENDBRANCH   3  22
TORSDOF 7
ENDMDL
MODEL 6
REMARK VINA RESULT:      -4.5      3.920      6.175
REMARK  7 active torsions:
REMARK  status: ('A' for Active; 'I' for Inactive)
REMARK    1  A    between atoms: C_2  and  C_3 
REMARK    2  A    between atoms: C_3  and  O_6 
REMARK    3  A    between atoms: C_3  and  C_4 
REMARK    4  A    between atoms: C_7  and  O_6 
REMARK    5  A    between atoms: C_9  and  C_10 
REMARK    6  A    between atoms: N_15  and  C_14 
REMARK    7  A    between atoms: N_20  and  C_19 
REMARK       I    between atoms: C_22  and  N_20 
ROOT
ATOM      1  C   LIG d   1       1.257  89.460 117.128  0.00  0.00     0.161 C 
ATOM      2  C   LIG d   1      -0.064  89.107 117.448  0.00  0.00     0.016 C 
ATOM      3  C   LIG d   1      -0.926  89.928 118.211  0.00  0.00     0.038 C 
ATOM      4  C   LIG d   1      -0.571  91.235 118.580  0.00  0.00     0.028 C 
ATOM      5  C   LIG d   1       0.934  91.439 118.712  0.00  0.00    -0.047 C 
ATOM      6  C   LIG d   1       1.625  90.929 117.427  0.00  0.00     0.091 C 
ENDROOT
BRANCH   1   7
ATOM      7  O   LIG d   1       1.525  89.148 115.747  0.00  0.00    -0.368 OA
BRANCH   7   8
ATOM      8  C   LIG d   1       2.431  88.043 115.507  0.00  0.00     0.119 C 
BRANCH   8   9
ATOM      9  C   LIG d   1       3.717  88.624 114.889  0.00  0.00     0.028 C 
ATOM     10  C   LIG d   1       3.442  89.859 114.015  0.00  0.00     0.006 C 
ENDBRANCH   8   9
BRANCH   8  11
ATOM     11  C   LIG d   1       1.872  87.083 114.452  0.00  0.00     0.028 C 
ATOM     12  C   LIG d   1       0.540  86.444 114.875  0.00  0.00     0.006 C 
ENDBRANCH   8  11
ENDBRANCH   7   8
ENDBRANCH   1   7
BRANCH   6  13
ATOM     13  N   LIG d   1       3.106  91.014 117.507  0.00  0.00    -0.311 N 
ATOM     14  C   LIG d   1       3.807  92.050 117.049  0.00  0.00     0.210 C 
ATOM     15  C   LIG d   1       5.325  91.927 117.213  0.00  0.00     0.109 C 
ATOM     16  O   LIG d   1       3.313  93.073 116.551  0.00  0.00    -0.276 OA
ATOM     17  H   LIG d   1       3.586  90.241 117.925  0.00  0.00     0.149 HD
ENDBRANCH   6  13
BRANCH   5  18
ATOM     18  N   LIG d   1       1.169  92.873 118.965  0.00  0.00     0.381 N 
ATOM     19  H   LIG d   1       0.298  93.333 119.140  0.00  0.00    -0.090 HD
ATOM     20  H   LIG d   1       1.584  93.283 118.146  0.00  0.00    -0.090 HD
ATOM     21  H   LIG d   1       1.776  92.987 119.746  0.00  0.00    -0.090 HD
ENDBRANCH   5  18
BRANCH   3  22
ATOM     22  C   LIG d   1      -2.144  89.429 118.647  0.00  0.00     0.382 C 
ATOM     23  O   LIG d   1      -2.342  89.241 119.872  0.00  0.00    -0.241 OA
ATOM     24  O   LIG d   1      -3.031  89.122 117.828  0.00  0.00    -0.241 OA
ENDBRANCH   3  22
TORSDOF 7
ENDMDL
MODEL 7
REMARK VINA RESULT:      -4.4      5.449      7.059
REMARK  7 active torsions:
REMARK  status: ('A' for Active; 'I' for Inactive)
REMARK    1  A    between atoms: C_2  and  C_3 
REMARK    2  A    between atoms: C_3  and  O_6 
REMARK    3  A    between atoms: C_3  and  C_4 
REMARK    4  A    between atoms: C_7  and  O_6 
REMARK    5  A    between atoms: C_9  and  C_10 
REMARK    6  A    between atoms: N_15  and  C_14 
REMARK    7  A    between atoms: N_20  and  C_19 
REMARK       I    between atoms: C_22  and  N_20 
ROOT
ATOM      1  C   LIG d   1       2.760  89.773 116.283  0.00  0.00     0.161 C 
ATOM      2  C   LIG d   1       2.186  88.587 115.796  0.00  0.00     0.016 C 
ATOM      3  C   LIG d   1       0.991  88.032 116.310  0.00  0.00     0.038 C 
ATOM      4  C   LIG d   1       0.204  88.711 117.252  0.00  0.00     0.028 C 
ATOM      5  C   LIG d   1       1.002  89.664 118.134  0.00  0.00    -0.047 C 
ATOM      6  C   LIG d   1       1.856  90.586 117.234  0.00  0.00     0.091 C 
ENDROOT
BRANCH   1   7
ATOM      7  O   LIG d   1       3.194  90.594 115.180  0.00  0.00    -0.368 OA
BRANCH   7   8
ATOM      8  C   LIG d   1       4.625  90.676 114.971  0.00  0.00     0.119 C 
BRANCH   8   9
ATOM      9  C   LIG d   1       4.948  89.905 113.676  0.00  0.00     0.028 C 
ATOM     10  C   LIG d   1       5.501  88.497 113.954  0.00  0.00     0.006 C 
ENDBRANCH   8   9
BRANCH   8  11
ATOM     11  C   LIG d   1       5.392  89.947 116.079  0.00  0.00     0.028 C 
ATOM     12  C   LIG d   1       6.167  90.906 116.996  0.00  0.00     0.006 C 
ENDBRANCH   8  11
ENDBRANCH   7   8
ENDBRANCH   1   7
BRANCH   6  13
ATOM     13  N   LIG d   1       2.732  91.494 118.020  0.00  0.00    -0.311 N 
ATOM     14  C   LIG d   1       2.933  92.772 117.705  0.00  0.00     0.210 C 
ATOM     15  C   LIG d   1       3.888  93.525 118.637  0.00  0.00     0.109 C 
ATOM     16  O   LIG d   1       2.386  93.363 116.762  0.00  0.00    -0.276 OA
ATOM     17  H   LIG d   1       3.191  91.104 118.820  0.00  0.00     0.149 HD
ENDBRANCH   6  13
BRANCH   5  18
ATOM     18  N   LIG d   1       0.041  90.405 118.973  0.00  0.00     0.381 N 
ATOM     19  H   LIG d   1       0.498  91.183 119.405  0.00  0.00    -0.090 HD
ATOM     20  H   LIG d   1      -0.295  89.796 119.698  0.00  0.00    -0.090 HD
ATOM     21  H   LIG d   1      -0.721  90.725 118.418  0.00  0.00    -0.090 HD
ENDBRANCH   5  18
BRANCH   3  22
ATOM     22  C   LIG d   1       0.594  86.765 115.911  0.00  0.00     0.382 C 
ATOM     23  O   LIG d   1       1.154  85.751 116.394  0.00  0.00    -0.241 OA
ATOM     24  O   LIG d   1      -0.285  86.624 115.040  0.00  0.00    -0.241 OA
ENDBRANCH   3  22
TORSDOF 7
ENDMDL
MODEL 8
REMARK VINA RESULT:      -4.4      4.425      8.228
REMARK  7 active torsions:
REMARK  status: ('A' for Active; 'I' for Inactive)
REMARK    1  A    between atoms: C_2  and  C_3 
REMARK    2  A    between atoms: C_3  and  O_6 
REMARK    3  A    between atoms: C_3  and  C_4 
REMARK    4  A    between atoms: C_7  and  O_6 
REMARK    5  A    between atoms: C_9  and  C_10 
REMARK    6  A    between atoms: N_15  and  C_14 
REMARK    7  A    between atoms: N_20  and  C_19 
REMARK       I    between atoms: C_22  and  N_20 
ROOT
ATOM      1  C   LIG d   1       1.488  90.217 117.195  0.00  0.00     0.161 C 
ATOM      2  C   LIG d   1       2.217  91.398 117.411  0.00  0.00     0.016 C 
ATOM      3  C   LIG d   1       3.486  91.645 116.840  0.00  0.00     0.038 C 
ATOM      4  C   LIG d   1       4.049  90.785 115.885  0.00  0.00     0.028 C 
ATOM      5  C   LIG d   1       3.581  89.340 116.020  0.00  0.00    -0.047 C 
ATOM      6  C   LIG d   1       2.036  89.316 116.068  0.00  0.00     0.091 C 
ENDROOT
BRANCH   1   7
ATOM      7  O   LIG d   1       0.103  90.535 116.953  0.00  0.00    -0.368 OA
BRANCH   7   8
ATOM      8  C   LIG d   1      -0.754  90.582 118.120  0.00  0.00     0.119 C 
BRANCH   8   9
ATOM      9  C   LIG d   1      -1.791  89.451 117.978  0.00  0.00     0.028 C 
ATOM     10  C   LIG d   1      -3.193  89.981 117.632  0.00  0.00     0.006 C 
ENDBRANCH   8   9
BRANCH   8  11
ATOM     11  C   LIG d   1      -1.569  91.878 118.162  0.00  0.00     0.028 C 
ATOM     12  C   LIG d   1      -1.070  92.861 119.232  0.00  0.00     0.006 C 
ENDBRANCH   8  11
ENDBRANCH   7   8
ENDBRANCH   1   7
BRANCH   6  13
ATOM     13  N   LIG d   1       1.496  87.948 116.284  0.00  0.00    -0.311 N 
ATOM     14  C   LIG d   1       1.173  87.123 115.290  0.00  0.00     0.210 C 
ATOM     15  C   LIG d   1       0.616  85.766 115.732  0.00  0.00     0.109 C 
ATOM     16  O   LIG d   1       1.325  87.373 114.085  0.00  0.00    -0.276 OA
ATOM     17  H   LIG d   1       1.370  87.652 117.232  0.00  0.00     0.149 HD
ENDBRANCH   6  13
BRANCH   5  18
ATOM     18  N   LIG d   1       4.135  88.583 114.882  0.00  0.00     0.381 N 
ATOM     19  H   LIG d   1       4.673  89.193 114.299  0.00  0.00    -0.090 HD
ATOM     20  H   LIG d   1       3.376  88.214 114.336  0.00  0.00    -0.090 HD
ATOM     21  H   LIG d   1       4.708  87.839 115.214  0.00  0.00    -0.090 HD
ENDBRANCH   5  18
BRANCH   3  22
ATOM     22  C   LIG d   1       4.225  92.743 117.253  0.00  0.00     0.382 C 
ATOM     23  O   LIG d   1       3.861  93.900 116.931  0.00  0.00    -0.241 OA
ATOM     24  O   LIG d   1       5.273  92.590 117.907  0.00  0.00    -0.241 OA
ENDBRANCH   3  22
TORSDOF 7
ENDMDL
MODEL 9
REMARK VINA RESULT:      -4.4      3.545      5.593
REMARK  7 active torsions:
REMARK  status: ('A' for Active; 'I' for Inactive)
REMARK    1  A    between atoms: C_2  and  C_3 
REMARK    2  A    between atoms: C_3  and  O_6 
REMARK    3  A    between atoms: C_3  and  C_4 
REMARK    4  A    between atoms: C_7  and  O_6 
REMARK    5  A    between atoms: C_9  and  C_10 
REMARK    6  A    between atoms: N_15  and  C_14 
REMARK    7  A    between atoms: N_20  and  C_19 
REMARK       I    between atoms: C_22  and  N_20 
ROOT
ATOM      1  C   LIG d   1       0.873  90.311 117.356  0.00  0.00     0.161 C 
ATOM      2  C   LIG d   1      -0.479  89.958 117.502  0.00  0.00     0.016 C 
ATOM      3  C   LIG d   1      -1.370  90.631 118.369  0.00  0.00     0.038 C 
ATOM      4  C   LIG d   1      -1.004  91.807 119.041  0.00  0.00     0.028 C 
ATOM      5  C   LIG d   1       0.493  91.907 119.315  0.00  0.00    -0.047 C 
ATOM      6  C   LIG d   1       1.262  91.659 117.997  0.00  0.00     0.091 C 
ENDROOT
BRANCH   1   7
ATOM      7  O   LIG d   1       1.234  90.297 115.961  0.00  0.00    -0.368 OA
BRANCH   7   8
ATOM      8  C   LIG d   1       2.178  89.274 115.557  0.00  0.00     0.119 C 
BRANCH   8   9
ATOM      9  C   LIG d   1       2.569  88.481 116.819  0.00  0.00     0.028 C 
ATOM     10  C   LIG d   1       4.089  88.459 117.051  0.00  0.00     0.006 C 
ENDBRANCH   8   9
BRANCH   8  11
ATOM     11  C   LIG d   1       3.484  89.892 115.046  0.00  0.00     0.028 C 
ATOM     12  C   LIG d   1       3.655  89.748 113.525  0.00  0.00     0.006 C 
ENDBRANCH   8  11
ENDBRANCH   7   8
ENDBRANCH   1   7
BRANCH   6  13
ATOM     13  N   LIG d   1       2.735  91.656 118.192  0.00  0.00    -0.311 N 
ATOM     14  C   LIG d   1       3.567  92.443 117.511  0.00  0.00     0.210 C 
ATOM     15  C   LIG d   1       5.050  92.266 117.853  0.00  0.00     0.109 C 
ATOM     16  O   LIG d   1       3.215  93.292 116.679  0.00  0.00    -0.276 OA
ATOM     17  H   LIG d   1       3.104  91.019 118.871  0.00  0.00     0.149 HD
ENDBRANCH   6  13
BRANCH   5  18
ATOM     18  N   LIG d   1       0.752  93.238 119.894  0.00  0.00     0.381 N 
ATOM     19  H   LIG d   1       1.704  93.297 120.196  0.00  0.00    -0.090 HD
ATOM     20  H   LIG d   1       0.159  93.365 120.695  0.00  0.00    -0.090 HD
ATOM     21  H   LIG d   1       0.566  93.946 119.218  0.00  0.00    -0.090 HD
ENDBRANCH   5  18
BRANCH   3  22
ATOM     22  C   LIG d   1      -2.631  90.105 118.601  0.00  0.00     0.382 C 
ATOM     23  O   LIG d   1      -2.960  89.011 118.081  0.00  0.00    -0.241 OA
ATOM     24  O   LIG d   1      -3.460  90.731 119.288  0.00  0.00    -0.241 OA
ENDBRANCH   3  22
TORSDOF 7
ENDMDL
