MODEL 1
REMARK VINA RESULT:      -5.4      0.000      0.000
REMARK  7 active torsions:
REMARK  status: ('A' for Active; 'I' for Inactive)
REMARK    1  A    between atoms: C_2  and  C_3 
REMARK    2  A    between atoms: C_3  and  O_6 
REMARK    3  A    between atoms: C_3  and  C_4 
REMARK    4  A    between atoms: C_7  and  O_6 
REMARK    5  A    between atoms: C_9  and  C_10 
REMARK    6  A    between atoms: N_15  and  C_14 
REMARK    7  A    between atoms: N_20  and  C_19 
REMARK       I    between atoms: C_22  and  N_20 
ROOT
ATOM      1  C   LIG d   1      -6.606  91.317 117.741  0.00  0.00     0.161 C 
ATOM      2  C   LIG d   1      -7.396  92.446 117.468  0.00  0.00     0.016 C 
ATOM      3  C   LIG d   1      -6.899  93.769 117.498  0.00  0.00     0.038 C 
ATOM      4  C   LIG d   1      -5.533  94.045 117.657  0.00  0.00     0.028 C 
ATOM      5  C   LIG d   1      -4.784  92.969 118.437  0.00  0.00    -0.047 C 
ATOM      6  C   LIG d   1      -5.088  91.590 117.807  0.00  0.00     0.091 C 
ENDROOT
BRANCH   1   7
ATOM      7  O   LIG d   1      -6.887  90.280 116.781  0.00  0.00    -0.368 OA
BRANCH   7   8
ATOM      8  C   LIG d   1      -7.554  90.700 115.566  0.00  0.00     0.119 C 
BRANCH   8   9
ATOM      9  C   LIG d   1      -8.343  89.490 115.028  0.00  0.00     0.028 C 
ATOM     10  C   LIG d   1      -9.022  88.687 116.151  0.00  0.00     0.006 C 
ENDBRANCH   8   9
BRANCH   8  11
ATOM     11  C   LIG d   1      -6.545  91.047 114.467  0.00  0.00     0.028 C 
ATOM     12  C   LIG d   1      -6.909  92.333 113.708  0.00  0.00     0.006 C 
ENDBRANCH   8  11
ENDBRANCH   7   8
ENDBRANCH   1   7
BRANCH   6  13
ATOM     13  N   LIG d   1      -4.463  90.473 118.561  0.00  0.00    -0.311 N 
ATOM     14  C   LIG d   1      -3.324  89.888 118.194  0.00  0.00     0.210 C 
ATOM     15  C   LIG d   1      -2.864  88.742 119.101  0.00  0.00     0.109 C 
ATOM     16  O   LIG d   1      -2.634  90.230 117.222  0.00  0.00    -0.276 OA
ATOM     17  H   LIG d   1      -4.939  90.152 119.381  0.00  0.00     0.149 HD
ENDBRANCH   6  13
BRANCH   5  18
ATOM     18  N   LIG d   1      -3.351  93.314 118.408  0.00  0.00     0.381 N 
ATOM     19  H   LIG d   1      -2.816  92.517 118.127  0.00  0.00    -0.090 HD
ATOM     20  H   LIG d   1      -3.061  93.577 119.334  0.00  0.00    -0.090 HD
ATOM     21  H   LIG d   1      -3.194  94.068 117.776  0.00  0.00    -0.090 HD
ENDBRANCH   5  18
BRANCH   3  22
ATOM     22  C   LIG d   1      -7.780  94.836 117.408  0.00  0.00     0.382 C 
ATOM     23  O   LIG d   1      -7.401  95.990 117.722  0.00  0.00    -0.241 OA
ATOM     24  O   LIG d   1      -8.961  94.652 117.058  0.00  0.00    -0.241 OA
ENDBRANCH   3  22
TORSDOF 7
ENDMDL
MODEL 2
REMARK VINA RESULT:      -5.4      2.253      4.799
REMARK  7 active torsions:
REMARK  status: ('A' for Active; 'I' for Inactive)
REMARK    1  A    between atoms: C_2  and  C_3 
REMARK    2  A    between atoms: C_3  and  O_6 
REMARK    3  A    between atoms: C_3  and  C_4 
REMARK    4  A    between atoms: C_7  and  O_6 
REMARK    5  A    between atoms: C_9  and  C_10 
REMARK    6  A    between atoms: N_15  and  C_14 
REMARK    7  A    between atoms: N_20  and  C_19 
REMARK       I    between atoms: C_22  and  N_20 
ROOT
ATOM      1  C   LIG d   1      -6.228  91.728 117.978  0.00  0.00     0.161 C 
ATOM      2  C   LIG d   1      -6.609  90.983 116.849  0.00  0.00     0.016 C 
ATOM      3  C   LIG d   1      -7.110  91.568 115.663  0.00  0.00     0.038 C 
ATOM      4  C   LIG d   1      -7.122  92.958 115.470  0.00  0.00     0.028 C 
ATOM      5  C   LIG d   1      -7.220  93.749 116.770  0.00  0.00    -0.047 C 
ATOM      6  C   LIG d   1      -6.129  93.250 117.745  0.00  0.00     0.091 C 
ENDROOT
BRANCH   1   7
ATOM      7  O   LIG d   1      -4.985  91.219 118.501  0.00  0.00    -0.368 OA
BRANCH   7   8
ATOM      8  C   LIG d   1      -3.829  91.348 117.637  0.00  0.00     0.119 C 
BRANCH   8   9
ATOM      9  C   LIG d   1      -3.229  89.941 117.454  0.00  0.00     0.028 C 
ATOM     10  C   LIG d   1      -3.084  89.187 118.787  0.00  0.00     0.006 C 
ENDBRANCH   8   9
BRANCH   8  11
ATOM     11  C   LIG d   1      -2.725  92.176 118.302  0.00  0.00     0.028 C 
ATOM     12  C   LIG d   1      -2.355  93.432 117.496  0.00  0.00     0.006 C 
ENDBRANCH   8  11
ENDBRANCH   7   8
ENDBRANCH   1   7
BRANCH   6  13
ATOM     13  N   LIG d   1      -6.209  93.914 119.072  0.00  0.00    -0.311 N 
ATOM     14  C   LIG d   1      -5.531  95.017 119.382  0.00  0.00     0.210 C 
ATOM     15  C   LIG d   1      -5.741  95.526 120.812  0.00  0.00     0.109 C 
ATOM     16  O   LIG d   1      -4.801  95.642 118.598  0.00  0.00    -0.276 OA
ATOM     17  H   LIG d   1      -6.803  93.491 119.759  0.00  0.00     0.149 HD
ENDBRANCH   6  13
BRANCH   5  18
ATOM     18  N   LIG d   1      -7.084  95.179 116.433  0.00  0.00     0.381 N 
ATOM     19  H   LIG d   1      -6.190  95.513 116.732  0.00  0.00    -0.090 HD
ATOM     20  H   LIG d   1      -7.794  95.697 116.921  0.00  0.00    -0.090 HD
ATOM     21  H   LIG d   1      -7.184  95.308 115.450  0.00  0.00    -0.090 HD
ENDBRANCH   5  18
BRANCH   3  22
ATOM     22  C   LIG d   1      -7.643  90.761 114.671  0.00  0.00     0.382 C 
ATOM     23  O   LIG d   1      -8.471  91.234 113.855  0.00  0.00    -0.241 OA
ATOM     24  O   LIG d   1      -7.342  89.554 114.608  0.00  0.00    -0.241 OA
ENDBRANCH   3  22
TORSDOF 7
ENDMDL
MODEL 3
REMARK VINA RESULT:      -5.3      2.038      4.601
REMARK  7 active torsions:
REMARK  status: ('A' for Active; 'I' for Inactive)
REMARK    1  A    between atoms: C_2  and  C_3 
REMARK    2  A    between atoms: C_3  and  O_6 
REMARK    3  A    between atoms: C_3  and  C_4 
REMARK    4  A    between atoms: C_7  and  O_6 
REMARK    5  A    between atoms: C_9  and  C_10 
REMARK    6  A    between atoms: N_15  and  C_14 
REMARK    7  A    between atoms: N_20  and  C_19 
REMARK       I    between atoms: C_22  and  N_20 
ROOT
ATOM      1  C   LIG d   1      -5.972  93.155 116.493  0.00  0.00     0.161 C 
ATOM      2  C   LIG d   1      -7.018  92.394 115.946  0.00  0.00     0.016 C 
ATOM      3  C   LIG d   1      -6.916  91.010 115.676  0.00  0.00     0.038 C 
ATOM      4  C   LIG d   1      -5.804  90.257 116.080  0.00  0.00     0.028 C 
ATOM      5  C   LIG d   1      -4.521  91.075 116.179  0.00  0.00    -0.047 C 
ATOM      6  C   LIG d   1      -4.790  92.328 117.043  0.00  0.00     0.091 C 
ENDROOT
BRANCH   1   7
ATOM      7  O   LIG d   1      -6.487  94.032 117.514  0.00  0.00    -0.368 OA
BRANCH   7   8
ATOM      8  C   LIG d   1      -7.911  93.945 117.770  0.00  0.00     0.119 C 
BRANCH   8   9
ATOM      9  C   LIG d   1      -8.506  95.350 117.555  0.00  0.00     0.028 C 
ATOM     10  C   LIG d   1      -7.423  96.416 117.321  0.00  0.00     0.006 C 
ENDBRANCH   8   9
BRANCH   8  11
ATOM     11  C   LIG d   1      -8.194  93.604 119.236  0.00  0.00     0.028 C 
ATOM     12  C   LIG d   1      -7.331  92.443 119.755  0.00  0.00     0.006 C 
ENDBRANCH   8  11
ENDBRANCH   7   8
ENDBRANCH   1   7
BRANCH   6  13
ATOM     13  N   LIG d   1      -3.610  93.228 117.121  0.00  0.00    -0.311 N 
ATOM     14  C   LIG d   1      -2.732  93.200 118.122  0.00  0.00     0.210 C 
ATOM     15  C   LIG d   1      -1.599  94.225 118.017  0.00  0.00     0.109 C 
ATOM     16  O   LIG d   1      -2.766  92.401 119.070  0.00  0.00    -0.276 OA
ATOM     17  H   LIG d   1      -3.488  93.886 116.377  0.00  0.00     0.149 HD
ENDBRANCH   6  13
BRANCH   5  18
ATOM     18  N   LIG d   1      -3.475  90.199 116.741  0.00  0.00     0.381 N 
ATOM     19  H   LIG d   1      -3.454  89.333 116.240  0.00  0.00    -0.090 HD
ATOM     20  H   LIG d   1      -3.697  90.003 117.701  0.00  0.00    -0.090 HD
ATOM     21  H   LIG d   1      -2.587  90.647 116.682  0.00  0.00    -0.090 HD
ENDBRANCH   5  18
BRANCH   3  22
ATOM     22  C   LIG d   1      -7.918  90.374 114.960  0.00  0.00     0.382 C 
ATOM     23  O   LIG d   1      -8.546  90.997 114.071  0.00  0.00    -0.241 OA
ATOM     24  O   LIG d   1      -8.232  89.197 115.223  0.00  0.00    -0.241 OA
ENDBRANCH   3  22
TORSDOF 7
ENDMDL
MODEL 4
REMARK VINA RESULT:      -5.3      2.353      4.732
REMARK  7 active torsions:
REMARK  status: ('A' for Active; 'I' for Inactive)
REMARK    1  A    between atoms: C_2  and  C_3 
REMARK    2  A    between atoms: C_3  and  O_6 
REMARK    3  A    between atoms: C_3  and  C_4 
REMARK    4  A    between atoms: C_7  and  O_6 
REMARK    5  A    between atoms: C_9  and  C_10 
REMARK    6  A    between atoms: N_15  and  C_14 
REMARK    7  A    between atoms: N_20  and  C_19 
REMARK       I    between atoms: C_22  and  N_20 
ROOT
ATOM      1  C   LIG d   1      -4.330  90.923 117.097  0.00  0.00     0.161 C 
ATOM      2  C   LIG d   1      -5.193  90.453 116.093  0.00  0.00     0.016 C 
ATOM      3  C   LIG d   1      -6.143  91.270 115.438  0.00  0.00     0.038 C 
ATOM      4  C   LIG d   1      -6.190  92.658 115.637  0.00  0.00     0.028 C 
ATOM      5  C   LIG d   1      -5.681  93.090 117.008  0.00  0.00    -0.047 C 
ATOM      6  C   LIG d   1      -4.291  92.458 117.249  0.00  0.00     0.091 C 
ENDROOT
BRANCH   1   7
ATOM      7  O   LIG d   1      -3.002  90.407 116.880  0.00  0.00    -0.368 OA
BRANCH   7   8
ATOM      8  C   LIG d   1      -2.683  89.165 117.555  0.00  0.00     0.119 C 
BRANCH   8   9
ATOM      9  C   LIG d   1      -3.181  89.287 119.009  0.00  0.00     0.028 C 
ATOM     10  C   LIG d   1      -2.915  88.013 119.829  0.00  0.00     0.006 C 
ENDBRANCH   8   9
BRANCH   8  11
ATOM     11  C   LIG d   1      -1.169  88.962 117.661  0.00  0.00     0.028 C 
ATOM     12  C   LIG d   1      -0.388  90.286 117.659  0.00  0.00     0.006 C 
ENDBRANCH   8  11
ENDBRANCH   7   8
ENDBRANCH   1   7
BRANCH   6  13
ATOM     13  N   LIG d   1      -3.757  92.762 118.602  0.00  0.00    -0.311 N 
ATOM     14  C   LIG d   1      -2.556  93.297 118.813  0.00  0.00     0.210 C 
ATOM     15  C   LIG d   1      -2.193  93.511 120.286  0.00  0.00     0.109 C 
ATOM     16  O   LIG d   1      -1.770  93.645 117.919  0.00  0.00    -0.276 OA
ATOM     17  H   LIG d   1      -4.342  92.540 119.384  0.00  0.00     0.149 HD
ENDBRANCH   6  13
BRANCH   5  18
ATOM     18  N   LIG d   1      -5.656  94.565 117.029  0.00  0.00     0.381 N 
ATOM     19  H   LIG d   1      -5.874  94.921 116.120  0.00  0.00    -0.090 HD
ATOM     20  H   LIG d   1      -4.731  94.871 117.275  0.00  0.00    -0.090 HD
ATOM     21  H   LIG d   1      -6.315  94.907 117.694  0.00  0.00    -0.090 HD
ENDBRANCH   5  18
BRANCH   3  22
ATOM     22  C   LIG d   1      -7.085  90.692 114.601  0.00  0.00     0.382 C 
ATOM     23  O   LIG d   1      -6.952  89.500 114.234  0.00  0.00    -0.241 OA
ATOM     24  O   LIG d   1      -8.044  91.362 114.171  0.00  0.00    -0.241 OA
ENDBRANCH   3  22
TORSDOF 7
ENDMDL
MODEL 5
REMARK VINA RESULT:      -5.1      2.072      4.541
REMARK  7 active torsions:
REMARK  status: ('A' for Active; 'I' for Inactive)
REMARK    1  A    between atoms: C_2  and  C_3 
REMARK    2  A    between atoms: C_3  and  O_6 
REMARK    3  A    between atoms: C_3  and  C_4 
REMARK    4  A    between atoms: C_7  and  O_6 
REMARK    5  A    between atoms: C_9  and  C_10 
REMARK    6  A    between atoms: N_15  and  C_14 
REMARK    7  A    between atoms: N_20  and  C_19 
REMARK       I    between atoms: C_22  and  N_20 
ROOT
ATOM      1  C   LIG d   1      -5.869  93.140 116.556  0.00  0.00     0.161 C 
ATOM      2  C   LIG d   1      -6.930  92.405 116.002  0.00  0.00     0.016 C 
ATOM      3  C   LIG d   1      -6.851  91.025 115.707  0.00  0.00     0.038 C 
ATOM      4  C   LIG d   1      -5.747  90.247 116.090  0.00  0.00     0.028 C 
ATOM      5  C   LIG d   1      -4.452  91.045 116.195  0.00  0.00    -0.047 C 
ATOM      6  C   LIG d   1      -4.697  92.286 117.083  0.00  0.00     0.091 C 
ENDROOT
BRANCH   1   7
ATOM      7  O   LIG d   1      -6.365  94.006 117.596  0.00  0.00    -0.368 OA
BRANCH   7   8
ATOM      8  C   LIG d   1      -6.557  93.395 118.896  0.00  0.00     0.119 C 
BRANCH   8   9
ATOM      9  C   LIG d   1      -8.063  93.455 119.217  0.00  0.00     0.028 C 
ATOM     10  C   LIG d   1      -8.770  94.620 118.503  0.00  0.00     0.006 C 
ENDBRANCH   8   9
BRANCH   8  11
ATOM     11  C   LIG d   1      -5.874  94.208 120.000  0.00  0.00     0.028 C 
ATOM     12  C   LIG d   1      -5.214  95.492 119.473  0.00  0.00     0.006 C 
ENDBRANCH   8  11
ENDBRANCH   7   8
ENDBRANCH   1   7
BRANCH   6  13
ATOM     13  N   LIG d   1      -3.502  93.166 117.169  0.00  0.00    -0.311 N 
ATOM     14  C   LIG d   1      -2.648  93.145 118.190  0.00  0.00     0.210 C 
ATOM     15  C   LIG d   1      -1.495  94.148 118.090  0.00  0.00     0.109 C 
ATOM     16  O   LIG d   1      -2.718  92.367 119.154  0.00  0.00    -0.276 OA
ATOM     17  H   LIG d   1      -3.352  93.806 116.414  0.00  0.00     0.149 HD
ENDBRANCH   6  13
BRANCH   5  18
ATOM     18  N   LIG d   1      -3.416  90.143 116.734  0.00  0.00     0.381 N 
ATOM     19  H   LIG d   1      -2.578  90.228 116.193  0.00  0.00    -0.090 HD
ATOM     20  H   LIG d   1      -3.742  89.195 116.664  0.00  0.00    -0.090 HD
ATOM     21  H   LIG d   1      -3.229  90.369 117.686  0.00  0.00    -0.090 HD
ENDBRANCH   5  18
BRANCH   3  22
ATOM     22  C   LIG d   1      -7.867  90.416 114.987  0.00  0.00     0.382 C 
ATOM     23  O   LIG d   1      -8.491  91.064 114.112  0.00  0.00    -0.241 OA
ATOM     24  O   LIG d   1      -8.198  89.240 115.231  0.00  0.00    -0.241 OA
ENDBRANCH   3  22
TORSDOF 7
ENDMDL
MODEL 6
REMARK VINA RESULT:      -5.0      2.248      4.757
REMARK  7 active torsions:
REMARK  status: ('A' for Active; 'I' for Inactive)
REMARK    1  A    between atoms: C_2  and  C_3 
REMARK    2  A    between atoms: C_3  and  O_6 
REMARK    3  A    between atoms: C_3  and  C_4 
REMARK    4  A    between atoms: C_7  and  O_6 
REMARK    5  A    between atoms: C_9  and  C_10 
REMARK    6  A    between atoms: N_15  and  C_14 
REMARK    7  A    between atoms: N_20  and  C_19 
REMARK       I    between atoms: C_22  and  N_20 
ROOT
ATOM      1  C   LIG d   1      -6.804  92.430 118.037  0.00  0.00     0.161 C 
ATOM      2  C   LIG d   1      -5.805  93.285 118.530  0.00  0.00     0.016 C 
ATOM      3  C   LIG d   1      -4.439  93.168 118.185  0.00  0.00     0.038 C 
ATOM      4  C   LIG d   1      -3.999  92.274 117.197  0.00  0.00     0.028 C 
ATOM      5  C   LIG d   1      -4.896  91.051 117.043  0.00  0.00    -0.047 C 
ATOM      6  C   LIG d   1      -6.359  91.520 116.872  0.00  0.00     0.091 C 
ENDROOT
BRANCH   1   7
ATOM      7  O   LIG d   1      -7.962  93.199 117.657  0.00  0.00    -0.368 OA
BRANCH   7   8
ATOM      8  C   LIG d   1      -8.215  94.396 118.433  0.00  0.00     0.119 C 
BRANCH   8   9
ATOM      9  C   LIG d   1      -9.345  94.071 119.429  0.00  0.00     0.028 C 
ATOM     10  C   LIG d   1      -9.010  94.516 120.863  0.00  0.00     0.006 C 
ENDBRANCH   8   9
BRANCH   8  11
ATOM     11  C   LIG d   1      -8.762  95.525 117.554  0.00  0.00     0.028 C 
ATOM     12  C   LIG d   1      -7.956  96.827 117.688  0.00  0.00     0.006 C 
ENDBRANCH   8  11
ENDBRANCH   7   8
ENDBRANCH   1   7
BRANCH   6  13
ATOM     13  N   LIG d   1      -7.314  90.384 116.799  0.00  0.00    -0.311 N 
ATOM     14  C   LIG d   1      -7.957  90.037 115.686  0.00  0.00     0.210 C 
ATOM     15  C   LIG d   1      -8.911  88.848 115.833  0.00  0.00     0.109 C 
ATOM     16  O   LIG d   1      -7.804  90.581 114.582  0.00  0.00    -0.276 OA
ATOM     17  H   LIG d   1      -7.474  89.867 117.642  0.00  0.00     0.149 HD
ENDBRANCH   6  13
BRANCH   5  18
ATOM     18  N   LIG d   1      -4.399  90.276 115.890  0.00  0.00     0.381 N 
ATOM     19  H   LIG d   1      -3.783  90.842 115.342  0.00  0.00    -0.090 HD
ATOM     20  H   LIG d   1      -5.180  90.012 115.315  0.00  0.00    -0.090 HD
ATOM     21  H   LIG d   1      -3.920  89.462 116.208  0.00  0.00    -0.090 HD
ENDBRANCH   5  18
BRANCH   3  22
ATOM     22  C   LIG d   1      -3.492  93.923 118.860  0.00  0.00     0.382 C 
ATOM     23  O   LIG d   1      -2.864  93.424 119.825  0.00  0.00    -0.241 OA
ATOM     24  O   LIG d   1      -3.290  95.111 118.545  0.00  0.00    -0.241 OA
ENDBRANCH   3  22
TORSDOF 7
ENDMDL
MODEL 7
REMARK VINA RESULT:      -4.8      2.337      2.943
REMARK  7 active torsions:
REMARK  status: ('A' for Active; 'I' for Inactive)
REMARK    1  A    between atoms: C_2  and  C_3 
REMARK    2  A    between atoms: C_3  and  O_6 
REMARK    3  A    between atoms: C_3  and  C_4 
REMARK    4  A    between atoms: C_7  and  O_6 
REMARK    5  A    between atoms: C_9  and  C_10 
REMARK    6  A    between atoms: N_15  and  C_14 
REMARK    7  A    between atoms: N_20  and  C_19 
REMARK       I    between atoms: C_22  and  N_20 
ROOT
ATOM      1  C   LIG d   1      -6.269  92.415 118.202  0.00  0.00     0.161 C 
ATOM      2  C   LIG d   1      -7.638  92.602 118.452  0.00  0.00     0.016 C 
ATOM      3  C   LIG d   1      -8.139  93.563 119.361  0.00  0.00     0.038 C 
ATOM      4  C   LIG d   1      -7.305  94.511 119.971  0.00  0.00     0.028 C 
ATOM      5  C   LIG d   1      -5.866  94.035 120.136  0.00  0.00    -0.047 C 
ATOM      6  C   LIG d   1      -5.350  93.514 118.774  0.00  0.00     0.091 C 
ENDROOT
BRANCH   1   7
ATOM      7  O   LIG d   1      -6.048  92.264 116.785  0.00  0.00    -0.368 OA
BRANCH   7   8
ATOM      8  C   LIG d   1      -6.496  91.018 116.199  0.00  0.00     0.119 C 
BRANCH   8   9
ATOM      9  C   LIG d   1      -5.262  90.317 115.599  0.00  0.00     0.028 C 
ATOM     10  C   LIG d   1      -4.135  90.130 116.629  0.00  0.00     0.006 C 
ENDBRANCH   8   9
BRANCH   8  11
ATOM     11  C   LIG d   1      -7.436  91.266 115.015  0.00  0.00     0.028 C 
ATOM     12  C   LIG d   1      -7.122  92.571 114.268  0.00  0.00     0.006 C 
ENDBRANCH   8  11
ENDBRANCH   7   8
ENDBRANCH   1   7
BRANCH   6  13
ATOM     13  N   LIG d   1      -3.978  92.952 118.865  0.00  0.00    -0.311 N 
ATOM     14  C   LIG d   1      -2.969  93.351 118.093  0.00  0.00     0.210 C 
ATOM     15  C   LIG d   1      -1.642  92.627 118.337  0.00  0.00     0.109 C 
ATOM     16  O   LIG d   1      -3.039  94.260 117.251  0.00  0.00    -0.276 OA
ATOM     17  H   LIG d   1      -3.824  92.231 119.544  0.00  0.00     0.149 HD
ENDBRANCH   6  13
BRANCH   5  18
ATOM     18  N   LIG d   1      -5.078  95.169 120.656  0.00  0.00     0.381 N 
ATOM     19  H   LIG d   1      -4.740  95.724 119.896  0.00  0.00    -0.090 HD
ATOM     20  H   LIG d   1      -4.287  94.810 121.162  0.00  0.00    -0.090 HD
ATOM     21  H   LIG d   1      -5.642  95.727 121.260  0.00  0.00    -0.090 HD
ENDBRANCH   5  18
BRANCH   3  22
ATOM     22  C   LIG d   1      -9.484  93.555 119.697  0.00  0.00     0.382 C 
ATOM     23  O   LIG d   1     -10.232  94.487 119.312  0.00  0.00    -0.241 OA
ATOM     24  O   LIG d   1      -9.951  92.652 120.417  0.00  0.00    -0.241 OA
ENDBRANCH   3  22
TORSDOF 7
ENDMDL
MODEL 8
REMARK VINA RESULT:      -4.8      2.427      4.854
REMARK  7 active torsions:
REMARK  status: ('A' for Active; 'I' for Inactive)
REMARK    1  A    between atoms: C_2  and  C_3 
REMARK    2  A    between atoms: C_3  and  O_6 
REMARK    3  A    between atoms: C_3  and  C_4 
REMARK    4  A    between atoms: C_7  and  O_6 
REMARK    5  A    between atoms: C_9  and  C_10 
REMARK    6  A    between atoms: N_15  and  C_14 
REMARK    7  A    between atoms: N_20  and  C_19 
REMARK       I    between atoms: C_22  and  N_20 
ROOT
ATOM      1  C   LIG d   1      -3.631  93.140 117.227  0.00  0.00     0.161 C 
ATOM      2  C   LIG d   1      -3.455  94.352 117.914  0.00  0.00     0.016 C 
ATOM      3  C   LIG d   1      -4.516  95.237 118.216  0.00  0.00     0.038 C 
ATOM      4  C   LIG d   1      -5.856  94.894 117.982  0.00  0.00     0.028 C 
ATOM      5  C   LIG d   1      -6.037  93.905 116.835  0.00  0.00    -0.047 C 
ATOM      6  C   LIG d   1      -5.100  92.697 117.062  0.00  0.00     0.091 C 
ENDROOT
BRANCH   1   7
ATOM      7  O   LIG d   1      -2.863  92.100 117.865  0.00  0.00    -0.368 OA
BRANCH   7   8
ATOM      8  C   LIG d   1      -3.473  91.477 119.022  0.00  0.00     0.119 C 
BRANCH   8   9
ATOM      9  C   LIG d   1      -2.562  91.756 120.233  0.00  0.00     0.028 C 
ATOM     10  C   LIG d   1      -1.096  91.983 119.825  0.00  0.00     0.006 C 
ENDBRANCH   8   9
BRANCH   8  11
ATOM     11  C   LIG d   1      -3.503  89.952 118.881  0.00  0.00     0.028 C 
ATOM     12  C   LIG d   1      -2.791  89.456 117.613  0.00  0.00     0.006 C 
ENDBRANCH   8  11
ENDBRANCH   7   8
ENDBRANCH   1   7
BRANCH   6  13
ATOM     13  N   LIG d   1      -5.152  91.721 115.942  0.00  0.00    -0.311 N 
ATOM     14  C   LIG d   1      -5.885  90.609 115.973  0.00  0.00     0.210 C 
ATOM     15  C   LIG d   1      -5.780  89.731 114.722  0.00  0.00     0.109 C 
ATOM     16  O   LIG d   1      -6.636  90.283 116.904  0.00  0.00    -0.276 OA
ATOM     17  H   LIG d   1      -4.597  91.924 115.134  0.00  0.00     0.149 HD
ENDBRANCH   6  13
BRANCH   5  18
ATOM     18  N   LIG d   1      -7.463  93.530 116.791  0.00  0.00     0.381 N 
ATOM     19  H   LIG d   1      -7.550  92.535 116.746  0.00  0.00    -0.090 HD
ATOM     20  H   LIG d   1      -7.876  93.921 115.963  0.00  0.00    -0.090 HD
ATOM     21  H   LIG d   1      -7.932  93.876 117.600  0.00  0.00    -0.090 HD
ENDBRANCH   5  18
BRANCH   3  22
ATOM     22  C   LIG d   1      -4.237  96.497 118.723  0.00  0.00     0.382 C 
ATOM     23  O   LIG d   1      -3.529  97.295 118.063  0.00  0.00    -0.241 OA
ATOM     24  O   LIG d   1      -4.648  96.830 119.851  0.00  0.00    -0.241 OA
ENDBRANCH   3  22
TORSDOF 7
ENDMDL
MODEL 9
REMARK VINA RESULT:      -4.7      1.843      5.008
REMARK  7 active torsions:
REMARK  status: ('A' for Active; 'I' for Inactive)
REMARK    1  A    between atoms: C_2  and  C_3 
REMARK    2  A    between atoms: C_3  and  O_6 
REMARK    3  A    between atoms: C_3  and  C_4 
REMARK    4  A    between atoms: C_7  and  O_6 
REMARK    5  A    between atoms: C_9  and  C_10 
REMARK    6  A    between atoms: N_15  and  C_14 
REMARK    7  A    between atoms: N_20  and  C_19 
REMARK       I    between atoms: C_22  and  N_20 
ROOT
ATOM      1  C   LIG d   1      -4.910  93.053 116.816  0.00  0.00     0.161 C 
ATOM      2  C   LIG d   1      -4.272  91.848 117.154  0.00  0.00     0.016 C 
ATOM      3  C   LIG d   1      -3.997  91.460 118.485  0.00  0.00     0.038 C 
ATOM      4  C   LIG d   1      -4.481  92.185 119.584  0.00  0.00     0.028 C 
ATOM      5  C   LIG d   1      -4.691  93.666 119.287  0.00  0.00    -0.047 C 
ATOM      6  C   LIG d   1      -5.544  93.805 118.005  0.00  0.00     0.091 C 
ENDROOT
BRANCH   1   7
ATOM      7  O   LIG d   1      -5.895  92.814 115.792  0.00  0.00    -0.368 OA
BRANCH   7   8
ATOM      8  C   LIG d   1      -6.203  91.425 115.515  0.00  0.00     0.119 C 
BRANCH   8   9
ATOM      9  C   LIG d   1      -6.590  91.325 114.027  0.00  0.00     0.028 C 
ATOM     10  C   LIG d   1      -7.466  92.503 113.568  0.00  0.00     0.006 C 
ENDBRANCH   8   9
BRANCH   8  11
ATOM     11  C   LIG d   1      -7.441  90.963 116.289  0.00  0.00     0.028 C 
ATOM     12  C   LIG d   1      -7.989  89.618 115.787  0.00  0.00     0.006 C 
ENDBRANCH   8  11
ENDBRANCH   7   8
ENDBRANCH   1   7
BRANCH   6  13
ATOM     13  N   LIG d   1      -5.727  95.222 117.597  0.00  0.00    -0.311 N 
ATOM     14  C   LIG d   1      -6.765  95.965 117.973  0.00  0.00     0.210 C 
ATOM     15  C   LIG d   1      -6.770  97.395 117.423  0.00  0.00     0.109 C 
ATOM     16  O   LIG d   1      -7.666  95.587 118.737  0.00  0.00    -0.276 OA
ATOM     17  H   LIG d   1      -5.026  95.619 117.002  0.00  0.00     0.149 HD
ENDBRANCH   6  13
BRANCH   5  18
ATOM     18  N   LIG d   1      -5.326  94.272 120.473  0.00  0.00     0.381 N 
ATOM     19  H   LIG d   1      -5.210  95.265 120.448  0.00  0.00    -0.090 HD
ATOM     20  H   LIG d   1      -4.874  93.921 121.299  0.00  0.00    -0.090 HD
ATOM     21  H   LIG d   1      -6.296  94.045 120.494  0.00  0.00    -0.090 HD
ENDBRANCH   5  18
BRANCH   3  22
ATOM     22  C   LIG d   1      -3.196  90.354 118.727  0.00  0.00     0.382 C 
ATOM     23  O   LIG d   1      -2.005  90.510 119.091  0.00  0.00    -0.241 OA
ATOM     24  O   LIG d   1      -3.635  89.203 118.542  0.00  0.00    -0.241 OA
ENDBRANCH   3  22
TORSDOF 7
ENDMDL
