MODEL 1
REMARK VINA RESULT:      -5.6      0.000      0.000
REMARK  7 active torsions:
REMARK  status: ('A' for Active; 'I' for Inactive)
REMARK    1  A    between atoms: C_2  and  C_3 
REMARK    2  A    between atoms: C_3  and  O_6 
REMARK    3  A    between atoms: C_3  and  C_4 
REMARK    4  A    between atoms: C_7  and  O_6 
REMARK    5  A    between atoms: C_9  and  C_10 
REMARK    6  A    between atoms: N_15  and  C_14 
REMARK    7  A    between atoms: N_20  and  C_19 
REMARK       I    between atoms: C_22  and  N_20 
ROOT
ATOM      1  C   LIG d   1      -6.079  93.626 118.187  0.00  0.00     0.161 C 
ATOM      2  C   LIG d   1      -6.737  92.831 117.233  0.00  0.00     0.016 C 
ATOM      3  C   LIG d   1      -6.081  91.853 116.451  0.00  0.00     0.038 C 
ATOM      4  C   LIG d   1      -4.743  91.496 116.677  0.00  0.00     0.028 C 
ATOM      5  C   LIG d   1      -3.911  92.621 117.283  0.00  0.00    -0.047 C 
ATOM      6  C   LIG d   1      -4.644  93.175 118.526  0.00  0.00     0.091 C 
ENDROOT
BRANCH   1   7
ATOM      7  O   LIG d   1      -6.875  93.709 119.386  0.00  0.00    -0.368 OA
BRANCH   7   8
ATOM      8  C   LIG d   1      -7.564  94.964 119.607  0.00  0.00     0.119 C 
BRANCH   8   9
ATOM      9  C   LIG d   1      -9.039  94.759 119.210  0.00  0.00     0.028 C 
ATOM     10  C   LIG d   1      -9.975  94.717 120.429  0.00  0.00     0.006 C 
ENDBRANCH   8   9
BRANCH   8  11
ATOM     11  C   LIG d   1      -7.041  96.060 118.674  0.00  0.00     0.028 C 
ATOM     12  C   LIG d   1      -8.122  97.084 118.291  0.00  0.00     0.006 C 
ENDBRANCH   8  11
ENDBRANCH   7   8
ENDBRANCH   1   7
BRANCH   6  13
ATOM     13  N   LIG d   1      -3.938  94.335 119.130  0.00  0.00    -0.311 N 
ATOM     14  C   LIG d   1      -3.057  94.222 120.123  0.00  0.00     0.210 C 
ATOM     15  C   LIG d   1      -2.461  95.545 120.612  0.00  0.00     0.109 C 
ATOM     16  O   LIG d   1      -2.689  93.148 120.623  0.00  0.00    -0.276 OA
ATOM     17  H   LIG d   1      -4.154  95.241 118.764  0.00  0.00     0.149 HD
ENDBRANCH   6  13
BRANCH   5  18
ATOM     18  N   LIG d   1      -2.578  92.072 117.594  0.00  0.00     0.381 N 
ATOM     19  H   LIG d   1      -2.335  91.371 116.922  0.00  0.00    -0.090 HD
ATOM     20  H   LIG d   1      -2.607  91.641 118.501  0.00  0.00    -0.090 HD
ATOM     21  H   LIG d   1      -1.898  92.800 117.586  0.00  0.00    -0.090 HD
ENDBRANCH   5  18
BRANCH   3  22
ATOM     22  C   LIG d   1      -6.755  91.248 115.401  0.00  0.00     0.382 C 
ATOM     23  O   LIG d   1      -7.504  90.265 115.620  0.00  0.00    -0.241 OA
ATOM     24  O   LIG d   1      -6.589  91.644 114.232  0.00  0.00    -0.241 OA
ENDBRANCH   3  22
TORSDOF 7
ENDMDL
MODEL 2
REMARK VINA RESULT:      -5.1      2.385      4.474
REMARK  7 active torsions:
REMARK  status: ('A' for Active; 'I' for Inactive)
REMARK    1  A    between atoms: C_2  and  C_3 
REMARK    2  A    between atoms: C_3  and  O_6 
REMARK    3  A    between atoms: C_3  and  C_4 
REMARK    4  A    between atoms: C_7  and  O_6 
REMARK    5  A    between atoms: C_9  and  C_10 
REMARK    6  A    between atoms: N_15  and  C_14 
REMARK    7  A    between atoms: N_20  and  C_19 
REMARK       I    between atoms: C_22  and  N_20 
ROOT
ATOM      1  C   LIG d   1      -5.080  92.845 119.715  0.00  0.00     0.161 C 
ATOM      2  C   LIG d   1      -3.990  92.128 119.196  0.00  0.00     0.016 C 
ATOM      3  C   LIG d   1      -3.907  91.707 117.848  0.00  0.00     0.038 C 
ATOM      4  C   LIG d   1      -4.845  92.109 116.886  0.00  0.00     0.028 C 
ATOM      5  C   LIG d   1      -6.221  92.409 117.471  0.00  0.00    -0.047 C 
ATOM      6  C   LIG d   1      -6.061  93.389 118.655  0.00  0.00     0.091 C 
ENDROOT
BRANCH   1   7
ATOM      7  O   LIG d   1      -4.605  93.917 120.554  0.00  0.00    -0.368 OA
BRANCH   7   8
ATOM      8  C   LIG d   1      -4.196  95.127 119.871  0.00  0.00     0.119 C 
BRANCH   8   9
ATOM      9  C   LIG d   1      -2.671  95.264 120.044  0.00  0.00     0.028 C 
ATOM     10  C   LIG d   1      -1.917  95.154 118.708  0.00  0.00     0.006 C 
ENDBRANCH   8   9
BRANCH   8  11
ATOM     11  C   LIG d   1      -4.793  96.371 120.537  0.00  0.00     0.028 C 
ATOM     12  C   LIG d   1      -5.249  97.430 119.521  0.00  0.00     0.006 C 
ENDBRANCH   8  11
ENDBRANCH   7   8
ENDBRANCH   1   7
BRANCH   6  13
ATOM     13  N   LIG d   1      -7.351  93.670 119.337  0.00  0.00    -0.311 N 
ATOM     14  C   LIG d   1      -8.099  94.741 119.079  0.00  0.00     0.210 C 
ATOM     15  C   LIG d   1      -9.382  94.849 119.910  0.00  0.00     0.109 C 
ATOM     16  O   LIG d   1      -7.838  95.595 118.219  0.00  0.00    -0.276 OA
ATOM     17  H   LIG d   1      -7.654  93.012 120.028  0.00  0.00     0.149 HD
ENDBRANCH   6  13
BRANCH   5  18
ATOM     18  N   LIG d   1      -7.059  92.948 116.383  0.00  0.00     0.381 N 
ATOM     19  H   LIG d   1      -7.479  92.196 115.874  0.00  0.00    -0.090 HD
ATOM     20  H   LIG d   1      -6.477  93.469 115.752  0.00  0.00    -0.090 HD
ATOM     21  H   LIG d   1      -7.767  93.540 116.759  0.00  0.00    -0.090 HD
ENDBRANCH   5  18
BRANCH   3  22
ATOM     22  C   LIG d   1      -2.896  90.840 117.461  0.00  0.00     0.382 C 
ATOM     23  O   LIG d   1      -3.175  89.668 117.111  0.00  0.00    -0.241 OA
ATOM     24  O   LIG d   1      -1.705  91.202 117.498  0.00  0.00    -0.241 OA
ENDBRANCH   3  22
TORSDOF 7
ENDMDL
MODEL 3
REMARK VINA RESULT:      -5.1      2.474      4.685
REMARK  7 active torsions:
REMARK  status: ('A' for Active; 'I' for Inactive)
REMARK    1  A    between atoms: C_2  and  C_3 
REMARK    2  A    between atoms: C_3  and  O_6 
REMARK    3  A    between atoms: C_3  and  C_4 
REMARK    4  A    between atoms: C_7  and  O_6 
REMARK    5  A    between atoms: C_9  and  C_10 
REMARK    6  A    between atoms: N_15  and  C_14 
REMARK    7  A    between atoms: N_20  and  C_19 
REMARK       I    between atoms: C_22  and  N_20 
ROOT
ATOM      1  C   LIG d   1      -4.130  91.770 117.492  0.00  0.00     0.161 C 
ATOM      2  C   LIG d   1      -4.706  91.051 116.432  0.00  0.00     0.016 C 
ATOM      3  C   LIG d   1      -5.923  91.419 115.813  0.00  0.00     0.038 C 
ATOM      4  C   LIG d   1      -6.573  92.625 116.115  0.00  0.00     0.028 C 
ATOM      5  C   LIG d   1      -6.294  93.127 117.528  0.00  0.00    -0.047 C 
ATOM      6  C   LIG d   1      -4.766  93.149 117.760  0.00  0.00     0.091 C 
ENDROOT
BRANCH   1   7
ATOM      7  O   LIG d   1      -2.711  91.906 117.275  0.00  0.00    -0.368 OA
BRANCH   7   8
ATOM      8  C   LIG d   1      -1.863  90.986 118.006  0.00  0.00     0.119 C 
BRANCH   8   9
ATOM      9  C   LIG d   1      -2.736  90.301 119.075  0.00  0.00     0.028 C 
ATOM     10  C   LIG d   1      -2.373  88.819 119.268  0.00  0.00     0.006 C 
ENDBRANCH   8   9
BRANCH   8  11
ATOM     11  C   LIG d   1      -0.776  91.731 118.786  0.00  0.00     0.028 C 
ATOM     12  C   LIG d   1      -0.152  92.885 117.986  0.00  0.00     0.006 C 
ENDBRANCH   8  11
ENDBRANCH   7   8
ENDBRANCH   1   7
BRANCH   6  13
ATOM     13  N   LIG d   1      -4.410  93.548 119.147  0.00  0.00    -0.311 N 
ATOM     14  C   LIG d   1      -3.430  94.403 119.435  0.00  0.00     0.210 C 
ATOM     15  C   LIG d   1      -3.216  94.660 120.930  0.00  0.00     0.109 C 
ATOM     16  O   LIG d   1      -2.740  94.997 118.593  0.00  0.00    -0.276 OA
ATOM     17  H   LIG d   1      -4.940  93.137 119.890  0.00  0.00     0.149 HD
ENDBRANCH   6  13
BRANCH   5  18
ATOM     18  N   LIG d   1      -6.919  94.456 117.660  0.00  0.00     0.381 N 
ATOM     19  H   LIG d   1      -6.903  94.928 116.778  0.00  0.00    -0.090 HD
ATOM     20  H   LIG d   1      -6.390  95.000 118.318  0.00  0.00    -0.090 HD
ATOM     21  H   LIG d   1      -7.859  94.361 117.977  0.00  0.00    -0.090 HD
ENDBRANCH   5  18
BRANCH   3  22
ATOM     22  C   LIG d   1      -6.523  90.556 114.909  0.00  0.00     0.382 C 
ATOM     23  O   LIG d   1      -5.865  89.609 114.415  0.00  0.00    -0.241 OA
ATOM     24  O   LIG d   1      -7.701  90.739 114.547  0.00  0.00    -0.241 OA
ENDBRANCH   3  22
TORSDOF 7
ENDMDL
MODEL 4
REMARK VINA RESULT:      -4.8      1.972      4.722
REMARK  7 active torsions:
REMARK  status: ('A' for Active; 'I' for Inactive)
REMARK    1  A    between atoms: C_2  and  C_3 
REMARK    2  A    between atoms: C_3  and  O_6 
REMARK    3  A    between atoms: C_3  and  C_4 
REMARK    4  A    between atoms: C_7  and  O_6 
REMARK    5  A    between atoms: C_9  and  C_10 
REMARK    6  A    between atoms: N_15  and  C_14 
REMARK    7  A    between atoms: N_20  and  C_19 
REMARK       I    between atoms: C_22  and  N_20 
ROOT
ATOM      1  C   LIG d   1      -5.851  92.990 119.150  0.00  0.00     0.161 C 
ATOM      2  C   LIG d   1      -7.116  93.541 118.885  0.00  0.00     0.016 C 
ATOM      3  C   LIG d   1      -7.359  94.932 118.810  0.00  0.00     0.038 C 
ATOM      4  C   LIG d   1      -6.316  95.869 118.847  0.00  0.00     0.028 C 
ATOM      5  C   LIG d   1      -5.092  95.385 119.617  0.00  0.00    -0.047 C 
ATOM      6  C   LIG d   1      -4.681  93.994 119.082  0.00  0.00     0.091 C 
ENDROOT
BRANCH   1   7
ATOM      7  O   LIG d   1      -5.608  91.877 118.267  0.00  0.00    -0.368 OA
BRANCH   7   8
ATOM      8  C   LIG d   1      -4.996  92.196 116.993  0.00  0.00     0.119 C 
BRANCH   8   9
ATOM      9  C   LIG d   1      -6.119  92.244 115.939  0.00  0.00     0.028 C 
ATOM     10  C   LIG d   1      -6.120  91.008 115.025  0.00  0.00     0.006 C 
ENDBRANCH   8   9
BRANCH   8  11
ATOM     11  C   LIG d   1      -4.055  91.079 116.532  0.00  0.00     0.028 C 
ATOM     12  C   LIG d   1      -3.261  90.452 117.690  0.00  0.00     0.006 C 
ENDBRANCH   8  11
ENDBRANCH   7   8
ENDBRANCH   1   7
BRANCH   6  13
ATOM     13  N   LIG d   1      -3.543  93.410 119.838  0.00  0.00    -0.311 N 
ATOM     14  C   LIG d   1      -2.274  93.505 119.443  0.00  0.00     0.210 C 
ATOM     15  C   LIG d   1      -1.258  92.815 120.359  0.00  0.00     0.109 C 
ATOM     16  O   LIG d   1      -1.891  94.123 118.439  0.00  0.00    -0.276 OA
ATOM     17  H   LIG d   1      -3.761  92.917 120.682  0.00  0.00     0.149 HD
ENDBRANCH   6  13
BRANCH   5  18
ATOM     18  N   LIG d   1      -4.035  96.401 119.458  0.00  0.00     0.381 N 
ATOM     19  H   LIG d   1      -3.876  96.864 120.330  0.00  0.00    -0.090 HD
ATOM     20  H   LIG d   1      -4.339  97.085 118.788  0.00  0.00    -0.090 HD
ATOM     21  H   LIG d   1      -3.193  95.970 119.144  0.00  0.00    -0.090 HD
ENDBRANCH   5  18
BRANCH   3  22
ATOM     22  C   LIG d   1      -8.662  95.399 118.738  0.00  0.00     0.382 C 
ATOM     23  O   LIG d   1      -8.883  96.595 118.429  0.00  0.00    -0.241 OA
ATOM     24  O   LIG d   1      -9.618  94.651 119.020  0.00  0.00    -0.241 OA
ENDBRANCH   3  22
TORSDOF 7
ENDMDL
MODEL 5
REMARK VINA RESULT:      -4.6      3.705      7.492
REMARK  7 active torsions:
REMARK  status: ('A' for Active; 'I' for Inactive)
REMARK    1  A    between atoms: C_2  and  C_3 
REMARK    2  A    between atoms: C_3  and  O_6 
REMARK    3  A    between atoms: C_3  and  C_4 
REMARK    4  A    between atoms: C_7  and  O_6 
REMARK    5  A    between atoms: C_9  and  C_10 
REMARK    6  A    between atoms: N_15  and  C_14 
REMARK    7  A    between atoms: N_20  and  C_19 
REMARK       I    between atoms: C_22  and  N_20 
ROOT
ATOM      1  C   LIG d   1      -1.260  91.640 117.596  0.00  0.00     0.161 C 
ATOM      2  C   LIG d   1      -0.066  92.025 118.228  0.00  0.00     0.016 C 
ATOM      3  C   LIG d   1       0.049  93.178 119.038  0.00  0.00     0.038 C 
ATOM      4  C   LIG d   1      -1.068  93.947 119.396  0.00  0.00     0.028 C 
ATOM      5  C   LIG d   1      -2.199  93.885 118.374  0.00  0.00    -0.047 C 
ATOM      6  C   LIG d   1      -2.516  92.404 118.065  0.00  0.00     0.091 C 
ENDROOT
BRANCH   1   7
ATOM      7  O   LIG d   1      -1.454  90.219 117.744  0.00  0.00    -0.368 OA
BRANCH   7   8
ATOM      8  C   LIG d   1      -1.470  89.715 119.102  0.00  0.00     0.119 C 
BRANCH   8   9
ATOM      9  C   LIG d   1      -0.404  88.606 119.197  0.00  0.00     0.028 C 
ATOM     10  C   LIG d   1       0.143  88.200 117.818  0.00  0.00     0.006 C 
ENDBRANCH   8   9
BRANCH   8  11
ATOM     11  C   LIG d   1      -2.800  89.029 119.427  0.00  0.00     0.028 C 
ATOM     12  C   LIG d   1      -2.633  87.817 120.357  0.00  0.00     0.006 C 
ENDBRANCH   8  11
ENDBRANCH   7   8
ENDBRANCH   1   7
BRANCH   6  13
ATOM     13  N   LIG d   1      -3.553  92.254 117.012  0.00  0.00    -0.311 N 
ATOM     14  C   LIG d   1      -4.852  92.123 117.275  0.00  0.00     0.210 C 
ATOM     15  C   LIG d   1      -5.749  91.961 116.044  0.00  0.00     0.109 C 
ATOM     16  O   LIG d   1      -5.350  92.158 118.411  0.00  0.00    -0.276 OA
ATOM     17  H   LIG d   1      -3.240  92.247 116.061  0.00  0.00     0.149 HD
ENDBRANCH   6  13
BRANCH   5  18
ATOM     18  N   LIG d   1      -3.349  94.618 118.937  0.00  0.00     0.381 N 
ATOM     19  H   LIG d   1      -3.873  94.014 119.538  0.00  0.00    -0.090 HD
ATOM     20  H   LIG d   1      -3.948  94.911 118.185  0.00  0.00    -0.090 HD
ATOM     21  H   LIG d   1      -3.031  95.412 119.447  0.00  0.00    -0.090 HD
ENDBRANCH   5  18
BRANCH   3  22
ATOM     22  C   LIG d   1       1.300  93.595 119.466  0.00  0.00     0.382 C 
ATOM     23  O   LIG d   1       2.334  93.095 118.962  0.00  0.00    -0.241 OA
ATOM     24  O   LIG d   1       1.407  94.434 120.381  0.00  0.00    -0.241 OA
ENDBRANCH   3  22
TORSDOF 7
ENDMDL
MODEL 6
REMARK VINA RESULT:      -4.4      2.183      4.689
REMARK  7 active torsions:
REMARK  status: ('A' for Active; 'I' for Inactive)
REMARK    1  A    between atoms: C_2  and  C_3 
REMARK    2  A    between atoms: C_3  and  O_6 
REMARK    3  A    between atoms: C_3  and  C_4 
REMARK    4  A    between atoms: C_7  and  O_6 
REMARK    5  A    between atoms: C_9  and  C_10 
REMARK    6  A    between atoms: N_15  and  C_14 
REMARK    7  A    between atoms: N_20  and  C_19 
REMARK       I    between atoms: C_22  and  N_20 
ROOT
ATOM      1  C   LIG d   1      -4.779  92.732 117.939  0.00  0.00     0.161 C 
ATOM      2  C   LIG d   1      -5.002  91.738 116.972  0.00  0.00     0.016 C 
ATOM      3  C   LIG d   1      -6.209  91.615 116.247  0.00  0.00     0.038 C 
ATOM      4  C   LIG d   1      -7.227  92.577 116.332  0.00  0.00     0.028 C 
ATOM      5  C   LIG d   1      -7.251  93.316 117.666  0.00  0.00    -0.047 C 
ATOM      6  C   LIG d   1      -5.834  93.857 117.966  0.00  0.00     0.091 C 
ENDROOT
BRANCH   1   7
ATOM      7  O   LIG d   1      -3.459  93.288 117.773  0.00  0.00    -0.368 OA
BRANCH   7   8
ATOM      8  C   LIG d   1      -2.626  93.316 118.958  0.00  0.00     0.119 C 
BRANCH   8   9
ATOM      9  C   LIG d   1      -1.193  93.664 118.509  0.00  0.00     0.028 C 
ATOM     10  C   LIG d   1      -1.162  94.813 117.487  0.00  0.00     0.006 C 
ENDBRANCH   8   9
BRANCH   8  11
ATOM     11  C   LIG d   1      -2.523  91.929 119.600  0.00  0.00     0.028 C 
ATOM     12  C   LIG d   1      -1.558  91.896 120.796  0.00  0.00     0.006 C 
ENDBRANCH   8  11
ENDBRANCH   7   8
ENDBRANCH   1   7
BRANCH   6  13
ATOM     13  N   LIG d   1      -5.750  94.521 119.293  0.00  0.00    -0.311 N 
ATOM     14  C   LIG d   1      -6.029  95.809 119.488  0.00  0.00     0.210 C 
ATOM     15  C   LIG d   1      -5.860  96.296 120.930  0.00  0.00     0.109 C 
ATOM     16  O   LIG d   1      -6.432  96.586 118.609  0.00  0.00    -0.276 OA
ATOM     17  H   LIG d   1      -5.461  93.957 120.068  0.00  0.00     0.149 HD
ENDBRANCH   6  13
BRANCH   5  18
ATOM     18  N   LIG d   1      -8.267  94.381 117.567  0.00  0.00     0.381 N 
ATOM     19  H   LIG d   1      -7.822  95.260 117.397  0.00  0.00    -0.090 HD
ATOM     20  H   LIG d   1      -8.760  94.442 118.441  0.00  0.00    -0.090 HD
ATOM     21  H   LIG d   1      -8.906  94.175 116.831  0.00  0.00    -0.090 HD
ENDBRANCH   5  18
BRANCH   3  22
ATOM     22  C   LIG d   1      -6.424  90.498 115.454  0.00  0.00     0.382 C 
ATOM     23  O   LIG d   1      -5.469  89.983 114.825  0.00  0.00    -0.241 OA
ATOM     24  O   LIG d   1      -7.570  90.026 115.325  0.00  0.00    -0.241 OA
ENDBRANCH   3  22
TORSDOF 7
ENDMDL
MODEL 7
REMARK VINA RESULT:      -4.3      4.113      6.581
REMARK  7 active torsions:
REMARK  status: ('A' for Active; 'I' for Inactive)
REMARK    1  A    between atoms: C_2  and  C_3 
REMARK    2  A    between atoms: C_3  and  O_6 
REMARK    3  A    between atoms: C_3  and  C_4 
REMARK    4  A    between atoms: C_7  and  O_6 
REMARK    5  A    between atoms: C_9  and  C_10 
REMARK    6  A    between atoms: N_15  and  C_14 
REMARK    7  A    between atoms: N_20  and  C_19 
REMARK       I    between atoms: C_22  and  N_20 
ROOT
ATOM      1  C   LIG d   1      -1.689  90.603 118.265  0.00  0.00     0.161 C 
ATOM      2  C   LIG d   1      -2.921  90.565 117.589  0.00  0.00     0.016 C 
ATOM      3  C   LIG d   1      -3.716  91.710 117.357  0.00  0.00     0.038 C 
ATOM      4  C   LIG d   1      -3.260  93.003 117.653  0.00  0.00     0.028 C 
ATOM      5  C   LIG d   1      -2.245  93.041 118.791  0.00  0.00    -0.047 C 
ATOM      6  C   LIG d   1      -1.123  92.020 118.497  0.00  0.00     0.091 C 
ENDROOT
BRANCH   1   7
ATOM      7  O   LIG d   1      -0.726  89.786 117.571  0.00  0.00    -0.368 OA
BRANCH   7   8
ATOM      8  C   LIG d   1      -0.552  88.439 118.075  0.00  0.00     0.119 C 
BRANCH   8   9
ATOM      9  C   LIG d   1      -0.936  88.450 119.567  0.00  0.00     0.028 C 
ATOM     10  C   LIG d   1      -1.790  87.234 119.962  0.00  0.00     0.006 C 
ENDBRANCH   8   9
BRANCH   8  11
ATOM     11  C   LIG d   1       0.919  88.015 118.037  0.00  0.00     0.028 C 
ATOM     12  C   LIG d   1       1.869  89.186 117.741  0.00  0.00     0.006 C 
ENDBRANCH   8  11
ENDBRANCH   7   8
ENDBRANCH   1   7
BRANCH   6  13
ATOM     13  N   LIG d   1      -0.132  91.933 119.601  0.00  0.00    -0.311 N 
ATOM     14  C   LIG d   1       1.014  92.611 119.613  0.00  0.00     0.210 C 
ATOM     15  C   LIG d   1       1.901  92.361 120.837  0.00  0.00     0.109 C 
ATOM     16  O   LIG d   1       1.366  93.420 118.741  0.00  0.00    -0.276 OA
ATOM     17  H   LIG d   1      -0.352  91.323 120.364  0.00  0.00     0.149 HD
ENDBRANCH   6  13
BRANCH   5  18
ATOM     18  N   LIG d   1      -1.752  94.427 118.901  0.00  0.00     0.381 N 
ATOM     19  H   LIG d   1      -0.858  94.504 118.459  0.00  0.00    -0.090 HD
ATOM     20  H   LIG d   1      -1.644  94.657 119.873  0.00  0.00    -0.090 HD
ATOM     21  H   LIG d   1      -2.397  95.054 118.473  0.00  0.00    -0.090 HD
ENDBRANCH   5  18
BRANCH   3  22
ATOM     22  C   LIG d   1      -5.002  91.564 116.858  0.00  0.00     0.382 C 
ATOM     23  O   LIG d   1      -5.968  92.106 117.446  0.00  0.00    -0.241 OA
ATOM     24  O   LIG d   1      -5.213  90.859 115.852  0.00  0.00    -0.241 OA
ENDBRANCH   3  22
TORSDOF 7
ENDMDL
MODEL 8
REMARK VINA RESULT:      -4.3      2.581      4.101
REMARK  7 active torsions:
REMARK  status: ('A' for Active; 'I' for Inactive)
REMARK    1  A    between atoms: C_2  and  C_3 
REMARK    2  A    between atoms: C_3  and  O_6 
REMARK    3  A    between atoms: C_3  and  C_4 
REMARK    4  A    between atoms: C_7  and  O_6 
REMARK    5  A    between atoms: C_9  and  C_10 
REMARK    6  A    between atoms: N_15  and  C_14 
REMARK    7  A    between atoms: N_20  and  C_19 
REMARK       I    between atoms: C_22  and  N_20 
ROOT
ATOM      1  C   LIG d   1      -3.804  92.544 118.157  0.00  0.00     0.161 C 
ATOM      2  C   LIG d   1      -3.421  91.193 118.100  0.00  0.00     0.016 C 
ATOM      3  C   LIG d   1      -2.272  90.683 118.748  0.00  0.00     0.038 C 
ATOM      4  C   LIG d   1      -1.507  91.465 119.626  0.00  0.00     0.028 C 
ATOM      5  C   LIG d   1      -1.564  92.957 119.315  0.00  0.00    -0.047 C 
ATOM      6  C   LIG d   1      -3.044  93.389 119.200  0.00  0.00     0.091 C 
ENDROOT
BRANCH   1   7
ATOM      7  O   LIG d   1      -5.226  92.639 118.374  0.00  0.00    -0.368 OA
BRANCH   7   8
ATOM      8  C   LIG d   1      -6.017  93.061 117.236  0.00  0.00     0.119 C 
BRANCH   8   9
ATOM      9  C   LIG d   1      -7.266  93.780 117.782  0.00  0.00     0.028 C 
ATOM     10  C   LIG d   1      -6.925  94.789 118.890  0.00  0.00     0.006 C 
ENDBRANCH   8   9
BRANCH   8  11
ATOM     11  C   LIG d   1      -6.551  91.858 116.453  0.00  0.00     0.028 C 
ATOM     12  C   LIG d   1      -6.508  92.071 114.931  0.00  0.00     0.006 C 
ENDBRANCH   8  11
ENDBRANCH   7   8
ENDBRANCH   1   7
BRANCH   6  13
ATOM     13  N   LIG d   1      -3.189  94.817 118.815  0.00  0.00    -0.311 N 
ATOM     14  C   LIG d   1      -3.302  95.807 119.699  0.00  0.00     0.210 C 
ATOM     15  C   LIG d   1      -3.462  97.203 119.089  0.00  0.00     0.109 C 
ATOM     16  O   LIG d   1      -3.254  95.665 120.930  0.00  0.00    -0.276 OA
ATOM     17  H   LIG d   1      -3.207  95.025 117.836  0.00  0.00     0.149 HD
ENDBRANCH   6  13
BRANCH   5  18
ATOM     18  N   LIG d   1      -0.837  93.663 120.387  0.00  0.00     0.381 N 
ATOM     19  H   LIG d   1      -0.177  94.299 119.986  0.00  0.00    -0.090 HD
ATOM     20  H   LIG d   1      -0.332  92.990 120.936  0.00  0.00    -0.090 HD
ATOM     21  H   LIG d   1      -1.479  94.160 120.964  0.00  0.00    -0.090 HD
ENDBRANCH   5  18
BRANCH   3  22
ATOM     22  C   LIG d   1      -1.856  89.386 118.487  0.00  0.00     0.382 C 
ATOM     23  O   LIG d   1      -0.994  89.171 117.601  0.00  0.00    -0.241 OA
ATOM     24  O   LIG d   1      -2.363  88.425 119.096  0.00  0.00    -0.241 OA
ENDBRANCH   3  22
TORSDOF 7
ENDMDL
MODEL 9
REMARK VINA RESULT:      -4.3      4.322      7.076
REMARK  7 active torsions:
REMARK  status: ('A' for Active; 'I' for Inactive)
REMARK    1  A    between atoms: C_2  and  C_3 
REMARK    2  A    between atoms: C_3  and  O_6 
REMARK    3  A    between atoms: C_3  and  C_4 
REMARK    4  A    between atoms: C_7  and  O_6 
REMARK    5  A    between atoms: C_9  and  C_10 
REMARK    6  A    between atoms: N_15  and  C_14 
REMARK    7  A    between atoms: N_20  and  C_19 
REMARK       I    between atoms: C_22  and  N_20 
ROOT
ATOM      1  C   LIG d   1      -1.200  91.051 118.379  0.00  0.00     0.161 C 
ATOM      2  C   LIG d   1      -2.406  90.838 117.690  0.00  0.00     0.016 C 
ATOM      3  C   LIG d   1      -3.386  91.842 117.508  0.00  0.00     0.038 C 
ATOM      4  C   LIG d   1      -3.157  93.176 117.873  0.00  0.00     0.028 C 
ATOM      5  C   LIG d   1      -2.165  93.328 119.021  0.00  0.00    -0.047 C 
ATOM      6  C   LIG d   1      -0.884  92.530 118.687  0.00  0.00     0.091 C 
ENDROOT
BRANCH   1   7
ATOM      7  O   LIG d   1      -0.111  90.447 117.654  0.00  0.00    -0.368 OA
BRANCH   7   8
ATOM      8  C   LIG d   1       0.641  89.431 118.363  0.00  0.00     0.119 C 
BRANCH   8   9
ATOM      9  C   LIG d   1       2.075  89.437 117.798  0.00  0.00     0.028 C 
ATOM     10  C   LIG d   1       2.179  88.695 116.456  0.00  0.00     0.006 C 
ENDBRANCH   8   9
BRANCH   8  11
ATOM     11  C   LIG d   1       0.096  88.030 118.072  0.00  0.00     0.028 C 
ATOM     12  C   LIG d   1      -0.636  87.413 119.275  0.00  0.00     0.006 C 
ENDBRANCH   8  11
ENDBRANCH   7   8
ENDBRANCH   1   7
BRANCH   6  13
ATOM     13  N   LIG d   1       0.106  92.556 119.796  0.00  0.00    -0.311 N 
ATOM     14  C   LIG d   1       1.404  92.788 119.614  0.00  0.00     0.210 C 
ATOM     15  C   LIG d   1       2.253  92.751 120.888  0.00  0.00     0.109 C 
ATOM     16  O   LIG d   1       1.929  93.054 118.522  0.00  0.00    -0.276 OA
ATOM     17  H   LIG d   1      -0.239  92.381 120.719  0.00  0.00     0.149 HD
ENDBRANCH   6  13
BRANCH   5  18
ATOM     18  N   LIG d   1      -1.915  94.770 119.207  0.00  0.00     0.381 N 
ATOM     19  H   LIG d   1      -2.578  95.149 119.854  0.00  0.00    -0.090 HD
ATOM     20  H   LIG d   1      -2.034  95.237 118.325  0.00  0.00    -0.090 HD
ATOM     21  H   LIG d   1      -0.989  94.915 119.545  0.00  0.00    -0.090 HD
ENDBRANCH   5  18
BRANCH   3  22
ATOM     22  C   LIG d   1      -4.627  91.504 116.989  0.00  0.00     0.382 C 
ATOM     23  O   LIG d   1      -5.670  91.979 117.500  0.00  0.00    -0.241 OA
ATOM     24  O   LIG d   1      -4.719  90.697 116.045  0.00  0.00    -0.241 OA
ENDBRANCH   3  22
TORSDOF 7
ENDMDL
