MODEL 1
REMARK VINA RESULT:      -5.3      0.000      0.000
REMARK  7 active torsions:
REMARK  status: ('A' for Active; 'I' for Inactive)
REMARK    1  A    between atoms: C_2  and  C_3 
REMARK    2  A    between atoms: C_3  and  O_6 
REMARK    3  A    between atoms: C_3  and  C_4 
REMARK    4  A    between atoms: C_7  and  O_6 
REMARK    5  A    between atoms: C_9  and  C_10 
REMARK    6  A    between atoms: N_15  and  C_14 
REMARK    7  A    between atoms: N_20  and  C_19 
REMARK       I    between atoms: C_22  and  N_20 
ROOT
ATOM      1  C   LIG d   1      -3.780  92.105 117.629  0.00  0.00     0.161 C 
ATOM      2  C   LIG d   1      -4.876  92.204 116.757  0.00  0.00     0.016 C 
ATOM      3  C   LIG d   1      -5.274  91.164 115.886  0.00  0.00     0.038 C 
ATOM      4  C   LIG d   1      -4.690  89.889 115.937  0.00  0.00     0.028 C 
ATOM      5  C   LIG d   1      -3.253  89.902 116.446  0.00  0.00    -0.047 C 
ATOM      6  C   LIG d   1      -3.199  90.683 117.779  0.00  0.00     0.091 C 
ENDROOT
BRANCH   1   7
ATOM      7  O   LIG d   1      -4.132  92.641 118.920  0.00  0.00    -0.368 OA
BRANCH   7   8
ATOM      8  C   LIG d   1      -5.480  93.157 119.049  0.00  0.00     0.119 C 
BRANCH   8   9
ATOM      9  C   LIG d   1      -5.370  94.655 119.392  0.00  0.00     0.028 C 
ATOM     10  C   LIG d   1      -6.429  95.503 118.666  0.00  0.00     0.006 C 
ENDBRANCH   8   9
BRANCH   8  11
ATOM     11  C   LIG d   1      -6.209  92.522 120.237  0.00  0.00     0.028 C 
ATOM     12  C   LIG d   1      -5.379  91.429 120.930  0.00  0.00     0.006 C 
ENDBRANCH   8  11
ENDBRANCH   7   8
ENDBRANCH   1   7
BRANCH   6  13
ATOM     13  N   LIG d   1      -1.815  90.815 118.303  0.00  0.00    -0.311 N 
ATOM     14  C   LIG d   1      -1.430  90.340 119.487  0.00  0.00     0.210 C 
ATOM     15  C   LIG d   1       0.036  90.601 119.843  0.00  0.00     0.109 C 
ATOM     16  O   LIG d   1      -2.156  89.698 120.261  0.00  0.00    -0.276 OA
ATOM     17  H   LIG d   1      -1.152  91.295 117.726  0.00  0.00     0.149 HD
ENDBRANCH   6  13
BRANCH   5  18
ATOM     18  N   LIG d   1      -2.815  88.500 116.580  0.00  0.00     0.381 N 
ATOM     19  H   LIG d   1      -1.882  88.469 116.940  0.00  0.00    -0.090 HD
ATOM     20  H   LIG d   1      -2.817  88.071 115.671  0.00  0.00    -0.090 HD
ATOM     21  H   LIG d   1      -3.430  88.007 117.189  0.00  0.00    -0.090 HD
ENDBRANCH   5  18
BRANCH   3  22
ATOM     22  C   LIG d   1      -6.241  91.407 114.922  0.00  0.00     0.382 C 
ATOM     23  O   LIG d   1      -7.025  90.490 114.576  0.00  0.00    -0.241 OA
ATOM     24  O   LIG d   1      -6.311  92.518 114.363  0.00  0.00    -0.241 OA
ENDBRANCH   3  22
TORSDOF 7
ENDMDL
MODEL 2
REMARK VINA RESULT:      -5.2      1.399      1.625
REMARK  7 active torsions:
REMARK  status: ('A' for Active; 'I' for Inactive)
REMARK    1  A    between atoms: C_2  and  C_3 
REMARK    2  A    between atoms: C_3  and  O_6 
REMARK    3  A    between atoms: C_3  and  C_4 
REMARK    4  A    between atoms: C_7  and  O_6 
REMARK    5  A    between atoms: C_9  and  C_10 
REMARK    6  A    between atoms: N_15  and  C_14 
REMARK    7  A    between atoms: N_20  and  C_19 
REMARK       I    between atoms: C_22  and  N_20 
ROOT
ATOM      1  C   LIG d   1      -4.534  90.981 118.095  0.00  0.00     0.161 C 
ATOM      2  C   LIG d   1      -5.432  91.353 117.081  0.00  0.00     0.016 C 
ATOM      3  C   LIG d   1      -5.481  90.724 115.815  0.00  0.00     0.038 C 
ATOM      4  C   LIG d   1      -4.731  89.574 115.530  0.00  0.00     0.028 C 
ATOM      5  C   LIG d   1      -3.446  89.470 116.345  0.00  0.00    -0.047 C 
ATOM      6  C   LIG d   1      -3.785  89.655 117.841  0.00  0.00     0.091 C 
ENDROOT
BRANCH   1   7
ATOM      7  O   LIG d   1      -5.219  90.934 119.362  0.00  0.00    -0.368 OA
BRANCH   7   8
ATOM      8  C   LIG d   1      -4.928  92.013 120.284  0.00  0.00     0.119 C 
BRANCH   8   9
ATOM      9  C   LIG d   1      -6.133  92.974 120.267  0.00  0.00     0.028 C 
ATOM     10  C   LIG d   1      -5.855  94.249 119.453  0.00  0.00     0.006 C 
ENDBRANCH   8   9
BRANCH   8  11
ATOM     11  C   LIG d   1      -3.736  92.848 119.806  0.00  0.00     0.028 C 
ATOM     12  C   LIG d   1      -2.508  92.711 120.720  0.00  0.00     0.006 C 
ENDBRANCH   8  11
ENDBRANCH   7   8
ENDBRANCH   1   7
BRANCH   6  13
ATOM     13  N   LIG d   1      -2.573  89.652 118.701  0.00  0.00    -0.311 N 
ATOM     14  C   LIG d   1      -2.122  88.566 119.327  0.00  0.00     0.210 C 
ATOM     15  C   LIG d   1      -0.868  88.786 120.180  0.00  0.00     0.109 C 
ATOM     16  O   LIG d   1      -2.622  87.435 119.232  0.00  0.00    -0.276 OA
ATOM     17  H   LIG d   1      -2.088  90.521 118.809  0.00  0.00     0.149 HD
ENDBRANCH   6  13
BRANCH   5  18
ATOM     18  N   LIG d   1      -2.836  88.160 116.048  0.00  0.00     0.381 N 
ATOM     19  H   LIG d   1      -2.009  88.288 115.499  0.00  0.00    -0.090 HD
ATOM     20  H   LIG d   1      -3.487  87.611 115.515  0.00  0.00    -0.090 HD
ATOM     21  H   LIG d   1      -2.609  87.690 116.897  0.00  0.00    -0.090 HD
ENDBRANCH   5  18
BRANCH   3  22
ATOM     22  C   LIG d   1      -6.257  91.272 114.806  0.00  0.00     0.382 C 
ATOM     23  O   LIG d   1      -7.022  90.538 114.135  0.00  0.00    -0.241 OA
ATOM     24  O   LIG d   1      -6.170  92.483 114.528  0.00  0.00    -0.241 OA
ENDBRANCH   3  22
TORSDOF 7
ENDMDL
MODEL 3
REMARK VINA RESULT:      -5.1      2.234      4.632
REMARK  7 active torsions:
REMARK  status: ('A' for Active; 'I' for Inactive)
REMARK    1  A    between atoms: C_2  and  C_3 
REMARK    2  A    between atoms: C_3  and  O_6 
REMARK    3  A    between atoms: C_3  and  C_4 
REMARK    4  A    between atoms: C_7  and  O_6 
REMARK    5  A    between atoms: C_9  and  C_10 
REMARK    6  A    between atoms: N_15  and  C_14 
REMARK    7  A    between atoms: N_20  and  C_19 
REMARK       I    between atoms: C_22  and  N_20 
ROOT
ATOM      1  C   LIG d   1      -3.402  89.980 117.350  0.00  0.00     0.161 C 
ATOM      2  C   LIG d   1      -4.372  89.854 116.341  0.00  0.00     0.016 C 
ATOM      3  C   LIG d   1      -5.246  90.901 115.968  0.00  0.00     0.038 C 
ATOM      4  C   LIG d   1      -5.108  92.200 116.477  0.00  0.00     0.028 C 
ATOM      5  C   LIG d   1      -4.472  92.243 117.863  0.00  0.00    -0.047 C 
ATOM      6  C   LIG d   1      -3.162  91.423 117.840  0.00  0.00     0.091 C 
ENDROOT
BRANCH   1   7
ATOM      7  O   LIG d   1      -2.163  89.386 116.913  0.00  0.00    -0.368 OA
BRANCH   7   8
ATOM      8  C   LIG d   1      -1.970  87.992 117.255  0.00  0.00     0.119 C 
BRANCH   8   9
ATOM      9  C   LIG d   1      -2.299  87.832 118.752  0.00  0.00     0.028 C 
ATOM     10  C   LIG d   1      -1.546  86.655 119.395  0.00  0.00     0.006 C 
ENDBRANCH   8   9
BRANCH   8  11
ATOM     11  C   LIG d   1      -0.500  87.583 117.117  0.00  0.00     0.028 C 
ATOM     12  C   LIG d   1       0.425  88.775 116.822  0.00  0.00     0.006 C 
ENDBRANCH   8  11
ENDBRANCH   7   8
ENDBRANCH   1   7
BRANCH   6  13
ATOM     13  N   LIG d   1      -2.520  91.343 119.178  0.00  0.00    -0.311 N 
ATOM     14  C   LIG d   1      -1.214  91.519 119.376  0.00  0.00     0.210 C 
ATOM     15  C   LIG d   1      -0.756  91.374 120.830  0.00  0.00     0.109 C 
ATOM     16  O   LIG d   1      -0.398  91.813 118.490  0.00  0.00    -0.276 OA
ATOM     17  H   LIG d   1      -3.114  91.139 119.957  0.00  0.00     0.149 HD
ENDBRANCH   6  13
BRANCH   5  18
ATOM     18  N   LIG d   1      -4.262  93.660 118.214  0.00  0.00     0.381 N 
ATOM     19  H   LIG d   1      -4.312  93.775 119.206  0.00  0.00    -0.090 HD
ATOM     20  H   LIG d   1      -4.992  94.210 117.795  0.00  0.00    -0.090 HD
ATOM     21  H   LIG d   1      -3.374  93.965 117.881  0.00  0.00    -0.090 HD
ENDBRANCH   5  18
BRANCH   3  22
ATOM     22  C   LIG d   1      -6.299  90.641 115.103  0.00  0.00     0.382 C 
ATOM     23  O   LIG d   1      -6.589  91.466 114.203  0.00  0.00    -0.241 OA
ATOM     24  O   LIG d   1      -6.989  89.613 115.240  0.00  0.00    -0.241 OA
ENDBRANCH   3  22
TORSDOF 7
ENDMDL
MODEL 4
REMARK VINA RESULT:      -5.1      2.584      4.809
REMARK  7 active torsions:
REMARK  status: ('A' for Active; 'I' for Inactive)
REMARK    1  A    between atoms: C_2  and  C_3 
REMARK    2  A    between atoms: C_3  and  O_6 
REMARK    3  A    between atoms: C_3  and  C_4 
REMARK    4  A    between atoms: C_7  and  O_6 
REMARK    5  A    between atoms: C_9  and  C_10 
REMARK    6  A    between atoms: N_15  and  C_14 
REMARK    7  A    between atoms: N_20  and  C_19 
REMARK       I    between atoms: C_22  and  N_20 
ROOT
ATOM      1  C   LIG d   1      -2.433  90.949 117.772  0.00  0.00     0.161 C 
ATOM      2  C   LIG d   1      -3.303  90.177 116.985  0.00  0.00     0.016 C 
ATOM      3  C   LIG d   1      -4.581  90.621 116.572  0.00  0.00     0.038 C 
ATOM      4  C   LIG d   1      -5.016  91.936 116.794  0.00  0.00     0.028 C 
ATOM      5  C   LIG d   1      -4.380  92.586 118.018  0.00  0.00    -0.047 C 
ATOM      6  C   LIG d   1      -2.845  92.428 117.929  0.00  0.00     0.091 C 
ENDROOT
BRANCH   1   7
ATOM      7  O   LIG d   1      -1.092  90.855 117.253  0.00  0.00    -0.368 OA
BRANCH   7   8
ATOM      8  C   LIG d   1      -0.215  89.915 117.920  0.00  0.00     0.119 C 
BRANCH   8   9
ATOM      9  C   LIG d   1       0.998  90.706 118.446  0.00  0.00     0.028 C 
ATOM     10  C   LIG d   1       1.356  91.899 117.545  0.00  0.00     0.006 C 
ENDBRANCH   8   9
BRANCH   8  11
ATOM     11  C   LIG d   1       0.363  88.895 116.934  0.00  0.00     0.028 C 
ATOM     12  C   LIG d   1      -0.376  87.548 116.969  0.00  0.00     0.006 C 
ENDBRANCH   8  11
ENDBRANCH   7   8
ENDBRANCH   1   7
BRANCH   6  13
ATOM     13  N   LIG d   1      -2.150  92.963 119.129  0.00  0.00    -0.311 N 
ATOM     14  C   LIG d   1      -1.289  93.979 119.086  0.00  0.00     0.210 C 
ATOM     15  C   LIG d   1      -0.670  94.359 120.435  0.00  0.00     0.109 C 
ATOM     16  O   LIG d   1      -1.005  94.622 118.065  0.00  0.00    -0.276 OA
ATOM     17  H   LIG d   1      -2.346  92.520 120.005  0.00  0.00     0.149 HD
ENDBRANCH   6  13
BRANCH   5  18
ATOM     18  N   LIG d   1      -4.815  93.995 118.051  0.00  0.00     0.381 N 
ATOM     19  H   LIG d   1      -4.720  94.358 118.978  0.00  0.00    -0.090 HD
ATOM     20  H   LIG d   1      -5.785  94.042 117.792  0.00  0.00    -0.090 HD
ATOM     21  H   LIG d   1      -4.268  94.536 117.417  0.00  0.00    -0.090 HD
ENDBRANCH   5  18
BRANCH   3  22
ATOM     22  C   LIG d   1      -5.454  89.732 115.965  0.00  0.00     0.382 C 
ATOM     23  O   LIG d   1      -6.494  89.366 116.564  0.00  0.00    -0.241 OA
ATOM     24  O   LIG d   1      -5.193  89.256 114.843  0.00  0.00    -0.241 OA
ENDBRANCH   3  22
TORSDOF 7
ENDMDL
MODEL 5
REMARK VINA RESULT:      -4.8      2.136      4.382
REMARK  7 active torsions:
REMARK  status: ('A' for Active; 'I' for Inactive)
REMARK    1  A    between atoms: C_2  and  C_3 
REMARK    2  A    between atoms: C_3  and  O_6 
REMARK    3  A    between atoms: C_3  and  C_4 
REMARK    4  A    between atoms: C_7  and  O_6 
REMARK    5  A    between atoms: C_9  and  C_10 
REMARK    6  A    between atoms: N_15  and  C_14 
REMARK    7  A    between atoms: N_20  and  C_19 
REMARK       I    between atoms: C_22  and  N_20 
ROOT
ATOM      1  C   LIG d   1      -4.720  90.613 118.288  0.00  0.00     0.161 C 
ATOM      2  C   LIG d   1      -5.438  91.820 118.306  0.00  0.00     0.016 C 
ATOM      3  C   LIG d   1      -4.826  93.088 118.426  0.00  0.00     0.038 C 
ATOM      4  C   LIG d   1      -3.433  93.246 118.384  0.00  0.00     0.028 C 
ATOM      5  C   LIG d   1      -2.669  92.020 118.874  0.00  0.00    -0.047 C 
ATOM      6  C   LIG d   1      -3.193  90.772 118.129  0.00  0.00     0.091 C 
ENDROOT
BRANCH   1   7
ATOM      7  O   LIG d   1      -5.243  89.748 117.261  0.00  0.00    -0.368 OA
BRANCH   7   8
ATOM      8  C   LIG d   1      -4.773  90.001 115.914  0.00  0.00     0.119 C 
BRANCH   8   9
ATOM      9  C   LIG d   1      -6.013  90.150 115.011  0.00  0.00     0.028 C 
ATOM     10  C   LIG d   1      -6.314  91.618 114.665  0.00  0.00     0.006 C 
ENDBRANCH   8   9
BRANCH   8  11
ATOM     11  C   LIG d   1      -4.007  88.797 115.356  0.00  0.00     0.028 C 
ATOM     12  C   LIG d   1      -4.498  88.373 113.963  0.00  0.00     0.006 C 
ENDBRANCH   8  11
ENDBRANCH   7   8
ENDBRANCH   1   7
BRANCH   6  13
ATOM     13  N   LIG d   1      -2.558  89.517 118.609  0.00  0.00    -0.311 N 
ATOM     14  C   LIG d   1      -1.479  88.978 118.043  0.00  0.00     0.210 C 
ATOM     15  C   LIG d   1      -0.998  87.672 118.682  0.00  0.00     0.109 C 
ATOM     16  O   LIG d   1      -0.856  89.475 117.093  0.00  0.00    -0.276 OA
ATOM     17  H   LIG d   1      -2.980  89.064 119.396  0.00  0.00     0.149 HD
ENDBRANCH   6  13
BRANCH   5  18
ATOM     18  N   LIG d   1      -1.233  92.269 118.646  0.00  0.00     0.381 N 
ATOM     19  H   LIG d   1      -0.821  92.656 119.472  0.00  0.00    -0.090 HD
ATOM     20  H   LIG d   1      -1.133  92.937 117.902  0.00  0.00    -0.090 HD
ATOM     21  H   LIG d   1      -0.774  91.419 118.404  0.00  0.00    -0.090 HD
ENDBRANCH   5  18
BRANCH   3  22
ATOM     22  C   LIG d   1      -5.610  94.213 118.631  0.00  0.00     0.382 C 
ATOM     23  O   LIG d   1      -6.605  94.426 117.897  0.00  0.00    -0.241 OA
ATOM     24  O   LIG d   1      -5.310  95.041 119.511  0.00  0.00    -0.241 OA
ENDBRANCH   3  22
TORSDOF 7
ENDMDL
MODEL 6
REMARK VINA RESULT:      -4.8      2.352      4.971
REMARK  7 active torsions:
REMARK  status: ('A' for Active; 'I' for Inactive)
REMARK    1  A    between atoms: C_2  and  C_3 
REMARK    2  A    between atoms: C_3  and  O_6 
REMARK    3  A    between atoms: C_3  and  C_4 
REMARK    4  A    between atoms: C_7  and  O_6 
REMARK    5  A    between atoms: C_9  and  C_10 
REMARK    6  A    between atoms: N_15  and  C_14 
REMARK    7  A    between atoms: N_20  and  C_19 
REMARK       I    between atoms: C_22  and  N_20 
ROOT
ATOM      1  C   LIG d   1      -4.883  92.754 118.089  0.00  0.00     0.161 C 
ATOM      2  C   LIG d   1      -5.973  93.640 118.055  0.00  0.00     0.016 C 
ATOM      3  C   LIG d   1      -5.972  94.899 118.698  0.00  0.00     0.038 C 
ATOM      4  C   LIG d   1      -4.818  95.426 119.295  0.00  0.00     0.028 C 
ATOM      5  C   LIG d   1      -3.850  94.356 119.790  0.00  0.00    -0.047 C 
ATOM      6  C   LIG d   1      -3.576  93.358 118.642  0.00  0.00     0.091 C 
ENDROOT
BRANCH   1   7
ATOM      7  O   LIG d   1      -4.663  92.200 116.776  0.00  0.00    -0.368 OA
BRANCH   7   8
ATOM      8  C   LIG d   1      -5.227  90.887 116.536  0.00  0.00     0.119 C 
BRANCH   8   9
ATOM      9  C   LIG d   1      -4.080  89.864 116.646  0.00  0.00     0.028 C 
ATOM     10  C   LIG d   1      -4.034  88.904 115.445  0.00  0.00     0.006 C 
ENDBRANCH   8   9
BRANCH   8  11
ATOM     11  C   LIG d   1      -5.750  90.759 115.102  0.00  0.00     0.028 C 
ATOM     12  C   LIG d   1      -6.437  92.039 114.602  0.00  0.00     0.006 C 
ENDBRANCH   8  11
ENDBRANCH   7   8
ENDBRANCH   1   7
BRANCH   6  13
ATOM     13  N   LIG d   1      -2.704  92.232 119.066  0.00  0.00    -0.311 N 
ATOM     14  C   LIG d   1      -1.503  91.996 118.540  0.00  0.00     0.210 C 
ATOM     15  C   LIG d   1      -0.779  90.771 119.107  0.00  0.00     0.109 C 
ATOM     16  O   LIG d   1      -0.956  92.703 117.681  0.00  0.00    -0.276 OA
ATOM     17  H   LIG d   1      -3.057  91.626 119.780  0.00  0.00     0.149 HD
ENDBRANCH   6  13
BRANCH   5  18
ATOM     18  N   LIG d   1      -2.632  95.041 120.263  0.00  0.00     0.381 N 
ATOM     19  H   LIG d   1      -2.878  95.747 120.928  0.00  0.00    -0.090 HD
ATOM     20  H   LIG d   1      -2.185  95.486 119.482  0.00  0.00    -0.090 HD
ATOM     21  H   LIG d   1      -2.011  94.383 120.681  0.00  0.00    -0.090 HD
ENDBRANCH   5  18
BRANCH   3  22
ATOM     22  C   LIG d   1      -7.148  95.629 118.781  0.00  0.00     0.382 C 
ATOM     23  O   LIG d   1      -7.122  96.818 119.180  0.00  0.00    -0.241 OA
ATOM     24  O   LIG d   1      -8.241  95.099 118.505  0.00  0.00    -0.241 OA
ENDBRANCH   3  22
TORSDOF 7
ENDMDL
MODEL 7
REMARK VINA RESULT:      -4.6      2.476      4.759
REMARK  7 active torsions:
REMARK  status: ('A' for Active; 'I' for Inactive)
REMARK    1  A    between atoms: C_2  and  C_3 
REMARK    2  A    between atoms: C_3  and  O_6 
REMARK    3  A    between atoms: C_3  and  C_4 
REMARK    4  A    between atoms: C_7  and  O_6 
REMARK    5  A    between atoms: C_9  and  C_10 
REMARK    6  A    between atoms: N_15  and  C_14 
REMARK    7  A    between atoms: N_20  and  C_19 
REMARK       I    between atoms: C_22  and  N_20 
ROOT
ATOM      1  C   LIG d   1      -2.417  90.464 117.673  0.00  0.00     0.161 C 
ATOM      2  C   LIG d   1      -3.528  90.084 116.902  0.00  0.00     0.016 C 
ATOM      3  C   LIG d   1      -4.610  90.948 116.618  0.00  0.00     0.038 C 
ATOM      4  C   LIG d   1      -4.583  92.308 116.961  0.00  0.00     0.028 C 
ATOM      5  C   LIG d   1      -3.712  92.609 118.175  0.00  0.00    -0.047 C 
ATOM      6  C   LIG d   1      -2.317  91.977 117.961  0.00  0.00     0.091 C 
ENDROOT
BRANCH   1   7
ATOM      7  O   LIG d   1      -1.206  89.993 117.050  0.00  0.00    -0.368 OA
BRANCH   7   8
ATOM      8  C   LIG d   1      -0.503  88.933 117.744  0.00  0.00     0.119 C 
BRANCH   8   9
ATOM      9  C   LIG d   1      -0.684  87.642 116.923  0.00  0.00     0.028 C 
ATOM     10  C   LIG d   1       0.545  87.320 116.056  0.00  0.00     0.006 C 
ENDBRANCH   8   9
BRANCH   8  11
ATOM     11  C   LIG d   1      -1.140  88.640 119.105  0.00  0.00     0.028 C 
ATOM     12  C   LIG d   1      -0.181  88.895 120.279  0.00  0.00     0.006 C 
ENDBRANCH   8  11
ENDBRANCH   7   8
ENDBRANCH   1   7
BRANCH   6  13
ATOM     13  N   LIG d   1      -1.429  92.152 119.140  0.00  0.00    -0.311 N 
ATOM     14  C   LIG d   1      -0.193  92.642 119.059  0.00  0.00     0.210 C 
ATOM     15  C   LIG d   1       0.560  92.720 120.392  0.00  0.00     0.109 C 
ATOM     16  O   LIG d   1       0.341  93.048 118.016  0.00  0.00    -0.276 OA
ATOM     17  H   LIG d   1      -1.793  91.877 120.031  0.00  0.00     0.149 HD
ENDBRANCH   6  13
BRANCH   5  18
ATOM     18  N   LIG d   1      -3.663  94.075 118.337  0.00  0.00     0.381 N 
ATOM     19  H   LIG d   1      -4.334  94.504 117.732  0.00  0.00    -0.090 HD
ATOM     20  H   LIG d   1      -2.749  94.400 118.076  0.00  0.00    -0.090 HD
ATOM     21  H   LIG d   1      -3.854  94.320 119.284  0.00  0.00    -0.090 HD
ENDBRANCH   5  18
BRANCH   3  22
ATOM     22  C   LIG d   1      -5.754  90.443 116.018  0.00  0.00     0.382 C 
ATOM     23  O   LIG d   1      -5.973  89.208 116.026  0.00  0.00    -0.241 OA
ATOM     24  O   LIG d   1      -6.547  91.203 115.429  0.00  0.00    -0.241 OA
ENDBRANCH   3  22
TORSDOF 7
ENDMDL
MODEL 8
REMARK VINA RESULT:      -4.6      2.684      4.857
REMARK  7 active torsions:
REMARK  status: ('A' for Active; 'I' for Inactive)
REMARK    1  A    between atoms: C_2  and  C_3 
REMARK    2  A    between atoms: C_3  and  O_6 
REMARK    3  A    between atoms: C_3  and  C_4 
REMARK    4  A    between atoms: C_7  and  O_6 
REMARK    5  A    between atoms: C_9  and  C_10 
REMARK    6  A    between atoms: N_15  and  C_14 
REMARK    7  A    between atoms: N_20  and  C_19 
REMARK       I    between atoms: C_22  and  N_20 
ROOT
ATOM      1  C   LIG d   1      -4.488  93.123 118.332  0.00  0.00     0.161 C 
ATOM      2  C   LIG d   1      -5.756  93.723 118.404  0.00  0.00     0.016 C 
ATOM      3  C   LIG d   1      -5.988  94.984 119.001  0.00  0.00     0.038 C 
ATOM      4  C   LIG d   1      -4.935  95.803 119.435  0.00  0.00     0.028 C 
ATOM      5  C   LIG d   1      -3.689  95.024 119.841  0.00  0.00    -0.047 C 
ATOM      6  C   LIG d   1      -3.312  94.051 118.700  0.00  0.00     0.091 C 
ENDROOT
BRANCH   1   7
ATOM      7  O   LIG d   1      -4.289  92.558 117.021  0.00  0.00    -0.368 OA
BRANCH   7   8
ATOM      8  C   LIG d   1      -4.129  91.119 116.965  0.00  0.00     0.119 C 
BRANCH   8   9
ATOM      9  C   LIG d   1      -5.156  90.579 115.951  0.00  0.00     0.028 C 
ATOM     10  C   LIG d   1      -6.366  89.921 116.634  0.00  0.00     0.006 C 
ENDBRANCH   8   9
BRANCH   8  11
ATOM     11  C   LIG d   1      -4.496  90.465 118.300  0.00  0.00     0.028 C 
ATOM     12  C   LIG d   1      -3.337  89.658 118.906  0.00  0.00     0.006 C 
ENDBRANCH   8  11
ENDBRANCH   7   8
ENDBRANCH   1   7
BRANCH   6  13
ATOM     13  N   LIG d   1      -2.152  93.190 119.050  0.00  0.00    -0.311 N 
ATOM     14  C   LIG d   1      -0.893  93.494 118.738  0.00  0.00     0.210 C 
ATOM     15  C   LIG d   1       0.149  92.459 119.174  0.00  0.00     0.109 C 
ATOM     16  O   LIG d   1      -0.537  94.538 118.171  0.00  0.00    -0.276 OA
ATOM     17  H   LIG d   1      -2.347  92.339 119.539  0.00  0.00     0.149 HD
ENDBRANCH   6  13
BRANCH   5  18
ATOM     18  N   LIG d   1      -2.628  96.005 120.139  0.00  0.00     0.381 N 
ATOM     19  H   LIG d   1      -2.125  95.722 120.957  0.00  0.00    -0.090 HD
ATOM     20  H   LIG d   1      -3.052  96.897 120.322  0.00  0.00    -0.090 HD
ATOM     21  H   LIG d   1      -2.004  96.078 119.365  0.00  0.00    -0.090 HD
ENDBRANCH   5  18
BRANCH   3  22
ATOM     22  C   LIG d   1      -7.288  95.419 119.206  0.00  0.00     0.382 C 
ATOM     23  O   LIG d   1      -8.195  95.082 118.407  0.00  0.00    -0.241 OA
ATOM     24  O   LIG d   1      -7.558  96.180 120.154  0.00  0.00    -0.241 OA
ENDBRANCH   3  22
TORSDOF 7
ENDMDL
MODEL 9
REMARK VINA RESULT:      -4.6      2.693      5.675
REMARK  7 active torsions:
REMARK  status: ('A' for Active; 'I' for Inactive)
REMARK    1  A    between atoms: C_2  and  C_3 
REMARK    2  A    between atoms: C_3  and  O_6 
REMARK    3  A    between atoms: C_3  and  C_4 
REMARK    4  A    between atoms: C_7  and  O_6 
REMARK    5  A    between atoms: C_9  and  C_10 
REMARK    6  A    between atoms: N_15  and  C_14 
REMARK    7  A    between atoms: N_20  and  C_19 
REMARK       I    between atoms: C_22  and  N_20 
ROOT
ATOM      1  C   LIG d   1      -3.212  92.615 117.538  0.00  0.00     0.161 C 
ATOM      2  C   LIG d   1      -2.453  93.480 118.345  0.00  0.00     0.016 C 
ATOM      3  C   LIG d   1      -3.027  94.414 119.237  0.00  0.00     0.038 C 
ATOM      4  C   LIG d   1      -4.406  94.443 119.495  0.00  0.00     0.028 C 
ATOM      5  C   LIG d   1      -5.251  93.934 118.333  0.00  0.00    -0.047 C 
ATOM      6  C   LIG d   1      -4.713  92.554 117.888  0.00  0.00     0.091 C 
ENDROOT
BRANCH   1   7
ATOM      7  O   LIG d   1      -2.637  91.293 117.564  0.00  0.00    -0.368 OA
BRANCH   7   8
ATOM      8  C   LIG d   1      -1.920  90.934 118.771  0.00  0.00     0.119 C 
BRANCH   8   9
ATOM      9  C   LIG d   1      -0.682  90.120 118.348  0.00  0.00     0.028 C 
ATOM     10  C   LIG d   1       0.053  90.748 117.152  0.00  0.00     0.006 C 
ENDBRANCH   8   9
BRANCH   8  11
ATOM     11  C   LIG d   1      -2.745  89.990 119.650  0.00  0.00     0.028 C 
ATOM     12  C   LIG d   1      -3.408  90.707 120.837  0.00  0.00     0.006 C 
ENDBRANCH   8  11
ENDBRANCH   7   8
ENDBRANCH   1   7
BRANCH   6  13
ATOM     13  N   LIG d   1      -5.431  92.023 116.700  0.00  0.00    -0.311 N 
ATOM     14  C   LIG d   1      -5.791  90.747 116.571  0.00  0.00     0.210 C 
ATOM     15  C   LIG d   1      -6.503  90.405 115.258  0.00  0.00     0.109 C 
ATOM     16  O   LIG d   1      -5.616  89.872 117.433  0.00  0.00    -0.276 OA
ATOM     17  H   LIG d   1      -5.640  92.671 115.966  0.00  0.00     0.149 HD
ENDBRANCH   6  13
BRANCH   5  18
ATOM     18  N   LIG d   1      -6.653  93.889 118.787  0.00  0.00     0.381 N 
ATOM     19  H   LIG d   1      -6.695  93.538 119.723  0.00  0.00    -0.090 HD
ATOM     20  H   LIG d   1      -7.168  93.262 118.193  0.00  0.00    -0.090 HD
ATOM     21  H   LIG d   1      -7.054  94.800 118.747  0.00  0.00    -0.090 HD
ENDBRANCH   5  18
BRANCH   3  22
ATOM     22  C   LIG d   1      -2.222  95.361 119.852  0.00  0.00     0.382 C 
ATOM     23  O   LIG d   1      -2.723  96.430 120.276  0.00  0.00    -0.241 OA
ATOM     24  O   LIG d   1      -0.994  95.179 119.949  0.00  0.00    -0.241 OA
ENDBRANCH   3  22
TORSDOF 7
ENDMDL
