MODEL 1
REMARK VINA RESULT:      -5.2      0.000      0.000
REMARK  7 active torsions:
REMARK  status: ('A' for Active; 'I' for Inactive)
REMARK    1  A    between atoms: C_2  and  C_3 
REMARK    2  A    between atoms: C_3  and  O_6 
REMARK    3  A    between atoms: C_3  and  C_4 
REMARK    4  A    between atoms: C_7  and  O_6 
REMARK    5  A    between atoms: C_9  and  C_10 
REMARK    6  A    between atoms: N_15  and  C_14 
REMARK    7  A    between atoms: N_20  and  C_19 
REMARK       I    between atoms: C_22  and  N_20 
ROOT
ATOM      1  C   LIG d   1      -3.053  92.170 117.648  0.00  0.00     0.161 C 
ATOM      2  C   LIG d   1      -3.165  93.210 118.586  0.00  0.00     0.016 C 
ATOM      3  C   LIG d   1      -4.395  93.815 118.934  0.00  0.00     0.038 C 
ATOM      4  C   LIG d   1      -5.623  93.315 118.476  0.00  0.00     0.028 C 
ATOM      5  C   LIG d   1      -5.521  92.592 117.137  0.00  0.00    -0.047 C 
ATOM      6  C   LIG d   1      -4.394  91.538 117.221  0.00  0.00     0.091 C 
ENDROOT
BRANCH   1   7
ATOM      7  O   LIG d   1      -2.157  91.157 118.146  0.00  0.00    -0.368 OA
BRANCH   7   8
ATOM      8  C   LIG d   1      -2.747  90.153 119.008  0.00  0.00     0.119 C 
BRANCH   8   9
ATOM      9  C   LIG d   1      -2.204  90.388 120.431  0.00  0.00     0.028 C 
ATOM     10  C   LIG d   1      -0.759  90.913 120.428  0.00  0.00     0.006 C 
ENDBRANCH   8   9
BRANCH   8  11
ATOM     11  C   LIG d   1      -2.281  88.745 118.623  0.00  0.00     0.028 C 
ATOM     12  C   LIG d   1      -1.548  88.709 117.272  0.00  0.00     0.006 C 
ENDBRANCH   8  11
ENDBRANCH   7   8
ENDBRANCH   1   7
BRANCH   6  13
ATOM     13  N   LIG d   1      -4.172  90.842 115.926  0.00  0.00    -0.311 N 
ATOM     14  C   LIG d   1      -4.824  89.739 115.565  0.00  0.00     0.210 C 
ATOM     15  C   LIG d   1      -4.428  89.172 114.198  0.00  0.00     0.109 C 
ATOM     16  O   LIG d   1      -5.715  89.193 116.233  0.00  0.00    -0.276 OA
ATOM     17  H   LIG d   1      -3.488  91.235 115.309  0.00  0.00     0.149 HD
ENDBRANCH   6  13
BRANCH   5  18
ATOM     18  N   LIG d   1      -6.843  92.005 116.847  0.00  0.00     0.381 N 
ATOM     19  H   LIG d   1      -7.557  92.691 116.989  0.00  0.00    -0.090 HD
ATOM     20  H   LIG d   1      -7.006  91.243 117.481  0.00  0.00    -0.090 HD
ATOM     21  H   LIG d   1      -6.870  91.676 115.907  0.00  0.00    -0.090 HD
ENDBRANCH   5  18
BRANCH   3  22
ATOM     22  C   LIG d   1      -4.400  94.958 119.719  0.00  0.00     0.382 C 
ATOM     23  O   LIG d   1      -5.304  95.816 119.571  0.00  0.00    -0.241 OA
ATOM     24  O   LIG d   1      -3.488  95.164 120.542  0.00  0.00    -0.241 OA
ENDBRANCH   3  22
TORSDOF 7
ENDMDL
MODEL 2
REMARK VINA RESULT:      -5.1      2.346      4.541
REMARK  7 active torsions:
REMARK  status: ('A' for Active; 'I' for Inactive)
REMARK    1  A    between atoms: C_2  and  C_3 
REMARK    2  A    between atoms: C_3  and  O_6 
REMARK    3  A    between atoms: C_3  and  C_4 
REMARK    4  A    between atoms: C_7  and  O_6 
REMARK    5  A    between atoms: C_9  and  C_10 
REMARK    6  A    between atoms: N_15  and  C_14 
REMARK    7  A    between atoms: N_20  and  C_19 
REMARK       I    between atoms: C_22  and  N_20 
ROOT
ATOM      1  C   LIG d   1      -3.568  90.371 117.449  0.00  0.00     0.161 C 
ATOM      2  C   LIG d   1      -4.452  89.999 116.423  0.00  0.00     0.016 C 
ATOM      3  C   LIG d   1      -5.522  90.812 115.985  0.00  0.00     0.038 C 
ATOM      4  C   LIG d   1      -5.690  92.127 116.444  0.00  0.00     0.028 C 
ATOM      5  C   LIG d   1      -5.125  92.358 117.841  0.00  0.00    -0.047 C 
ATOM      6  C   LIG d   1      -3.667  91.848 117.884  0.00  0.00     0.091 C 
ENDROOT
BRANCH   1   7
ATOM      7  O   LIG d   1      -2.215  90.050 117.068  0.00  0.00    -0.368 OA
BRANCH   7   8
ATOM      8  C   LIG d   1      -1.716  88.764 117.510  0.00  0.00     0.119 C 
BRANCH   8   9
ATOM      9  C   LIG d   1      -2.123  88.592 118.986  0.00  0.00     0.028 C 
ATOM     10  C   LIG d   1      -0.908  88.414 119.912  0.00  0.00     0.006 C 
ENDBRANCH   8   9
BRANCH   8  11
ATOM     11  C   LIG d   1      -0.185  88.728 117.504  0.00  0.00     0.028 C 
ATOM     12  C   LIG d   1       0.394  88.188 116.186  0.00  0.00     0.006 C 
ENDBRANCH   8  11
ENDBRANCH   7   8
ENDBRANCH   1   7
BRANCH   6  13
ATOM     13  N   LIG d   1      -3.067  91.959 119.239  0.00  0.00    -0.311 N 
ATOM     14  C   LIG d   1      -1.829  92.400 119.459  0.00  0.00     0.210 C 
ATOM     15  C   LIG d   1      -1.400  92.416 120.930  0.00  0.00     0.109 C 
ATOM     16  O   LIG d   1      -1.057  92.809 118.579  0.00  0.00    -0.276 OA
ATOM     17  H   LIG d   1      -3.635  91.677 120.014  0.00  0.00     0.149 HD
ENDBRANCH   6  13
BRANCH   5  18
ATOM     18  N   LIG d   1      -5.243  93.798 118.138  0.00  0.00     0.381 N 
ATOM     19  H   LIG d   1      -6.182  94.013 118.406  0.00  0.00    -0.090 HD
ATOM     20  H   LIG d   1      -5.025  94.320 117.307  0.00  0.00    -0.090 HD
ATOM     21  H   LIG d   1      -4.615  94.048 118.870  0.00  0.00    -0.090 HD
ENDBRANCH   5  18
BRANCH   3  22
ATOM     22  C   LIG d   1      -6.463  90.296 115.107  0.00  0.00     0.382 C 
ATOM     23  O   LIG d   1      -7.684  90.511 115.300  0.00  0.00    -0.241 OA
ATOM     24  O   LIG d   1      -6.109  89.582 114.150  0.00  0.00    -0.241 OA
ENDBRANCH   3  22
TORSDOF 7
ENDMDL
MODEL 3
REMARK VINA RESULT:      -5.1      2.291      5.028
REMARK  7 active torsions:
REMARK  status: ('A' for Active; 'I' for Inactive)
REMARK    1  A    between atoms: C_2  and  C_3 
REMARK    2  A    between atoms: C_3  and  O_6 
REMARK    3  A    between atoms: C_3  and  C_4 
REMARK    4  A    between atoms: C_7  and  O_6 
REMARK    5  A    between atoms: C_9  and  C_10 
REMARK    6  A    between atoms: N_15  and  C_14 
REMARK    7  A    between atoms: N_20  and  C_19 
REMARK       I    between atoms: C_22  and  N_20 
ROOT
ATOM      1  C   LIG d   1      -4.296  91.760 117.351  0.00  0.00     0.161 C 
ATOM      2  C   LIG d   1      -5.361  92.078 116.492  0.00  0.00     0.016 C 
ATOM      3  C   LIG d   1      -5.742  91.274 115.394  0.00  0.00     0.038 C 
ATOM      4  C   LIG d   1      -5.175  90.011 115.168  0.00  0.00     0.028 C 
ATOM      5  C   LIG d   1      -3.756  89.878 115.709  0.00  0.00    -0.047 C 
ATOM      6  C   LIG d   1      -3.738  90.331 117.187  0.00  0.00     0.091 C 
ENDROOT
BRANCH   1   7
ATOM      7  O   LIG d   1      -4.686  91.992 118.719  0.00  0.00    -0.368 OA
BRANCH   7   8
ATOM      8  C   LIG d   1      -4.885  93.376 119.100  0.00  0.00     0.119 C 
BRANCH   8   9
ATOM      9  C   LIG d   1      -3.865  93.703 120.207  0.00  0.00     0.028 C 
ATOM     10  C   LIG d   1      -3.965  95.161 120.685  0.00  0.00     0.006 C 
ENDBRANCH   8   9
BRANCH   8  11
ATOM     11  C   LIG d   1      -6.261  93.585 119.740  0.00  0.00     0.028 C 
ATOM     12  C   LIG d   1      -7.246  94.313 118.812  0.00  0.00     0.006 C 
ENDBRANCH   8  11
ENDBRANCH   7   8
ENDBRANCH   1   7
BRANCH   6  13
ATOM     13  N   LIG d   1      -2.371  90.313 117.769  0.00  0.00    -0.311 N 
ATOM     14  C   LIG d   1      -1.883  89.285 118.462  0.00  0.00     0.210 C 
ATOM     15  C   LIG d   1      -0.458  89.480 118.991  0.00  0.00     0.109 C 
ATOM     16  O   LIG d   1      -2.482  88.218 118.662  0.00  0.00    -0.276 OA
ATOM     17  H   LIG d   1      -1.804  91.126 117.628  0.00  0.00     0.149 HD
ENDBRANCH   6  13
BRANCH   5  18
ATOM     18  N   LIG d   1      -3.340  88.475 115.529  0.00  0.00     0.381 N 
ATOM     19  H   LIG d   1      -2.633  88.419 114.823  0.00  0.00    -0.090 HD
ATOM     20  H   LIG d   1      -4.132  87.937 115.226  0.00  0.00    -0.090 HD
ATOM     21  H   LIG d   1      -2.991  88.110 116.388  0.00  0.00    -0.090 HD
ENDBRANCH   5  18
BRANCH   3  22
ATOM     22  C   LIG d   1      -6.673  91.750 114.483  0.00  0.00     0.382 C 
ATOM     23  O   LIG d   1      -7.882  91.434 114.598  0.00  0.00    -0.241 OA
ATOM     24  O   LIG d   1      -6.313  92.456 113.522  0.00  0.00    -0.241 OA
ENDBRANCH   3  22
TORSDOF 7
ENDMDL
MODEL 4
REMARK VINA RESULT:      -5.1      0.969      1.849
REMARK  7 active torsions:
REMARK  status: ('A' for Active; 'I' for Inactive)
REMARK    1  A    between atoms: C_2  and  C_3 
REMARK    2  A    between atoms: C_3  and  O_6 
REMARK    3  A    between atoms: C_3  and  C_4 
REMARK    4  A    between atoms: C_7  and  O_6 
REMARK    5  A    between atoms: C_9  and  C_10 
REMARK    6  A    between atoms: N_15  and  C_14 
REMARK    7  A    between atoms: N_20  and  C_19 
REMARK       I    between atoms: C_22  and  N_20 
ROOT
ATOM      1  C   LIG d   1      -3.055  92.178 117.665  0.00  0.00     0.161 C 
ATOM      2  C   LIG d   1      -3.150  93.212 118.611  0.00  0.00     0.016 C 
ATOM      3  C   LIG d   1      -4.371  93.826 118.972  0.00  0.00     0.038 C 
ATOM      4  C   LIG d   1      -5.607  93.341 118.520  0.00  0.00     0.028 C 
ATOM      5  C   LIG d   1      -5.522  92.626 117.175  0.00  0.00    -0.047 C 
ATOM      6  C   LIG d   1      -4.405  91.561 117.243  0.00  0.00     0.091 C 
ENDROOT
BRANCH   1   7
ATOM      7  O   LIG d   1      -2.165  91.153 118.150  0.00  0.00    -0.368 OA
BRANCH   7   8
ATOM      8  C   LIG d   1      -0.903  91.022 117.450  0.00  0.00     0.119 C 
BRANCH   8   9
ATOM      9  C   LIG d   1      -0.604  89.516 117.313  0.00  0.00     0.028 C 
ATOM     10  C   LIG d   1      -1.814  88.642 117.680  0.00  0.00     0.006 C 
ENDBRANCH   8   9
BRANCH   8  11
ATOM     11  C   LIG d   1       0.254  91.591 118.277  0.00  0.00     0.028 C 
ATOM     12  C   LIG d   1       0.010  91.491 119.791  0.00  0.00     0.006 C 
ENDBRANCH   8  11
ENDBRANCH   7   8
ENDBRANCH   1   7
BRANCH   6  13
ATOM     13  N   LIG d   1      -4.198  90.872 115.943  0.00  0.00    -0.311 N 
ATOM     14  C   LIG d   1      -4.847  89.764 115.588  0.00  0.00     0.210 C 
ATOM     15  C   LIG d   1      -4.470  89.206 114.212  0.00  0.00     0.109 C 
ATOM     16  O   LIG d   1      -5.723  89.209 116.269  0.00  0.00    -0.276 OA
ATOM     17  H   LIG d   1      -3.527  91.272 115.316  0.00  0.00     0.149 HD
ENDBRANCH   6  13
BRANCH   5  18
ATOM     18  N   LIG d   1      -6.851  92.053 116.890  0.00  0.00     0.381 N 
ATOM     19  H   LIG d   1      -7.427  92.739 116.443  0.00  0.00    -0.090 HD
ATOM     20  H   LIG d   1      -7.286  91.794 117.758  0.00  0.00    -0.090 HD
ATOM     21  H   LIG d   1      -6.759  91.253 116.304  0.00  0.00    -0.090 HD
ENDBRANCH   5  18
BRANCH   3  22
ATOM     22  C   LIG d   1      -4.360  94.964 119.764  0.00  0.00     0.382 C 
ATOM     23  O   LIG d   1      -5.132  95.049 120.750  0.00  0.00    -0.241 OA
ATOM     24  O   LIG d   1      -3.621  95.925 119.480  0.00  0.00    -0.241 OA
ENDBRANCH   3  22
TORSDOF 7
ENDMDL
MODEL 5
REMARK VINA RESULT:      -5.0      2.271      4.833
REMARK  7 active torsions:
REMARK  status: ('A' for Active; 'I' for Inactive)
REMARK    1  A    between atoms: C_2  and  C_3 
REMARK    2  A    between atoms: C_3  and  O_6 
REMARK    3  A    between atoms: C_3  and  C_4 
REMARK    4  A    between atoms: C_7  and  O_6 
REMARK    5  A    between atoms: C_9  and  C_10 
REMARK    6  A    between atoms: N_15  and  C_14 
REMARK    7  A    between atoms: N_20  and  C_19 
REMARK       I    between atoms: C_22  and  N_20 
ROOT
ATOM      1  C   LIG d   1      -4.341  91.783 117.451  0.00  0.00     0.161 C 
ATOM      2  C   LIG d   1      -5.393  92.092 116.573  0.00  0.00     0.016 C 
ATOM      3  C   LIG d   1      -5.740  91.290 115.462  0.00  0.00     0.038 C 
ATOM      4  C   LIG d   1      -5.150  90.036 115.239  0.00  0.00     0.028 C 
ATOM      5  C   LIG d   1      -3.740  89.921 115.808  0.00  0.00    -0.047 C 
ATOM      6  C   LIG d   1      -3.758  90.363 117.289  0.00  0.00     0.091 C 
ENDROOT
BRANCH   1   7
ATOM      7  O   LIG d   1      -4.761  91.999 118.813  0.00  0.00    -0.368 OA
BRANCH   7   8
ATOM      8  C   LIG d   1      -4.048  93.027 119.544  0.00  0.00     0.119 C 
BRANCH   8   9
ATOM      9  C   LIG d   1      -5.069  94.119 119.921  0.00  0.00     0.028 C 
ATOM     10  C   LIG d   1      -6.521  93.620 119.831  0.00  0.00     0.006 C 
ENDBRANCH   8   9
BRANCH   8  11
ATOM     11  C   LIG d   1      -3.014  93.727 118.657  0.00  0.00     0.028 C 
ATOM     12  C   LIG d   1      -1.589  93.648 119.227  0.00  0.00     0.006 C 
ENDBRANCH   8  11
ENDBRANCH   7   8
ENDBRANCH   1   7
BRANCH   6  13
ATOM     13  N   LIG d   1      -2.403  90.360 117.898  0.00  0.00    -0.311 N 
ATOM     14  C   LIG d   1      -1.898  89.321 118.560  0.00  0.00     0.210 C 
ATOM     15  C   LIG d   1      -0.491  89.535 119.126  0.00  0.00     0.109 C 
ATOM     16  O   LIG d   1      -2.471  88.230 118.706  0.00  0.00    -0.276 OA
ATOM     17  H   LIG d   1      -1.857  91.194 117.800  0.00  0.00     0.149 HD
ENDBRANCH   6  13
BRANCH   5  18
ATOM     18  N   LIG d   1      -3.299  88.525 115.626  0.00  0.00     0.381 N 
ATOM     19  H   LIG d   1      -2.667  88.467 114.853  0.00  0.00    -0.090 HD
ATOM     20  H   LIG d   1      -4.101  87.955 115.421  0.00  0.00    -0.090 HD
ATOM     21  H   LIG d   1      -2.853  88.198 116.455  0.00  0.00    -0.090 HD
ENDBRANCH   5  18
BRANCH   3  22
ATOM     22  C   LIG d   1      -6.659  91.759 114.536  0.00  0.00     0.382 C 
ATOM     23  O   LIG d   1      -7.869  91.441 114.638  0.00  0.00    -0.241 OA
ATOM     24  O   LIG d   1      -6.288  92.459 113.576  0.00  0.00    -0.241 OA
ENDBRANCH   3  22
TORSDOF 7
ENDMDL
MODEL 6
REMARK VINA RESULT:      -4.9      2.240      5.563
REMARK  7 active torsions:
REMARK  status: ('A' for Active; 'I' for Inactive)
REMARK    1  A    between atoms: C_2  and  C_3 
REMARK    2  A    between atoms: C_3  and  O_6 
REMARK    3  A    between atoms: C_3  and  C_4 
REMARK    4  A    between atoms: C_7  and  O_6 
REMARK    5  A    between atoms: C_9  and  C_10 
REMARK    6  A    between atoms: N_15  and  C_14 
REMARK    7  A    between atoms: N_20  and  C_19 
REMARK       I    between atoms: C_22  and  N_20 
ROOT
ATOM      1  C   LIG d   1      -5.093  92.738 118.102  0.00  0.00     0.161 C 
ATOM      2  C   LIG d   1      -5.963  92.637 117.003  0.00  0.00     0.016 C 
ATOM      3  C   LIG d   1      -5.779  91.715 115.947  0.00  0.00     0.038 C 
ATOM      4  C   LIG d   1      -4.789  90.722 115.994  0.00  0.00     0.028 C 
ATOM      5  C   LIG d   1      -3.581  91.110 116.840  0.00  0.00    -0.047 C 
ATOM      6  C   LIG d   1      -4.071  91.588 118.225  0.00  0.00     0.091 C 
ENDROOT
BRANCH   1   7
ATOM      7  O   LIG d   1      -5.856  92.863 119.319  0.00  0.00    -0.368 OA
BRANCH   7   8
ATOM      8  C   LIG d   1      -5.921  94.190 119.896  0.00  0.00     0.119 C 
BRANCH   8   9
ATOM      9  C   LIG d   1      -7.148  94.899 119.290  0.00  0.00     0.028 C 
ATOM     10  C   LIG d   1      -7.391  96.285 119.911  0.00  0.00     0.006 C 
ENDBRANCH   8   9
BRANCH   8  11
ATOM     11  C   LIG d   1      -4.716  95.039 119.480  0.00  0.00     0.028 C 
ATOM     12  C   LIG d   1      -3.718  95.261 120.628  0.00  0.00     0.006 C 
ENDBRANCH   8  11
ENDBRANCH   7   8
ENDBRANCH   1   7
BRANCH   6  13
ATOM     13  N   LIG d   1      -2.958  92.066 119.086  0.00  0.00    -0.311 N 
ATOM     14  C   LIG d   1      -2.316  91.286 119.954  0.00  0.00     0.210 C 
ATOM     15  C   LIG d   1      -1.213  91.984 120.757  0.00  0.00     0.109 C 
ATOM     16  O   LIG d   1      -2.532  90.075 120.112  0.00  0.00    -0.276 OA
ATOM     17  H   LIG d   1      -2.696  93.029 119.001  0.00  0.00     0.149 HD
ENDBRANCH   6  13
BRANCH   5  18
ATOM     18  N   LIG d   1      -2.693  89.934 116.914  0.00  0.00     0.381 N 
ATOM     19  H   LIG d   1      -3.131  89.150 116.473  0.00  0.00    -0.090 HD
ATOM     20  H   LIG d   1      -2.537  89.706 117.880  0.00  0.00    -0.090 HD
ATOM     21  H   LIG d   1      -1.825  90.134 116.468  0.00  0.00    -0.090 HD
ENDBRANCH   5  18
BRANCH   3  22
ATOM     22  C   LIG d   1      -6.566  91.807 114.809  0.00  0.00     0.382 C 
ATOM     23  O   LIG d   1      -7.682  91.236 114.771  0.00  0.00    -0.241 OA
ATOM     24  O   LIG d   1      -6.155  92.418 113.804  0.00  0.00    -0.241 OA
ENDBRANCH   3  22
TORSDOF 7
ENDMDL
MODEL 7
REMARK VINA RESULT:      -4.8      2.102      4.625
REMARK  7 active torsions:
REMARK  status: ('A' for Active; 'I' for Inactive)
REMARK    1  A    between atoms: C_2  and  C_3 
REMARK    2  A    between atoms: C_3  and  O_6 
REMARK    3  A    between atoms: C_3  and  C_4 
REMARK    4  A    between atoms: C_7  and  O_6 
REMARK    5  A    between atoms: C_9  and  C_10 
REMARK    6  A    between atoms: N_15  and  C_14 
REMARK    7  A    between atoms: N_20  and  C_19 
REMARK       I    between atoms: C_22  and  N_20 
ROOT
ATOM      1  C   LIG d   1      -3.487  91.342 117.740  0.00  0.00     0.161 C 
ATOM      2  C   LIG d   1      -4.383  90.731 116.846  0.00  0.00     0.016 C 
ATOM      3  C   LIG d   1      -5.643  91.277 116.512  0.00  0.00     0.038 C 
ATOM      4  C   LIG d   1      -6.033  92.556 116.936  0.00  0.00     0.028 C 
ATOM      5  C   LIG d   1      -5.377  92.986 118.244  0.00  0.00    -0.047 C 
ATOM      6  C   LIG d   1      -3.848  92.791 118.126  0.00  0.00     0.091 C 
ENDROOT
BRANCH   1   7
ATOM      7  O   LIG d   1      -2.149  91.283 117.207  0.00  0.00    -0.368 OA
BRANCH   7   8
ATOM      8  C   LIG d   1      -1.175  90.570 118.008  0.00  0.00     0.119 C 
BRANCH   8   9
ATOM      9  C   LIG d   1       0.219  90.890 117.436  0.00  0.00     0.028 C 
ATOM     10  C   LIG d   1       0.796  89.727 116.611  0.00  0.00     0.006 C 
ENDBRANCH   8   9
BRANCH   8  11
ATOM     11  C   LIG d   1      -1.336  89.054 117.861  0.00  0.00     0.028 C 
ATOM     12  C   LIG d   1      -1.819  88.378 119.154  0.00  0.00     0.006 C 
ENDBRANCH   8  11
ENDBRANCH   7   8
ENDBRANCH   1   7
BRANCH   6  13
ATOM     13  N   LIG d   1      -3.137  93.109 119.392  0.00  0.00    -0.311 N 
ATOM     14  C   LIG d   1      -2.227  94.076 119.499  0.00  0.00     0.210 C 
ATOM     15  C   LIG d   1      -1.600  94.224 120.889  0.00  0.00     0.109 C 
ATOM     16  O   LIG d   1      -1.903  94.847 118.582  0.00  0.00    -0.276 OA
ATOM     17  H   LIG d   1      -3.362  92.553 120.194  0.00  0.00     0.149 HD
ENDBRANCH   6  13
BRANCH   5  18
ATOM     18  N   LIG d   1      -5.763  94.387 118.497  0.00  0.00     0.381 N 
ATOM     19  H   LIG d   1      -6.733  94.514 118.286  0.00  0.00    -0.090 HD
ATOM     20  H   LIG d   1      -5.228  94.986 117.893  0.00  0.00    -0.090 HD
ATOM     21  H   LIG d   1      -5.589  94.623 119.449  0.00  0.00    -0.090 HD
ENDBRANCH   5  18
BRANCH   3  22
ATOM     22  C   LIG d   1      -6.546  90.523 115.777  0.00  0.00     0.382 C 
ATOM     23  O   LIG d   1      -7.373  91.094 115.026  0.00  0.00    -0.241 OA
ATOM     24  O   LIG d   1      -6.573  89.283 115.890  0.00  0.00    -0.241 OA
ENDBRANCH   3  22
TORSDOF 7
ENDMDL
MODEL 8
REMARK VINA RESULT:      -4.8      2.971      4.772
REMARK  7 active torsions:
REMARK  status: ('A' for Active; 'I' for Inactive)
REMARK    1  A    between atoms: C_2  and  C_3 
REMARK    2  A    between atoms: C_3  and  O_6 
REMARK    3  A    between atoms: C_3  and  C_4 
REMARK    4  A    between atoms: C_7  and  O_6 
REMARK    5  A    between atoms: C_9  and  C_10 
REMARK    6  A    between atoms: N_15  and  C_14 
REMARK    7  A    between atoms: N_20  and  C_19 
REMARK       I    between atoms: C_22  and  N_20 
ROOT
ATOM      1  C   LIG d   1      -1.752  92.327 118.192  0.00  0.00     0.161 C 
ATOM      2  C   LIG d   1      -0.353  92.337 118.067  0.00  0.00     0.016 C 
ATOM      3  C   LIG d   1       0.409  93.522 117.946  0.00  0.00     0.038 C 
ATOM      4  C   LIG d   1      -0.167  94.793 118.094  0.00  0.00     0.028 C 
ATOM      5  C   LIG d   1      -1.644  94.836 117.717  0.00  0.00    -0.047 C 
ATOM      6  C   LIG d   1      -2.386  93.706 118.467  0.00  0.00     0.091 C 
ENDROOT
BRANCH   1   7
ATOM      7  O   LIG d   1      -2.145  91.383 119.207  0.00  0.00    -0.368 OA
BRANCH   7   8
ATOM      8  C   LIG d   1      -2.897  90.232 118.750  0.00  0.00     0.119 C 
BRANCH   8   9
ATOM      9  C   LIG d   1      -1.987  88.997 118.897  0.00  0.00     0.028 C 
ATOM     10  C   LIG d   1      -1.253  88.650 117.590  0.00  0.00     0.006 C 
ENDBRANCH   8   9
BRANCH   8  11
ATOM     11  C   LIG d   1      -3.210  90.329 117.254  0.00  0.00     0.028 C 
ATOM     12  C   LIG d   1      -4.718  90.284 116.957  0.00  0.00     0.006 C 
ENDBRANCH   8  11
ENDBRANCH   7   8
ENDBRANCH   1   7
BRANCH   6  13
ATOM     13  N   LIG d   1      -3.822  93.624 118.090  0.00  0.00    -0.311 N 
ATOM     14  C   LIG d   1      -4.811  93.560 118.980  0.00  0.00     0.210 C 
ATOM     15  C   LIG d   1      -6.216  93.460 118.378  0.00  0.00     0.109 C 
ATOM     16  O   LIG d   1      -4.660  93.607 120.210  0.00  0.00    -0.276 OA
ATOM     17  H   LIG d   1      -4.037  93.612 117.112  0.00  0.00     0.149 HD
ENDBRANCH   6  13
BRANCH   5  18
ATOM     18  N   LIG d   1      -2.150  96.181 118.049  0.00  0.00     0.381 N 
ATOM     19  H   LIG d   1      -2.902  96.107 118.704  0.00  0.00    -0.090 HD
ATOM     20  H   LIG d   1      -2.501  96.612 117.212  0.00  0.00    -0.090 HD
ATOM     21  H   LIG d   1      -1.417  96.735 118.435  0.00  0.00    -0.090 HD
ENDBRANCH   5  18
BRANCH   3  22
ATOM     22  C   LIG d   1       1.758  93.443 117.634  0.00  0.00     0.382 C 
ATOM     23  O   LIG d   1       2.518  92.715 118.317  0.00  0.00    -0.241 OA
ATOM     24  O   LIG d   1       2.233  94.124 116.706  0.00  0.00    -0.241 OA
ENDBRANCH   3  22
TORSDOF 7
ENDMDL
MODEL 9
REMARK VINA RESULT:      -4.6      4.126      6.488
REMARK  7 active torsions:
REMARK  status: ('A' for Active; 'I' for Inactive)
REMARK    1  A    between atoms: C_2  and  C_3 
REMARK    2  A    between atoms: C_3  and  O_6 
REMARK    3  A    between atoms: C_3  and  C_4 
REMARK    4  A    between atoms: C_7  and  O_6 
REMARK    5  A    between atoms: C_9  and  C_10 
REMARK    6  A    between atoms: N_15  and  C_14 
REMARK    7  A    between atoms: N_20  and  C_19 
REMARK       I    between atoms: C_22  and  N_20 
ROOT
ATOM      1  C   LIG d   1       0.922  90.690 118.481  0.00  0.00     0.161 C 
ATOM      2  C   LIG d   1      -0.149  89.789 118.355  0.00  0.00     0.016 C 
ATOM      3  C   LIG d   1      -1.430  90.165 117.889  0.00  0.00     0.038 C 
ATOM      4  C   LIG d   1      -1.685  91.443 117.372  0.00  0.00     0.028 C 
ATOM      5  C   LIG d   1      -0.776  92.523 117.949  0.00  0.00    -0.047 C 
ATOM      6  C   LIG d   1       0.694  92.064 117.817  0.00  0.00     0.091 C 
ENDROOT
BRANCH   1   7
ATOM      7  O   LIG d   1       2.131  90.085 117.979  0.00  0.00    -0.368 OA
BRANCH   7   8
ATOM      8  C   LIG d   1       2.257  90.014 116.538  0.00  0.00     0.119 C 
BRANCH   8   9
ATOM      9  C   LIG d   1       2.405  88.528 116.159  0.00  0.00     0.028 C 
ATOM     10  C   LIG d   1       1.194  88.000 115.370  0.00  0.00     0.006 C 
ENDBRANCH   8   9
BRANCH   8  11
ATOM     11  C   LIG d   1       3.546  90.686 116.057  0.00  0.00     0.028 C 
ATOM     12  C   LIG d   1       4.625  89.674 115.639  0.00  0.00     0.006 C 
ENDBRANCH   8  11
ENDBRANCH   7   8
ENDBRANCH   1   7
BRANCH   6  13
ATOM     13  N   LIG d   1       1.646  93.025 118.434  0.00  0.00    -0.311 N 
ATOM     14  C   LIG d   1       2.319  93.939 117.737  0.00  0.00     0.210 C 
ATOM     15  C   LIG d   1       3.263  94.816 118.565  0.00  0.00     0.109 C 
ATOM     16  O   LIG d   1       2.200  94.127 116.517  0.00  0.00    -0.276 OA
ATOM     17  H   LIG d   1       1.779  92.963 119.424  0.00  0.00     0.149 HD
ENDBRANCH   6  13
BRANCH   5  18
ATOM     18  N   LIG d   1      -1.057  93.777 117.224  0.00  0.00     0.381 N 
ATOM     19  H   LIG d   1      -0.827  93.668 116.257  0.00  0.00    -0.090 HD
ATOM     20  H   LIG d   1      -0.483  94.508 117.605  0.00  0.00    -0.090 HD
ATOM     21  H   LIG d   1      -2.019  94.017 117.319  0.00  0.00    -0.090 HD
ENDBRANCH   5  18
BRANCH   3  22
ATOM     22  C   LIG d   1      -2.483  89.267 117.976  0.00  0.00     0.382 C 
ATOM     23  O   LIG d   1      -3.551  89.492 117.358  0.00  0.00    -0.241 OA
ATOM     24  O   LIG d   1      -2.393  88.256 118.698  0.00  0.00    -0.241 OA
ENDBRANCH   3  22
TORSDOF 7
ENDMDL
