MODEL 1
REMARK VINA RESULT:      -5.4      0.000      0.000
REMARK  7 active torsions:
REMARK  status: ('A' for Active; 'I' for Inactive)
REMARK    1  A    between atoms: C_2  and  C_3 
REMARK    2  A    between atoms: C_3  and  O_6 
REMARK    3  A    between atoms: C_3  and  C_4 
REMARK    4  A    between atoms: C_7  and  O_6 
REMARK    5  A    between atoms: C_9  and  C_10 
REMARK    6  A    between atoms: N_15  and  C_14 
REMARK    7  A    between atoms: N_20  and  C_19 
REMARK       I    between atoms: C_22  and  N_20 
ROOT
ATOM      1  C   LIG d   1      -4.654  91.864 118.587  0.00  0.00     0.161 C 
ATOM      2  C   LIG d   1      -5.951  92.401 118.614  0.00  0.00     0.016 C 
ATOM      3  C   LIG d   1      -6.922  92.139 117.620  0.00  0.00     0.038 C 
ATOM      4  C   LIG d   1      -6.708  91.195 116.605  0.00  0.00     0.028 C 
ATOM      5  C   LIG d   1      -5.237  91.010 116.251  0.00  0.00    -0.047 C 
ATOM      6  C   LIG d   1      -4.438  90.744 117.548  0.00  0.00     0.091 C 
ENDROOT
BRANCH   1   7
ATOM      7  O   LIG d   1      -4.289  91.402 119.903  0.00  0.00    -0.368 OA
BRANCH   7   8
ATOM      8  C   LIG d   1      -3.321  92.211 120.617  0.00  0.00     0.119 C 
BRANCH   8   9
ATOM      9  C   LIG d   1      -2.877  93.343 119.671  0.00  0.00     0.028 C 
ATOM     10  C   LIG d   1      -3.239  94.736 120.212  0.00  0.00     0.006 C 
ENDBRANCH   8   9
BRANCH   8  11
ATOM     11  C   LIG d   1      -2.049  91.416 120.924  0.00  0.00     0.028 C 
ATOM     12  C   LIG d   1      -0.798  92.014 120.260  0.00  0.00     0.006 C 
ENDBRANCH   8  11
ENDBRANCH   7   8
ENDBRANCH   1   7
BRANCH   6  13
ATOM     13  N   LIG d   1      -2.977  90.635 117.301  0.00  0.00    -0.311 N 
ATOM     14  C   LIG d   1      -2.240  89.603 117.708  0.00  0.00     0.210 C 
ATOM     15  C   LIG d   1      -0.749  89.698 117.368  0.00  0.00     0.109 C 
ATOM     16  O   LIG d   1      -2.685  88.602 118.291  0.00  0.00    -0.276 OA
ATOM     17  H   LIG d   1      -2.540  91.388 116.807  0.00  0.00     0.149 HD
ENDBRANCH   6  13
BRANCH   5  18
ATOM     18  N   LIG d   1      -5.148  89.902 115.280  0.00  0.00     0.381 N 
ATOM     19  H   LIG d   1      -4.331  89.354 115.465  0.00  0.00    -0.090 HD
ATOM     20  H   LIG d   1      -5.067  90.286 114.355  0.00  0.00    -0.090 HD
ATOM     21  H   LIG d   1      -5.961  89.330 115.340  0.00  0.00    -0.090 HD
ENDBRANCH   5  18
BRANCH   3  22
ATOM     22  C   LIG d   1      -8.109  92.856 117.613  0.00  0.00     0.382 C 
ATOM     23  O   LIG d   1      -8.578  93.302 118.688  0.00  0.00    -0.241 OA
ATOM     24  O   LIG d   1      -8.740  93.024 116.552  0.00  0.00    -0.241 OA
ENDBRANCH   3  22
TORSDOF 7
ENDMDL
MODEL 2
REMARK VINA RESULT:      -5.2      2.095      4.556
REMARK  7 active torsions:
REMARK  status: ('A' for Active; 'I' for Inactive)
REMARK    1  A    between atoms: C_2  and  C_3 
REMARK    2  A    between atoms: C_3  and  O_6 
REMARK    3  A    between atoms: C_3  and  C_4 
REMARK    4  A    between atoms: C_7  and  O_6 
REMARK    5  A    between atoms: C_9  and  C_10 
REMARK    6  A    between atoms: N_15  and  C_14 
REMARK    7  A    between atoms: N_20  and  C_19 
REMARK       I    between atoms: C_22  and  N_20 
ROOT
ATOM      1  C   LIG d   1      -4.051  91.161 117.532  0.00  0.00     0.161 C 
ATOM      2  C   LIG d   1      -3.546  91.843 118.651  0.00  0.00     0.016 C 
ATOM      3  C   LIG d   1      -4.342  92.650 119.496  0.00  0.00     0.038 C 
ATOM      4  C   LIG d   1      -5.737  92.710 119.364  0.00  0.00     0.028 C 
ATOM      5  C   LIG d   1      -6.224  92.441 117.944  0.00  0.00    -0.047 C 
ATOM      6  C   LIG d   1      -5.591  91.125 117.437  0.00  0.00     0.091 C 
ENDROOT
BRANCH   1   7
ATOM      7  O   LIG d   1      -3.515  89.824 117.491  0.00  0.00    -0.368 OA
BRANCH   7   8
ATOM      8  C   LIG d   1      -2.240  89.628 118.149  0.00  0.00     0.119 C 
BRANCH   8   9
ATOM      9  C   LIG d   1      -1.300  88.938 117.142  0.00  0.00     0.028 C 
ATOM     10  C   LIG d   1      -0.128  89.840 116.719  0.00  0.00     0.006 C 
ENDBRANCH   8   9
BRANCH   8  11
ATOM     11  C   LIG d   1      -2.363  88.652 119.323  0.00  0.00     0.028 C 
ATOM     12  C   LIG d   1      -1.506  87.389 119.140  0.00  0.00     0.006 C 
ENDBRANCH   8  11
ENDBRANCH   7   8
ENDBRANCH   1   7
BRANCH   6  13
ATOM     13  N   LIG d   1      -5.948  90.832 116.025  0.00  0.00    -0.311 N 
ATOM     14  C   LIG d   1      -6.996  90.088 115.673  0.00  0.00     0.210 C 
ATOM     15  C   LIG d   1      -7.172  89.893 114.164  0.00  0.00     0.109 C 
ATOM     16  O   LIG d   1      -7.814  89.598 116.466  0.00  0.00    -0.276 OA
ATOM     17  H   LIG d   1      -5.356  91.216 115.315  0.00  0.00     0.149 HD
ENDBRANCH   6  13
BRANCH   5  18
ATOM     18  N   LIG d   1      -7.698  92.398 117.979  0.00  0.00     0.381 N 
ATOM     19  H   LIG d   1      -8.057  92.340 117.047  0.00  0.00    -0.090 HD
ATOM     20  H   LIG d   1      -8.038  93.247 118.395  0.00  0.00    -0.090 HD
ATOM     21  H   LIG d   1      -8.004  91.613 118.510  0.00  0.00    -0.090 HD
ENDBRANCH   5  18
BRANCH   3  22
ATOM     22  C   LIG d   1      -3.737  93.441 120.461  0.00  0.00     0.382 C 
ATOM     23  O   LIG d   1      -4.344  94.434 120.928  0.00  0.00    -0.241 OA
ATOM     24  O   LIG d   1      -2.575  93.199 120.838  0.00  0.00    -0.241 OA
ENDBRANCH   3  22
TORSDOF 7
ENDMDL
MODEL 3
REMARK VINA RESULT:      -5.1      2.202      3.372
REMARK  7 active torsions:
REMARK  status: ('A' for Active; 'I' for Inactive)
REMARK    1  A    between atoms: C_2  and  C_3 
REMARK    2  A    between atoms: C_3  and  O_6 
REMARK    3  A    between atoms: C_3  and  C_4 
REMARK    4  A    between atoms: C_7  and  O_6 
REMARK    5  A    between atoms: C_9  and  C_10 
REMARK    6  A    between atoms: N_15  and  C_14 
REMARK    7  A    between atoms: N_20  and  C_19 
REMARK       I    between atoms: C_22  and  N_20 
ROOT
ATOM      1  C   LIG d   1      -5.282  92.196 118.615  0.00  0.00     0.161 C 
ATOM      2  C   LIG d   1      -5.704  93.145 119.560  0.00  0.00     0.016 C 
ATOM      3  C   LIG d   1      -6.942  93.824 119.482  0.00  0.00     0.038 C 
ATOM      4  C   LIG d   1      -7.914  93.485 118.528  0.00  0.00     0.028 C 
ATOM      5  C   LIG d   1      -7.329  92.889 117.253  0.00  0.00    -0.047 C 
ATOM      6  C   LIG d   1      -6.376  91.732 117.631  0.00  0.00     0.091 C 
ENDROOT
BRANCH   1   7
ATOM      7  O   LIG d   1      -4.701  91.061 119.289  0.00  0.00    -0.368 OA
BRANCH   7   8
ATOM      8  C   LIG d   1      -3.257  90.958 119.234  0.00  0.00     0.119 C 
BRANCH   8   9
ATOM      9  C   LIG d   1      -2.768  91.896 118.113  0.00  0.00     0.028 C 
ATOM     10  C   LIG d   1      -1.654  92.845 118.586  0.00  0.00     0.006 C 
ENDBRANCH   8   9
BRANCH   8  11
ATOM     11  C   LIG d   1      -2.814  89.554 118.811  0.00  0.00     0.028 C 
ATOM     12  C   LIG d   1      -2.584  89.434 117.296  0.00  0.00     0.006 C 
ENDBRANCH   8  11
ENDBRANCH   7   8
ENDBRANCH   1   7
BRANCH   6  13
ATOM     13  N   LIG d   1      -5.696  91.148 116.445  0.00  0.00    -0.311 N 
ATOM     14  C   LIG d   1      -6.167  90.100 115.772  0.00  0.00     0.210 C 
ATOM     15  C   LIG d   1      -5.300  89.645 114.594  0.00  0.00     0.109 C 
ATOM     16  O   LIG d   1      -7.237  89.524 116.019  0.00  0.00    -0.276 OA
ATOM     17  H   LIG d   1      -4.836  91.574 116.157  0.00  0.00     0.149 HD
ENDBRANCH   6  13
BRANCH   5  18
ATOM     18  N   LIG d   1      -8.456  92.455 116.406  0.00  0.00     0.381 N 
ATOM     19  H   LIG d   1      -8.182  91.667 115.854  0.00  0.00    -0.090 HD
ATOM     20  H   LIG d   1      -8.703  93.205 115.783  0.00  0.00    -0.090 HD
ATOM     21  H   LIG d   1      -9.238  92.216 116.975  0.00  0.00    -0.090 HD
ENDBRANCH   5  18
BRANCH   3  22
ATOM     22  C   LIG d   1      -7.202  94.881 120.340  0.00  0.00     0.382 C 
ATOM     23  O   LIG d   1      -6.253  95.492 120.888  0.00  0.00    -0.241 OA
ATOM     24  O   LIG d   1      -8.375  95.204 120.608  0.00  0.00    -0.241 OA
ENDBRANCH   3  22
TORSDOF 7
ENDMDL
MODEL 4
REMARK VINA RESULT:      -5.0      2.436      4.708
REMARK  7 active torsions:
REMARK  status: ('A' for Active; 'I' for Inactive)
REMARK    1  A    between atoms: C_2  and  C_3 
REMARK    2  A    between atoms: C_3  and  O_6 
REMARK    3  A    between atoms: C_3  and  C_4 
REMARK    4  A    between atoms: C_7  and  O_6 
REMARK    5  A    between atoms: C_9  and  C_10 
REMARK    6  A    between atoms: N_15  and  C_14 
REMARK    7  A    between atoms: N_20  and  C_19 
REMARK       I    between atoms: C_22  and  N_20 
ROOT
ATOM      1  C   LIG d   1      -5.451  91.883 118.723  0.00  0.00     0.161 C 
ATOM      2  C   LIG d   1      -4.799  91.064 117.787  0.00  0.00     0.016 C 
ATOM      3  C   LIG d   1      -5.304  90.807 116.492  0.00  0.00     0.038 C 
ATOM      4  C   LIG d   1      -6.429  91.477 115.989  0.00  0.00     0.028 C 
ATOM      5  C   LIG d   1      -7.402  91.927 117.074  0.00  0.00    -0.047 C 
ATOM      6  C   LIG d   1      -6.622  92.711 118.153  0.00  0.00     0.091 C 
ENDROOT
BRANCH   1   7
ATOM      7  O   LIG d   1      -4.494  92.747 119.368  0.00  0.00    -0.368 OA
BRANCH   7   8
ATOM      8  C   LIG d   1      -3.108  92.332 119.291  0.00  0.00     0.119 C 
BRANCH   8   9
ATOM      9  C   LIG d   1      -2.708  91.793 120.678  0.00  0.00     0.028 C 
ATOM     10  C   LIG d   1      -2.351  90.297 120.646  0.00  0.00     0.006 C 
ENDBRANCH   8   9
BRANCH   8  11
ATOM     11  C   LIG d   1      -2.183  93.525 119.038  0.00  0.00     0.028 C 
ATOM     12  C   LIG d   1      -1.217  93.789 120.204  0.00  0.00     0.006 C 
ENDBRANCH   8  11
ENDBRANCH   7   8
ENDBRANCH   1   7
BRANCH   6  13
ATOM     13  N   LIG d   1      -7.485  93.115 119.294  0.00  0.00    -0.311 N 
ATOM     14  C   LIG d   1      -7.682  94.383 119.651  0.00  0.00     0.210 C 
ATOM     15  C   LIG d   1      -8.591  94.578 120.868  0.00  0.00     0.109 C 
ATOM     16  O   LIG d   1      -7.217  95.366 119.055  0.00  0.00    -0.276 OA
ATOM     17  H   LIG d   1      -7.926  92.382 119.814  0.00  0.00     0.149 HD
ENDBRANCH   6  13
BRANCH   5  18
ATOM     18  N   LIG d   1      -8.455  92.730 116.423  0.00  0.00     0.381 N 
ATOM     19  H   LIG d   1      -9.052  92.134 115.886  0.00  0.00    -0.090 HD
ATOM     20  H   LIG d   1      -8.023  93.389 115.800  0.00  0.00    -0.090 HD
ATOM     21  H   LIG d   1      -8.989  93.214 117.112  0.00  0.00    -0.090 HD
ENDBRANCH   5  18
BRANCH   3  22
ATOM     22  C   LIG d   1      -4.705  89.840 115.699  0.00  0.00     0.382 C 
ATOM     23  O   LIG d   1      -5.260  89.467 114.638  0.00  0.00    -0.241 OA
ATOM     24  O   LIG d   1      -3.638  89.304 116.055  0.00  0.00    -0.241 OA
ENDBRANCH   3  22
TORSDOF 7
ENDMDL
MODEL 5
REMARK VINA RESULT:      -4.9      2.227      4.673
REMARK  7 active torsions:
REMARK  status: ('A' for Active; 'I' for Inactive)
REMARK    1  A    between atoms: C_2  and  C_3 
REMARK    2  A    between atoms: C_3  and  O_6 
REMARK    3  A    between atoms: C_3  and  C_4 
REMARK    4  A    between atoms: C_7  and  O_6 
REMARK    5  A    between atoms: C_9  and  C_10 
REMARK    6  A    between atoms: N_15  and  C_14 
REMARK    7  A    between atoms: N_20  and  C_19 
REMARK       I    between atoms: C_22  and  N_20 
ROOT
ATOM      1  C   LIG d   1      -6.678  91.952 117.709  0.00  0.00     0.161 C 
ATOM      2  C   LIG d   1      -7.728  92.720 118.240  0.00  0.00     0.016 C 
ATOM      3  C   LIG d   1      -7.624  93.454 119.443  0.00  0.00     0.038 C 
ATOM      4  C   LIG d   1      -6.406  93.592 120.124  0.00  0.00     0.028 C 
ATOM      5  C   LIG d   1      -5.450  92.426 119.899  0.00  0.00    -0.047 C 
ATOM      6  C   LIG d   1      -5.307  92.180 118.379  0.00  0.00     0.091 C 
ENDROOT
BRANCH   1   7
ATOM      7  O   LIG d   1      -6.584  92.170 116.287  0.00  0.00    -0.368 OA
BRANCH   7   8
ATOM      8  C   LIG d   1      -7.190  91.159 115.445  0.00  0.00     0.119 C 
BRANCH   8   9
ATOM      9  C   LIG d   1      -7.497  89.939 116.335  0.00  0.00     0.028 C 
ATOM     10  C   LIG d   1      -8.691  89.120 115.817  0.00  0.00     0.006 C 
ENDBRANCH   8   9
BRANCH   8  11
ATOM     11  C   LIG d   1      -6.206  90.652 114.387  0.00  0.00     0.028 C 
ATOM     12  C   LIG d   1      -5.183  89.654 114.954  0.00  0.00     0.006 C 
ENDBRANCH   8  11
ENDBRANCH   7   8
ENDBRANCH   1   7
BRANCH   6  13
ATOM     13  N   LIG d   1      -4.455  91.002 118.073  0.00  0.00    -0.311 N 
ATOM     14  C   LIG d   1      -3.145  91.084 117.845  0.00  0.00     0.210 C 
ATOM     15  C   LIG d   1      -2.460  89.751 117.528  0.00  0.00     0.109 C 
ATOM     16  O   LIG d   1      -2.481  92.129 117.907  0.00  0.00    -0.276 OA
ATOM     17  H   LIG d   1      -4.908  90.110 118.033  0.00  0.00     0.149 HD
ENDBRANCH   6  13
BRANCH   5  18
ATOM     18  N   LIG d   1      -4.171  92.764 120.552  0.00  0.00     0.381 N 
ATOM     19  H   LIG d   1      -3.409  92.428 119.999  0.00  0.00    -0.090 HD
ATOM     20  H   LIG d   1      -4.134  92.312 121.448  0.00  0.00    -0.090 HD
ATOM     21  H   LIG d   1      -4.098  93.751 120.667  0.00  0.00    -0.090 HD
ENDBRANCH   5  18
BRANCH   3  22
ATOM     22  C   LIG d   1      -8.758  94.027 119.999  0.00  0.00     0.382 C 
ATOM     23  O   LIG d   1      -8.675  95.123 120.604  0.00  0.00    -0.241 OA
ATOM     24  O   LIG d   1      -9.855  93.440 119.942  0.00  0.00    -0.241 OA
ENDBRANCH   3  22
TORSDOF 7
ENDMDL
MODEL 6
REMARK VINA RESULT:      -4.9      4.438      7.567
REMARK  7 active torsions:
REMARK  status: ('A' for Active; 'I' for Inactive)
REMARK    1  A    between atoms: C_2  and  C_3 
REMARK    2  A    between atoms: C_3  and  O_6 
REMARK    3  A    between atoms: C_3  and  C_4 
REMARK    4  A    between atoms: C_7  and  O_6 
REMARK    5  A    between atoms: C_9  and  C_10 
REMARK    6  A    between atoms: N_15  and  C_14 
REMARK    7  A    between atoms: N_20  and  C_19 
REMARK       I    between atoms: C_22  and  N_20 
ROOT
ATOM      1  C   LIG d   1       1.073  88.812 116.810  0.00  0.00     0.161 C 
ATOM      2  C   LIG d   1      -0.320  88.636 116.856  0.00  0.00     0.016 C 
ATOM      3  C   LIG d   1      -1.210  89.603 117.379  0.00  0.00     0.038 C 
ATOM      4  C   LIG d   1      -0.776  90.882 117.755  0.00  0.00     0.028 C 
ATOM      5  C   LIG d   1       0.683  90.922 118.197  0.00  0.00    -0.047 C 
ATOM      6  C   LIG d   1       1.554  90.246 117.113  0.00  0.00     0.091 C 
ENDROOT
BRANCH   1   7
ATOM      7  O   LIG d   1       1.578  88.374 115.533  0.00  0.00    -0.368 OA
BRANCH   7   8
ATOM      8  C   LIG d   1       2.600  87.347 115.571  0.00  0.00     0.119 C 
BRANCH   8   9
ATOM      9  C   LIG d   1       3.630  87.679 114.473  0.00  0.00     0.028 C 
ATOM     10  C   LIG d   1       3.585  89.157 114.053  0.00  0.00     0.006 C 
ENDBRANCH   8   9
BRANCH   8  11
ATOM     11  C   LIG d   1       2.029  85.978 115.191  0.00  0.00     0.028 C 
ATOM     12  C   LIG d   1       1.860  85.803 113.674  0.00  0.00     0.006 C 
ENDBRANCH   8  11
ENDBRANCH   7   8
ENDBRANCH   1   7
BRANCH   6  13
ATOM     13  N   LIG d   1       2.985  90.167 117.505  0.00  0.00    -0.311 N 
ATOM     14  C   LIG d   1       3.871  91.126 117.240  0.00  0.00     0.210 C 
ATOM     15  C   LIG d   1       5.299  90.835 117.714  0.00  0.00     0.109 C 
ATOM     16  O   LIG d   1       3.604  92.203 116.687  0.00  0.00    -0.276 OA
ATOM     17  H   LIG d   1       3.282  89.341 117.985  0.00  0.00     0.149 HD
ENDBRANCH   6  13
BRANCH   5  18
ATOM     18  N   LIG d   1       1.040  92.335 118.428  0.00  0.00     0.381 N 
ATOM     19  H   LIG d   1       1.962  92.392 118.812  0.00  0.00    -0.090 HD
ATOM     20  H   LIG d   1       0.397  92.728 119.093  0.00  0.00    -0.090 HD
ATOM     21  H   LIG d   1       0.996  92.842 117.572  0.00  0.00    -0.090 HD
ENDBRANCH   5  18
BRANCH   3  22
ATOM     22  C   LIG d   1      -2.545  89.278 117.567  0.00  0.00     0.382 C 
ATOM     23  O   LIG d   1      -3.385  89.538 116.672  0.00  0.00    -0.241 OA
ATOM     24  O   LIG d   1      -2.926  88.768 118.637  0.00  0.00    -0.241 OA
ENDBRANCH   3  22
TORSDOF 7
ENDMDL
MODEL 7
REMARK VINA RESULT:      -4.6      4.371      8.528
REMARK  7 active torsions:
REMARK  status: ('A' for Active; 'I' for Inactive)
REMARK    1  A    between atoms: C_2  and  C_3 
REMARK    2  A    between atoms: C_3  and  O_6 
REMARK    3  A    between atoms: C_3  and  C_4 
REMARK    4  A    between atoms: C_7  and  O_6 
REMARK    5  A    between atoms: C_9  and  C_10 
REMARK    6  A    between atoms: N_15  and  C_14 
REMARK    7  A    between atoms: N_20  and  C_19 
REMARK       I    between atoms: C_22  and  N_20 
ROOT
ATOM      1  C   LIG d   1       1.350  90.294 116.185  0.00  0.00     0.161 C 
ATOM      2  C   LIG d   1       2.664  89.885 115.907  0.00  0.00     0.016 C 
ATOM      3  C   LIG d   1       3.786  90.306 116.658  0.00  0.00     0.038 C 
ATOM      4  C   LIG d   1       3.650  91.051 117.839  0.00  0.00     0.028 C 
ATOM      5  C   LIG d   1       2.388  91.906 117.874  0.00  0.00    -0.047 C 
ATOM      6  C   LIG d   1       1.169  91.017 117.536  0.00  0.00     0.091 C 
ENDROOT
BRANCH   1   7
ATOM      7  O   LIG d   1       0.458  89.165 116.097  0.00  0.00    -0.368 OA
BRANCH   7   8
ATOM      8  C   LIG d   1       0.037  88.587 117.357  0.00  0.00     0.119 C 
BRANCH   8   9
ATOM      9  C   LIG d   1       0.641  87.172 117.442  0.00  0.00     0.028 C 
ATOM     10  C   LIG d   1       1.927  87.132 118.285  0.00  0.00     0.006 C 
ENDBRANCH   8   9
BRANCH   8  11
ATOM     11  C   LIG d   1      -1.481  88.382 117.397  0.00  0.00     0.028 C 
ATOM     12  C   LIG d   1      -2.039  88.338 118.828  0.00  0.00     0.006 C 
ENDBRANCH   8  11
ENDBRANCH   7   8
ENDBRANCH   1   7
BRANCH   6  13
ATOM     13  N   LIG d   1      -0.096  91.792 117.466  0.00  0.00    -0.311 N 
ATOM     14  C   LIG d   1      -0.917  91.952 118.502  0.00  0.00     0.210 C 
ATOM     15  C   LIG d   1      -2.178  92.771 118.209  0.00  0.00     0.109 C 
ATOM     16  O   LIG d   1      -0.705  91.520 119.645  0.00  0.00    -0.276 OA
ATOM     17  H   LIG d   1      -0.331  92.204 116.583  0.00  0.00     0.149 HD
ENDBRANCH   6  13
BRANCH   5  18
ATOM     18  N   LIG d   1       2.302  92.520 119.212  0.00  0.00     0.381 N 
ATOM     19  H   LIG d   1       1.887  93.427 119.143  0.00  0.00    -0.090 HD
ATOM     20  H   LIG d   1       3.231  92.626 119.581  0.00  0.00    -0.090 HD
ATOM     21  H   LIG d   1       1.760  91.944 119.818  0.00  0.00    -0.090 HD
ENDBRANCH   5  18
BRANCH   3  22
ATOM     22  C   LIG d   1       5.064  90.015 116.206  0.00  0.00     0.382 C 
ATOM     23  O   LIG d   1       6.040  90.097 116.991  0.00  0.00    -0.241 OA
ATOM     24  O   LIG d   1       5.260  89.716 115.013  0.00  0.00    -0.241 OA
ENDBRANCH   3  22
TORSDOF 7
ENDMDL
MODEL 8
REMARK VINA RESULT:      -4.5      4.811      7.987
REMARK  7 active torsions:
REMARK  status: ('A' for Active; 'I' for Inactive)
REMARK    1  A    between atoms: C_2  and  C_3 
REMARK    2  A    between atoms: C_3  and  O_6 
REMARK    3  A    between atoms: C_3  and  C_4 
REMARK    4  A    between atoms: C_7  and  O_6 
REMARK    5  A    between atoms: C_9  and  C_10 
REMARK    6  A    between atoms: N_15  and  C_14 
REMARK    7  A    between atoms: N_20  and  C_19 
REMARK       I    between atoms: C_22  and  N_20 
ROOT
ATOM      1  C   LIG d   1       0.836  90.861 117.203  0.00  0.00     0.161 C 
ATOM      2  C   LIG d   1       1.321  90.078 116.142  0.00  0.00     0.016 C 
ATOM      3  C   LIG d   1       2.688  90.007 115.788  0.00  0.00     0.038 C 
ATOM      4  C   LIG d   1       3.688  90.601 116.572  0.00  0.00     0.028 C 
ATOM      5  C   LIG d   1       3.202  91.815 117.357  0.00  0.00    -0.047 C 
ATOM      6  C   LIG d   1       1.925  91.428 118.138  0.00  0.00     0.091 C 
ENDROOT
BRANCH   1   7
ATOM      7  O   LIG d   1      -0.134  90.111 117.961  0.00  0.00    -0.368 OA
BRANCH   7   8
ATOM      8  C   LIG d   1      -0.505  88.820 117.419  0.00  0.00     0.119 C 
BRANCH   8   9
ATOM      9  C   LIG d   1      -2.044  88.774 117.345  0.00  0.00     0.028 C 
ATOM     10  C   LIG d   1      -2.706  89.834 118.241  0.00  0.00     0.006 C 
ENDBRANCH   8   9
BRANCH   8  11
ATOM     11  C   LIG d   1      -0.111  87.683 118.367  0.00  0.00     0.028 C 
ATOM     12  C   LIG d   1       0.402  88.191 119.724  0.00  0.00     0.006 C 
ENDBRANCH   8  11
ENDBRANCH   7   8
ENDBRANCH   1   7
BRANCH   6  13
ATOM     13  N   LIG d   1       1.336  92.581 118.867  0.00  0.00    -0.311 N 
ATOM     14  C   LIG d   1       1.054  92.559 120.169  0.00  0.00     0.210 C 
ATOM     15  C   LIG d   1       0.432  93.847 120.718  0.00  0.00     0.109 C 
ATOM     16  O   LIG d   1       1.289  91.606 120.927  0.00  0.00    -0.276 OA
ATOM     17  H   LIG d   1       1.142  93.407 118.335  0.00  0.00     0.149 HD
ENDBRANCH   6  13
BRANCH   5  18
ATOM     18  N   LIG d   1       4.306  92.250 118.233  0.00  0.00     0.381 N 
ATOM     19  H   LIG d   1       4.304  91.709 119.075  0.00  0.00    -0.090 HD
ATOM     20  H   LIG d   1       4.165  93.214 118.479  0.00  0.00    -0.090 HD
ATOM     21  H   LIG d   1       5.177  92.143 117.763  0.00  0.00    -0.090 HD
ENDBRANCH   5  18
BRANCH   3  22
ATOM     22  C   LIG d   1       3.062  89.369 114.615  0.00  0.00     0.382 C 
ATOM     23  O   LIG d   1       2.837  88.143 114.469  0.00  0.00    -0.241 OA
ATOM     24  O   LIG d   1       3.660  89.994 113.719  0.00  0.00    -0.241 OA
ENDBRANCH   3  22
TORSDOF 7
ENDMDL
MODEL 9
REMARK VINA RESULT:      -4.4      1.613      2.317
REMARK  7 active torsions:
REMARK  status: ('A' for Active; 'I' for Inactive)
REMARK    1  A    between atoms: C_2  and  C_3 
REMARK    2  A    between atoms: C_3  and  O_6 
REMARK    3  A    between atoms: C_3  and  C_4 
REMARK    4  A    between atoms: C_7  and  O_6 
REMARK    5  A    between atoms: C_9  and  C_10 
REMARK    6  A    between atoms: N_15  and  C_14 
REMARK    7  A    between atoms: N_20  and  C_19 
REMARK       I    between atoms: C_22  and  N_20 
ROOT
ATOM      1  C   LIG d   1      -4.989  92.073 118.805  0.00  0.00     0.161 C 
ATOM      2  C   LIG d   1      -6.221  91.976 118.136  0.00  0.00     0.016 C 
ATOM      3  C   LIG d   1      -6.426  91.164 116.997  0.00  0.00     0.038 C 
ATOM      4  C   LIG d   1      -5.446  90.271 116.537  0.00  0.00     0.028 C 
ATOM      5  C   LIG d   1      -4.024  90.706 116.874  0.00  0.00    -0.047 C 
ATOM      6  C   LIG d   1      -3.940  91.022 118.385  0.00  0.00     0.091 C 
ENDROOT
BRANCH   1   7
ATOM      7  O   LIG d   1      -5.202  92.026 120.230  0.00  0.00    -0.368 OA
BRANCH   7   8
ATOM      8  C   LIG d   1      -5.113  93.292 120.929  0.00  0.00     0.119 C 
BRANCH   8   9
ATOM      9  C   LIG d   1      -6.509  93.943 120.888  0.00  0.00     0.028 C 
ATOM     10  C   LIG d   1      -6.463  95.396 120.384  0.00  0.00     0.006 C 
ENDBRANCH   8   9
BRANCH   8  11
ATOM     11  C   LIG d   1      -4.187  94.269 120.198  0.00  0.00     0.028 C 
ATOM     12  C   LIG d   1      -2.848  94.476 120.923  0.00  0.00     0.006 C 
ENDBRANCH   8  11
ENDBRANCH   7   8
ENDBRANCH   1   7
BRANCH   6  13
ATOM     13  N   LIG d   1      -2.604  91.536 118.783  0.00  0.00    -0.311 N 
ATOM     14  C   LIG d   1      -1.605  90.749 119.182  0.00  0.00     0.210 C 
ATOM     15  C   LIG d   1      -0.318  91.485 119.566  0.00  0.00     0.109 C 
ATOM     16  O   LIG d   1      -1.653  89.511 119.222  0.00  0.00    -0.276 OA
ATOM     17  H   LIG d   1      -2.468  92.527 118.750  0.00  0.00     0.149 HD
ENDBRANCH   6  13
BRANCH   5  18
ATOM     18  N   LIG d   1      -3.116  89.620 116.459  0.00  0.00     0.381 N 
ATOM     19  H   LIG d   1      -3.568  89.042 115.778  0.00  0.00    -0.090 HD
ATOM     20  H   LIG d   1      -2.899  89.054 117.260  0.00  0.00    -0.090 HD
ATOM     21  H   LIG d   1      -2.279  90.003 116.077  0.00  0.00    -0.090 HD
ENDBRANCH   5  18
BRANCH   3  22
ATOM     22  C   LIG d   1      -7.609  91.270 116.282  0.00  0.00     0.382 C 
ATOM     23  O   LIG d   1      -8.179  92.382 116.175  0.00  0.00    -0.241 OA
ATOM     24  O   LIG d   1      -8.136  90.259 115.779  0.00  0.00    -0.241 OA
ENDBRANCH   3  22
TORSDOF 7
ENDMDL
