MODEL 1
REMARK VINA RESULT:      -5.6      0.000      0.000
REMARK  7 active torsions:
REMARK  status: ('A' for Active; 'I' for Inactive)
REMARK    1  A    between atoms: C_2  and  C_3 
REMARK    2  A    between atoms: C_3  and  O_6 
REMARK    3  A    between atoms: C_3  and  C_4 
REMARK    4  A    between atoms: C_7  and  O_6 
REMARK    5  A    between atoms: C_9  and  C_10 
REMARK    6  A    between atoms: N_15  and  C_14 
REMARK    7  A    between atoms: N_20  and  C_19 
REMARK       I    between atoms: C_22  and  N_20 
ROOT
ATOM      1  C   LIG d   1      -4.931  91.656 117.499  0.00  0.00     0.161 C 
ATOM      2  C   LIG d   1      -5.700  90.819 116.672  0.00  0.00     0.016 C 
ATOM      3  C   LIG d   1      -6.839  91.262 115.962  0.00  0.00     0.038 C 
ATOM      4  C   LIG d   1      -7.202  92.616 115.911  0.00  0.00     0.028 C 
ATOM      5  C   LIG d   1      -6.753  93.410 117.133  0.00  0.00    -0.047 C 
ATOM      6  C   LIG d   1      -5.245  93.161 117.367  0.00  0.00     0.091 C 
ENDROOT
BRANCH   1   7
ATOM      7  O   LIG d   1      -3.529  91.415 117.269  0.00  0.00    -0.368 OA
BRANCH   7   8
ATOM      8  C   LIG d   1      -2.807  90.770 118.347  0.00  0.00     0.119 C 
BRANCH   8   9
ATOM      9  C   LIG d   1      -1.341  91.236 118.266  0.00  0.00     0.028 C 
ATOM     10  C   LIG d   1      -0.524  90.427 117.244  0.00  0.00     0.006 C 
ENDBRANCH   8   9
BRANCH   8  11
ATOM     11  C   LIG d   1      -2.762  89.251 118.157  0.00  0.00     0.028 C 
ATOM     12  C   LIG d   1      -3.227  88.480 119.402  0.00  0.00     0.006 C 
ENDBRANCH   8  11
ENDBRANCH   7   8
ENDBRANCH   1   7
BRANCH   6  13
ATOM     13  N   LIG d   1      -4.744  93.834 118.594  0.00  0.00    -0.311 N 
ATOM     14  C   LIG d   1      -3.560  94.440 118.665  0.00  0.00     0.210 C 
ATOM     15  C   LIG d   1      -3.229  95.053 120.030  0.00  0.00     0.109 C 
ATOM     16  O   LIG d   1      -2.766  94.556 117.719  0.00  0.00    -0.276 OA
ATOM     17  H   LIG d   1      -5.338  93.815 119.400  0.00  0.00     0.149 HD
ENDBRANCH   6  13
BRANCH   5  18
ATOM     18  N   LIG d   1      -7.073  94.828 116.885  0.00  0.00     0.381 N 
ATOM     19  H   LIG d   1      -6.573  95.153 116.082  0.00  0.00    -0.090 HD
ATOM     20  H   LIG d   1      -6.782  95.371 117.679  0.00  0.00    -0.090 HD
ATOM     21  H   LIG d   1      -8.053  94.937 116.742  0.00  0.00    -0.090 HD
ENDBRANCH   5  18
BRANCH   3  22
ATOM     22  C   LIG d   1      -7.653  90.338 115.325  0.00  0.00     0.382 C 
ATOM     23  O   LIG d   1      -8.459  89.646 115.993  0.00  0.00    -0.241 OA
ATOM     24  O   LIG d   1      -7.561  90.155 114.096  0.00  0.00    -0.241 OA
ENDBRANCH   3  22
TORSDOF 7
ENDMDL
MODEL 2
REMARK VINA RESULT:      -5.6      2.582      4.963
REMARK  7 active torsions:
REMARK  status: ('A' for Active; 'I' for Inactive)
REMARK    1  A    between atoms: C_2  and  C_3 
REMARK    2  A    between atoms: C_3  and  O_6 
REMARK    3  A    between atoms: C_3  and  C_4 
REMARK    4  A    between atoms: C_7  and  O_6 
REMARK    5  A    between atoms: C_9  and  C_10 
REMARK    6  A    between atoms: N_15  and  C_14 
REMARK    7  A    between atoms: N_20  and  C_19 
REMARK       I    between atoms: C_22  and  N_20 
ROOT
ATOM      1  C   LIG d   1      -6.935  93.787 117.678  0.00  0.00     0.161 C 
ATOM      2  C   LIG d   1      -7.526  92.637 117.129  0.00  0.00     0.016 C 
ATOM      3  C   LIG d   1      -6.791  91.493 116.743  0.00  0.00     0.038 C 
ATOM      4  C   LIG d   1      -5.422  91.363 117.021  0.00  0.00     0.028 C 
ATOM      5  C   LIG d   1      -4.693  92.699 117.114  0.00  0.00    -0.047 C 
ATOM      6  C   LIG d   1      -5.458  93.620 118.092  0.00  0.00     0.091 C 
ENDROOT
BRANCH   1   7
ATOM      7  O   LIG d   1      -7.718  94.254 118.795  0.00  0.00    -0.368 OA
BRANCH   7   8
ATOM      8  C   LIG d   1      -8.827  95.130 118.474  0.00  0.00     0.119 C 
BRANCH   8   9
ATOM      9  C   LIG d   1      -8.235  96.480 118.025  0.00  0.00     0.028 C 
ATOM     10  C   LIG d   1      -7.546  97.231 119.177  0.00  0.00     0.006 C 
ENDBRANCH   8   9
BRANCH   8  11
ATOM     11  C   LIG d   1      -9.664  95.447 119.717  0.00  0.00     0.028 C 
ATOM     12  C   LIG d   1     -10.344  94.204 120.311  0.00  0.00     0.006 C 
ENDBRANCH   8  11
ENDBRANCH   7   8
ENDBRANCH   1   7
BRANCH   6  13
ATOM     13  N   LIG d   1      -4.859  94.978 118.177  0.00  0.00    -0.311 N 
ATOM     14  C   LIG d   1      -3.970  95.330 119.104  0.00  0.00     0.210 C 
ATOM     15  C   LIG d   1      -3.494  96.784 119.025  0.00  0.00     0.109 C 
ATOM     16  O   LIG d   1      -3.506  94.567 119.965  0.00  0.00    -0.276 OA
ATOM     17  H   LIG d   1      -5.156  95.651 117.498  0.00  0.00     0.149 HD
ENDBRANCH   6  13
BRANCH   5  18
ATOM     18  N   LIG d   1      -3.309  92.422 117.543  0.00  0.00     0.381 N 
ATOM     19  H   LIG d   1      -2.983  91.580 117.114  0.00  0.00    -0.090 HD
ATOM     20  H   LIG d   1      -3.297  92.293 118.540  0.00  0.00    -0.090 HD
ATOM     21  H   LIG d   1      -2.716  93.183 117.293  0.00  0.00    -0.090 HD
ENDBRANCH   5  18
BRANCH   3  22
ATOM     22  C   LIG d   1      -7.418  90.480 116.034  0.00  0.00     0.382 C 
ATOM     23  O   LIG d   1      -8.459  89.947 116.490  0.00  0.00    -0.241 OA
ATOM     24  O   LIG d   1      -6.932  90.061 114.966  0.00  0.00    -0.241 OA
ENDBRANCH   3  22
TORSDOF 7
ENDMDL
MODEL 3
REMARK VINA RESULT:      -5.4      2.213      4.221
REMARK  7 active torsions:
REMARK  status: ('A' for Active; 'I' for Inactive)
REMARK    1  A    between atoms: C_2  and  C_3 
REMARK    2  A    between atoms: C_3  and  O_6 
REMARK    3  A    between atoms: C_3  and  C_4 
REMARK    4  A    between atoms: C_7  and  O_6 
REMARK    5  A    between atoms: C_9  and  C_10 
REMARK    6  A    between atoms: N_15  and  C_14 
REMARK    7  A    between atoms: N_20  and  C_19 
REMARK       I    between atoms: C_22  and  N_20 
ROOT
ATOM      1  C   LIG d   1      -5.726  93.266 117.050  0.00  0.00     0.161 C 
ATOM      2  C   LIG d   1      -6.808  92.514 116.562  0.00  0.00     0.016 C 
ATOM      3  C   LIG d   1      -6.710  91.150 116.205  0.00  0.00     0.038 C 
ATOM      4  C   LIG d   1      -5.552  90.399 116.457  0.00  0.00     0.028 C 
ATOM      5  C   LIG d   1      -4.279  91.238 116.481  0.00  0.00    -0.047 C 
ATOM      6  C   LIG d   1      -4.484  92.435 117.437  0.00  0.00     0.091 C 
ENDROOT
BRANCH   1   7
ATOM      7  O   LIG d   1      -6.155  94.073 118.164  0.00  0.00    -0.368 OA
BRANCH   7   8
ATOM      8  C   LIG d   1      -7.186  93.500 119.007  0.00  0.00     0.119 C 
BRANCH   8   9
ATOM      9  C   LIG d   1      -8.170  94.630 119.367  0.00  0.00     0.028 C 
ATOM     10  C   LIG d   1      -8.751  95.321 118.122  0.00  0.00     0.006 C 
ENDBRANCH   8   9
BRANCH   8  11
ATOM     11  C   LIG d   1      -6.611  93.022 120.343  0.00  0.00     0.028 C 
ATOM     12  C   LIG d   1      -5.379  93.828 120.785  0.00  0.00     0.006 C 
ENDBRANCH   8  11
ENDBRANCH   7   8
ENDBRANCH   1   7
BRANCH   6  13
ATOM     13  N   LIG d   1      -3.316  93.354 117.454  0.00  0.00    -0.311 N 
ATOM     14  C   LIG d   1      -2.332  93.271 118.348  0.00  0.00     0.210 C 
ATOM     15  C   LIG d   1      -1.233  94.329 118.199  0.00  0.00     0.109 C 
ATOM     16  O   LIG d   1      -2.247  92.403 119.229  0.00  0.00    -0.276 OA
ATOM     17  H   LIG d   1      -3.288  94.069 116.755  0.00  0.00     0.149 HD
ENDBRANCH   6  13
BRANCH   5  18
ATOM     18  N   LIG d   1      -3.170  90.355 116.890  0.00  0.00     0.381 N 
ATOM     19  H   LIG d   1      -2.369  90.905 117.128  0.00  0.00    -0.090 HD
ATOM     20  H   LIG d   1      -2.927  89.760 116.117  0.00  0.00    -0.090 HD
ATOM     21  H   LIG d   1      -3.446  89.801 117.671  0.00  0.00    -0.090 HD
ENDBRANCH   5  18
BRANCH   3  22
ATOM     22  C   LIG d   1      -7.766  90.533 115.552  0.00  0.00     0.382 C 
ATOM     23  O   LIG d   1      -8.209  91.015 114.482  0.00  0.00    -0.241 OA
ATOM     24  O   LIG d   1      -8.310  89.525 116.042  0.00  0.00    -0.241 OA
ENDBRANCH   3  22
TORSDOF 7
ENDMDL
MODEL 4
REMARK VINA RESULT:      -5.3      1.367      1.907
REMARK  7 active torsions:
REMARK  status: ('A' for Active; 'I' for Inactive)
REMARK    1  A    between atoms: C_2  and  C_3 
REMARK    2  A    between atoms: C_3  and  O_6 
REMARK    3  A    between atoms: C_3  and  C_4 
REMARK    4  A    between atoms: C_7  and  O_6 
REMARK    5  A    between atoms: C_9  and  C_10 
REMARK    6  A    between atoms: N_15  and  C_14 
REMARK    7  A    between atoms: N_20  and  C_19 
REMARK       I    between atoms: C_22  and  N_20 
ROOT
ATOM      1  C   LIG d   1      -5.927  92.056 118.473  0.00  0.00     0.161 C 
ATOM      2  C   LIG d   1      -6.451  91.194 117.495  0.00  0.00     0.016 C 
ATOM      3  C   LIG d   1      -7.183  91.645 116.373  0.00  0.00     0.038 C 
ATOM      4  C   LIG d   1      -7.312  93.009 116.070  0.00  0.00     0.028 C 
ATOM      5  C   LIG d   1      -7.231  93.912 117.296  0.00  0.00    -0.047 C 
ATOM      6  C   LIG d   1      -5.961  93.553 118.100  0.00  0.00     0.091 C 
ENDROOT
BRANCH   1   7
ATOM      7  O   LIG d   1      -4.584  91.654 118.809  0.00  0.00    -0.368 OA
BRANCH   7   8
ATOM      8  C   LIG d   1      -3.584  91.845 117.777  0.00  0.00     0.119 C 
BRANCH   8   9
ATOM      9  C   LIG d   1      -3.004  90.460 117.433  0.00  0.00     0.028 C 
ATOM     10  C   LIG d   1      -3.293  89.415 118.524  0.00  0.00     0.006 C 
ENDBRANCH   8   9
BRANCH   8  11
ATOM     11  C   LIG d   1      -2.399  92.665 118.295  0.00  0.00     0.028 C 
ATOM     12  C   LIG d   1      -2.352  92.741 119.829  0.00  0.00     0.006 C 
ENDBRANCH   8  11
ENDBRANCH   7   8
ENDBRANCH   1   7
BRANCH   6  13
ATOM     13  N   LIG d   1      -5.850  94.333 119.361  0.00  0.00    -0.311 N 
ATOM     14  C   LIG d   1      -4.955  95.302 119.547  0.00  0.00     0.210 C 
ATOM     15  C   LIG d   1      -4.998  95.965 120.928  0.00  0.00     0.109 C 
ATOM     16  O   LIG d   1      -4.151  95.697 118.689  0.00  0.00    -0.276 OA
ATOM     17  H   LIG d   1      -6.484  94.099 120.099  0.00  0.00     0.149 HD
ENDBRANCH   6  13
BRANCH   5  18
ATOM     18  N   LIG d   1      -7.241  95.308 116.822  0.00  0.00     0.381 N 
ATOM     19  H   LIG d   1      -7.968  95.818 117.283  0.00  0.00    -0.090 HD
ATOM     20  H   LIG d   1      -7.428  95.316 115.835  0.00  0.00    -0.090 HD
ATOM     21  H   LIG d   1      -6.359  95.736 117.003  0.00  0.00    -0.090 HD
ENDBRANCH   5  18
BRANCH   3  22
ATOM     22  C   LIG d   1      -7.831  90.726 115.561  0.00  0.00     0.382 C 
ATOM     23  O   LIG d   1      -8.181  89.615 116.026  0.00  0.00    -0.241 OA
ATOM     24  O   LIG d   1      -8.028  90.976 114.356  0.00  0.00    -0.241 OA
ENDBRANCH   3  22
TORSDOF 7
ENDMDL
MODEL 5
REMARK VINA RESULT:      -5.1      2.000      2.431
REMARK  7 active torsions:
REMARK  status: ('A' for Active; 'I' for Inactive)
REMARK    1  A    between atoms: C_2  and  C_3 
REMARK    2  A    between atoms: C_3  and  O_6 
REMARK    3  A    between atoms: C_3  and  C_4 
REMARK    4  A    between atoms: C_7  and  O_6 
REMARK    5  A    between atoms: C_9  and  C_10 
REMARK    6  A    between atoms: N_15  and  C_14 
REMARK    7  A    between atoms: N_20  and  C_19 
REMARK       I    between atoms: C_22  and  N_20 
ROOT
ATOM      1  C   LIG d   1      -5.035  92.833 117.667  0.00  0.00     0.161 C 
ATOM      2  C   LIG d   1      -5.103  91.800 116.718  0.00  0.00     0.016 C 
ATOM      3  C   LIG d   1      -6.214  91.597 115.867  0.00  0.00     0.038 C 
ATOM      4  C   LIG d   1      -7.276  92.511 115.804  0.00  0.00     0.028 C 
ATOM      5  C   LIG d   1      -7.484  93.288 117.099  0.00  0.00    -0.047 C 
ATOM      6  C   LIG d   1      -6.136  93.906 117.536  0.00  0.00     0.091 C 
ENDROOT
BRANCH   1   7
ATOM      7  O   LIG d   1      -3.731  93.446 117.629  0.00  0.00    -0.368 OA
BRANCH   7   8
ATOM      8  C   LIG d   1      -2.914  93.281 118.815  0.00  0.00     0.119 C 
BRANCH   8   9
ATOM      9  C   LIG d   1      -1.780  94.322 118.744  0.00  0.00     0.028 C 
ATOM     10  C   LIG d   1      -0.771  94.015 117.624  0.00  0.00     0.006 C 
ENDBRANCH   8   9
BRANCH   8  11
ATOM     11  C   LIG d   1      -2.215  91.919 118.825  0.00  0.00     0.028 C 
ATOM     12  C   LIG d   1      -2.702  91.008 119.963  0.00  0.00     0.006 C 
ENDBRANCH   8  11
ENDBRANCH   7   8
ENDBRANCH   1   7
BRANCH   6  13
ATOM     13  N   LIG d   1      -6.232  94.614 118.839  0.00  0.00    -0.311 N 
ATOM     14  C   LIG d   1      -6.560  95.900 118.952  0.00  0.00     0.210 C 
ATOM     15  C   LIG d   1      -6.581  96.437 120.386  0.00  0.00     0.109 C 
ATOM     16  O   LIG d   1      -6.866  96.638 118.004  0.00  0.00    -0.276 OA
ATOM     17  H   LIG d   1      -6.030  94.082 119.663  0.00  0.00     0.149 HD
ENDBRANCH   6  13
BRANCH   5  18
ATOM     18  N   LIG d   1      -8.529  94.299 116.849  0.00  0.00     0.381 N 
ATOM     19  H   LIG d   1      -8.706  94.367 115.867  0.00  0.00    -0.090 HD
ATOM     20  H   LIG d   1      -8.202  95.192 117.174  0.00  0.00    -0.090 HD
ATOM     21  H   LIG d   1      -9.366  94.050 117.329  0.00  0.00    -0.090 HD
ENDBRANCH   5  18
BRANCH   3  22
ATOM     22  C   LIG d   1      -6.288  90.446 115.096  0.00  0.00     0.382 C 
ATOM     23  O   LIG d   1      -5.282  89.707 114.976  0.00  0.00    -0.241 OA
ATOM     24  O   LIG d   1      -7.335  90.163 114.484  0.00  0.00    -0.241 OA
ENDBRANCH   3  22
TORSDOF 7
ENDMDL
MODEL 6
REMARK VINA RESULT:      -5.1      1.589      4.688
REMARK  7 active torsions:
REMARK  status: ('A' for Active; 'I' for Inactive)
REMARK    1  A    between atoms: C_2  and  C_3 
REMARK    2  A    between atoms: C_3  and  O_6 
REMARK    3  A    between atoms: C_3  and  C_4 
REMARK    4  A    between atoms: C_7  and  O_6 
REMARK    5  A    between atoms: C_9  and  C_10 
REMARK    6  A    between atoms: N_15  and  C_14 
REMARK    7  A    between atoms: N_20  and  C_19 
REMARK       I    between atoms: C_22  and  N_20 
ROOT
ATOM      1  C   LIG d   1      -4.858  92.660 117.036  0.00  0.00     0.161 C 
ATOM      2  C   LIG d   1      -4.321  93.558 117.974  0.00  0.00     0.016 C 
ATOM      3  C   LIG d   1      -5.071  94.591 118.580  0.00  0.00     0.038 C 
ATOM      4  C   LIG d   1      -6.458  94.703 118.402  0.00  0.00     0.028 C 
ATOM      5  C   LIG d   1      -6.946  94.132 117.075  0.00  0.00    -0.047 C 
ATOM      6  C   LIG d   1      -6.395  92.697 116.913  0.00  0.00     0.091 C 
ENDROOT
BRANCH   1   7
ATOM      7  O   LIG d   1      -4.410  91.322 117.329  0.00  0.00    -0.368 OA
BRANCH   7   8
ATOM      8  C   LIG d   1      -3.423  91.196 118.382  0.00  0.00     0.119 C 
BRANCH   8   9
ATOM      9  C   LIG d   1      -2.107  90.730 117.729  0.00  0.00     0.028 C 
ATOM     10  C   LIG d   1      -0.936  91.681 118.024  0.00  0.00     0.006 C 
ENDBRANCH   8   9
BRANCH   8  11
ATOM     11  C   LIG d   1      -3.800  90.088 119.370  0.00  0.00     0.028 C 
ATOM     12  C   LIG d   1      -3.142  88.741 119.034  0.00  0.00     0.006 C 
ENDBRANCH   8  11
ENDBRANCH   7   8
ENDBRANCH   1   7
BRANCH   6  13
ATOM     13  N   LIG d   1      -6.756  92.096 115.602  0.00  0.00    -0.311 N 
ATOM     14  C   LIG d   1      -7.369  90.920 115.479  0.00  0.00     0.210 C 
ATOM     15  C   LIG d   1      -7.630  90.475 114.037  0.00  0.00     0.109 C 
ATOM     16  O   LIG d   1      -7.749  90.217 116.428  0.00  0.00    -0.276 OA
ATOM     17  H   LIG d   1      -6.512  92.613 114.781  0.00  0.00     0.149 HD
ENDBRANCH   6  13
BRANCH   5  18
ATOM     18  N   LIG d   1      -8.420  94.189 117.080  0.00  0.00     0.381 N 
ATOM     19  H   LIG d   1      -8.761  94.043 118.009  0.00  0.00    -0.090 HD
ATOM     20  H   LIG d   1      -8.776  93.455 116.494  0.00  0.00    -0.090 HD
ATOM     21  H   LIG d   1      -8.728  95.074 116.740  0.00  0.00    -0.090 HD
ENDBRANCH   5  18
BRANCH   3  22
ATOM     22  C   LIG d   1      -4.426  95.552 119.345  0.00  0.00     0.382 C 
ATOM     23  O   LIG d   1      -4.658  96.769 119.149  0.00  0.00    -0.241 OA
ATOM     24  O   LIG d   1      -3.581  95.218 120.197  0.00  0.00    -0.241 OA
ENDBRANCH   3  22
TORSDOF 7
ENDMDL
MODEL 7
REMARK VINA RESULT:      -5.0      2.221      5.183
REMARK  7 active torsions:
REMARK  status: ('A' for Active; 'I' for Inactive)
REMARK    1  A    between atoms: C_2  and  C_3 
REMARK    2  A    between atoms: C_3  and  O_6 
REMARK    3  A    between atoms: C_3  and  C_4 
REMARK    4  A    between atoms: C_7  and  O_6 
REMARK    5  A    between atoms: C_9  and  C_10 
REMARK    6  A    between atoms: N_15  and  C_14 
REMARK    7  A    between atoms: N_20  and  C_19 
REMARK       I    between atoms: C_22  and  N_20 
ROOT
ATOM      1  C   LIG d   1      -6.473  91.444 117.977  0.00  0.00     0.161 C 
ATOM      2  C   LIG d   1      -7.270  92.588 117.806  0.00  0.00     0.016 C 
ATOM      3  C   LIG d   1      -6.775  93.907 117.929  0.00  0.00     0.038 C 
ATOM      4  C   LIG d   1      -5.406  94.174 118.083  0.00  0.00     0.028 C 
ATOM      5  C   LIG d   1      -4.642  93.044 118.764  0.00  0.00    -0.047 C 
ATOM      6  C   LIG d   1      -4.955  91.717 118.036  0.00  0.00     0.091 C 
ENDROOT
BRANCH   1   7
ATOM      7  O   LIG d   1      -6.770  90.483 116.945  0.00  0.00    -0.368 OA
BRANCH   7   8
ATOM      8  C   LIG d   1      -7.565  90.966 115.834  0.00  0.00     0.119 C 
BRANCH   8   9
ATOM      9  C   LIG d   1      -8.380  89.774 115.296  0.00  0.00     0.028 C 
ATOM     10  C   LIG d   1      -9.313  89.173 116.360  0.00  0.00     0.006 C 
ENDBRANCH   8   9
BRANCH   8  11
ATOM     11  C   LIG d   1      -6.679  91.412 114.667  0.00  0.00     0.028 C 
ATOM     12  C   LIG d   1      -7.102  92.770 114.083  0.00  0.00     0.006 C 
ENDBRANCH   8  11
ENDBRANCH   7   8
ENDBRANCH   1   7
BRANCH   6  13
ATOM     13  N   LIG d   1      -4.313  90.546 118.689  0.00  0.00    -0.311 N 
ATOM     14  C   LIG d   1      -3.187  89.988 118.250  0.00  0.00     0.210 C 
ATOM     15  C   LIG d   1      -2.707  88.778 119.059  0.00  0.00     0.109 C 
ATOM     16  O   LIG d   1      -2.522  90.398 117.287  0.00  0.00    -0.276 OA
ATOM     17  H   LIG d   1      -4.769  90.168 119.497  0.00  0.00     0.149 HD
ENDBRANCH   6  13
BRANCH   5  18
ATOM     18  N   LIG d   1      -3.209  93.395 118.735  0.00  0.00     0.381 N 
ATOM     19  H   LIG d   1      -3.064  94.177 118.129  0.00  0.00    -0.090 HD
ATOM     20  H   LIG d   1      -2.690  92.614 118.374  0.00  0.00    -0.090 HD
ATOM     21  H   LIG d   1      -2.894  93.615 119.654  0.00  0.00    -0.090 HD
ENDBRANCH   5  18
BRANCH   3  22
ATOM     22  C   LIG d   1      -7.659  94.975 117.937  0.00  0.00     0.382 C 
ATOM     23  O   LIG d   1      -7.282  96.098 118.349  0.00  0.00    -0.241 OA
ATOM     24  O   LIG d   1      -8.842  94.819 117.580  0.00  0.00    -0.241 OA
ENDBRANCH   3  22
TORSDOF 7
ENDMDL
MODEL 8
REMARK VINA RESULT:      -4.9      2.656      4.397
REMARK  7 active torsions:
REMARK  status: ('A' for Active; 'I' for Inactive)
REMARK    1  A    between atoms: C_2  and  C_3 
REMARK    2  A    between atoms: C_3  and  O_6 
REMARK    3  A    between atoms: C_3  and  C_4 
REMARK    4  A    between atoms: C_7  and  O_6 
REMARK    5  A    between atoms: C_9  and  C_10 
REMARK    6  A    between atoms: N_15  and  C_14 
REMARK    7  A    between atoms: N_20  and  C_19 
REMARK       I    between atoms: C_22  and  N_20 
ROOT
ATOM      1  C   LIG d   1      -5.891  93.327 117.812  0.00  0.00     0.161 C 
ATOM      2  C   LIG d   1      -7.115  94.010 117.717  0.00  0.00     0.016 C 
ATOM      3  C   LIG d   1      -7.313  95.323 118.202  0.00  0.00     0.038 C 
ATOM      4  C   LIG d   1      -6.252  96.103 118.684  0.00  0.00     0.028 C 
ATOM      5  C   LIG d   1      -5.108  95.278 119.263  0.00  0.00    -0.047 C 
ATOM      6  C   LIG d   1      -4.693  94.203 118.234  0.00  0.00     0.091 C 
ENDROOT
BRANCH   1   7
ATOM      7  O   LIG d   1      -5.608  92.656 116.568  0.00  0.00    -0.368 OA
BRANCH   7   8
ATOM      8  C   LIG d   1      -6.009  91.266 116.488  0.00  0.00     0.119 C 
BRANCH   8   9
ATOM      9  C   LIG d   1      -4.794  90.463 115.983  0.00  0.00     0.028 C 
ATOM     10  C   LIG d   1      -3.819  90.099 117.116  0.00  0.00     0.006 C 
ENDBRANCH   8   9
BRANCH   8  11
ATOM     11  C   LIG d   1      -7.099  91.059 115.432  0.00  0.00     0.028 C 
ATOM     12  C   LIG d   1      -6.941  91.994 114.223  0.00  0.00     0.006 C 
ENDBRANCH   8  11
ENDBRANCH   7   8
ENDBRANCH   1   7
BRANCH   6  13
ATOM     13  N   LIG d   1      -3.635  93.297 118.754  0.00  0.00    -0.311 N 
ATOM     14  C   LIG d   1      -2.344  93.429 118.454  0.00  0.00     0.210 C 
ATOM     15  C   LIG d   1      -1.424  92.377 119.081  0.00  0.00     0.109 C 
ATOM     16  O   LIG d   1      -1.870  94.337 117.755  0.00  0.00    -0.276 OA
ATOM     17  H   LIG d   1      -3.928  92.551 119.355  0.00  0.00     0.149 HD
ENDBRANCH   6  13
BRANCH   5  18
ATOM     18  N   LIG d   1      -4.013  96.208 119.600  0.00  0.00     0.381 N 
ATOM     19  H   LIG d   1      -4.169  97.090 119.154  0.00  0.00    -0.090 HD
ATOM     20  H   LIG d   1      -3.148  95.830 119.258  0.00  0.00    -0.090 HD
ATOM     21  H   LIG d   1      -3.963  96.332 120.588  0.00  0.00    -0.090 HD
ENDBRANCH   5  18
BRANCH   3  22
ATOM     22  C   LIG d   1      -8.593  95.854 118.246  0.00  0.00     0.382 C 
ATOM     23  O   LIG d   1      -8.769  97.082 118.060  0.00  0.00    -0.241 OA
ATOM     24  O   LIG d   1      -9.570  95.128 118.513  0.00  0.00    -0.241 OA
ENDBRANCH   3  22
TORSDOF 7
ENDMDL
MODEL 9
REMARK VINA RESULT:      -4.9      2.808      4.513
REMARK  7 active torsions:
REMARK  status: ('A' for Active; 'I' for Inactive)
REMARK    1  A    between atoms: C_2  and  C_3 
REMARK    2  A    between atoms: C_3  and  O_6 
REMARK    3  A    between atoms: C_3  and  C_4 
REMARK    4  A    between atoms: C_7  and  O_6 
REMARK    5  A    between atoms: C_9  and  C_10 
REMARK    6  A    between atoms: N_15  and  C_14 
REMARK    7  A    between atoms: N_20  and  C_19 
REMARK       I    between atoms: C_22  and  N_20 
ROOT
ATOM      1  C   LIG d   1      -6.373  93.013 118.781  0.00  0.00     0.161 C 
ATOM      2  C   LIG d   1      -7.595  93.704 118.744  0.00  0.00     0.016 C 
ATOM      3  C   LIG d   1      -7.691  95.115 118.721  0.00  0.00     0.038 C 
ATOM      4  C   LIG d   1      -6.559  95.932 118.580  0.00  0.00     0.028 C 
ATOM      5  C   LIG d   1      -5.283  95.298 119.122  0.00  0.00    -0.047 C 
ATOM      6  C   LIG d   1      -5.128  93.885 118.516  0.00  0.00     0.091 C 
ENDROOT
BRANCH   1   7
ATOM      7  O   LIG d   1      -6.412  91.902 117.863  0.00  0.00    -0.368 OA
BRANCH   7   8
ATOM      8  C   LIG d   1      -5.902  92.159 116.531  0.00  0.00     0.119 C 
BRANCH   8   9
ATOM      9  C   LIG d   1      -7.103  92.528 115.639  0.00  0.00     0.028 C 
ATOM     10  C   LIG d   1      -6.929  92.042 114.190  0.00  0.00     0.006 C 
ENDBRANCH   8   9
BRANCH   8  11
ATOM     11  C   LIG d   1      -5.309  90.891 115.908  0.00  0.00     0.028 C 
ATOM     12  C   LIG d   1      -4.122  90.334 116.709  0.00  0.00     0.006 C 
ENDBRANCH   8  11
ENDBRANCH   7   8
ENDBRANCH   1   7
BRANCH   6  13
ATOM     13  N   LIG d   1      -3.949  93.161 119.059  0.00  0.00    -0.311 N 
ATOM     14  C   LIG d   1      -2.728  93.254 118.535  0.00  0.00     0.210 C 
ATOM     15  C   LIG d   1      -1.658  92.410 119.235  0.00  0.00     0.109 C 
ATOM     16  O   LIG d   1      -2.422  93.979 117.576  0.00  0.00    -0.276 OA
ATOM     17  H   LIG d   1      -4.100  92.574 119.855  0.00  0.00     0.149 HD
ENDBRANCH   6  13
BRANCH   5  18
ATOM     18  N   LIG d   1      -4.162  96.197 118.787  0.00  0.00     0.381 N 
ATOM     19  H   LIG d   1      -3.991  96.172 117.802  0.00  0.00    -0.090 HD
ATOM     20  H   LIG d   1      -3.335  95.875 119.259  0.00  0.00    -0.090 HD
ATOM     21  H   LIG d   1      -4.374  97.128 119.072  0.00  0.00    -0.090 HD
ENDBRANCH   5  18
BRANCH   3  22
ATOM     22  C   LIG d   1      -8.927  95.723 118.879  0.00  0.00     0.382 C 
ATOM     23  O   LIG d   1      -9.033  96.967 118.761  0.00  0.00    -0.241 OA
ATOM     24  O   LIG d   1      -9.929  95.047 119.182  0.00  0.00    -0.241 OA
ENDBRANCH   3  22
TORSDOF 7
ENDMDL
