MODEL 1
REMARK VINA RESULT:      -5.5      0.000      0.000
REMARK  7 active torsions:
REMARK  status: ('A' for Active; 'I' for Inactive)
REMARK    1  A    between atoms: C_2  and  C_3 
REMARK    2  A    between atoms: C_3  and  O_6 
REMARK    3  A    between atoms: C_3  and  C_4 
REMARK    4  A    between atoms: C_7  and  O_6 
REMARK    5  A    between atoms: C_9  and  C_10 
REMARK    6  A    between atoms: N_15  and  C_14 
REMARK    7  A    between atoms: N_20  and  C_19 
REMARK       I    between atoms: C_22  and  N_20 
ROOT
ATOM      1  C   LIG d   1      -4.473  90.961 117.557  0.00  0.00     0.161 C 
ATOM      2  C   LIG d   1      -5.316  90.295 116.652  0.00  0.00     0.016 C 
ATOM      3  C   LIG d   1      -6.553  90.817 116.211  0.00  0.00     0.038 C 
ATOM      4  C   LIG d   1      -6.965  92.119 116.532  0.00  0.00     0.028 C 
ATOM      5  C   LIG d   1      -6.386  92.630 117.847  0.00  0.00    -0.047 C 
ATOM      6  C   LIG d   1      -4.854  92.432 117.831  0.00  0.00     0.091 C 
ENDROOT
BRANCH   1   7
ATOM      7  O   LIG d   1      -3.106  90.873 117.109  0.00  0.00    -0.368 OA
BRANCH   7   8
ATOM      8  C   LIG d   1      -2.187  90.194 117.999  0.00  0.00     0.119 C 
BRANCH   8   9
ATOM      9  C   LIG d   1      -0.758  90.508 117.515  0.00  0.00     0.028 C 
ATOM     10  C   LIG d   1      -0.007  91.449 118.473  0.00  0.00     0.006 C 
ENDBRANCH   8   9
BRANCH   8  11
ATOM     11  C   LIG d   1      -2.327  88.673 117.890  0.00  0.00     0.028 C 
ATOM     12  C   LIG d   1      -2.779  88.020 119.206  0.00  0.00     0.006 C 
ENDBRANCH   8  11
ENDBRANCH   7   8
ENDBRANCH   1   7
BRANCH   6  13
ATOM     13  N   LIG d   1      -4.218  92.829 119.115  0.00  0.00    -0.311 N 
ATOM     14  C   LIG d   1      -3.091  93.536 119.186  0.00  0.00     0.210 C 
ATOM     15  C   LIG d   1      -2.596  93.820 120.608  0.00  0.00     0.109 C 
ATOM     16  O   LIG d   1      -2.472  93.982 118.209  0.00  0.00    -0.276 OA
ATOM     17  H   LIG d   1      -4.670  92.535 119.958  0.00  0.00     0.149 HD
ENDBRANCH   6  13
BRANCH   5  18
ATOM     18  N   LIG d   1      -6.785  94.044 117.989  0.00  0.00     0.381 N 
ATOM     19  H   LIG d   1      -5.988  94.635 117.860  0.00  0.00    -0.090 HD
ATOM     20  H   LIG d   1      -7.139  94.190 118.918  0.00  0.00    -0.090 HD
ATOM     21  H   LIG d   1      -7.487  94.269 117.319  0.00  0.00    -0.090 HD
ENDBRANCH   5  18
BRANCH   3  22
ATOM     22  C   LIG d   1      -7.413  90.017 115.472  0.00  0.00     0.382 C 
ATOM     23  O   LIG d   1      -8.277  89.319 116.056  0.00  0.00    -0.241 OA
ATOM     24  O   LIG d   1      -7.305  89.952 114.233  0.00  0.00    -0.241 OA
ENDBRANCH   3  22
TORSDOF 7
ENDMDL
MODEL 2
REMARK VINA RESULT:      -5.4      2.342      4.651
REMARK  7 active torsions:
REMARK  status: ('A' for Active; 'I' for Inactive)
REMARK    1  A    between atoms: C_2  and  C_3 
REMARK    2  A    between atoms: C_3  and  O_6 
REMARK    3  A    between atoms: C_3  and  C_4 
REMARK    4  A    between atoms: C_7  and  O_6 
REMARK    5  A    between atoms: C_9  and  C_10 
REMARK    6  A    between atoms: N_15  and  C_14 
REMARK    7  A    between atoms: N_20  and  C_19 
REMARK       I    between atoms: C_22  and  N_20 
ROOT
ATOM      1  C   LIG d   1      -6.316  92.918 117.255  0.00  0.00     0.161 C 
ATOM      2  C   LIG d   1      -7.135  92.186 116.379  0.00  0.00     0.016 C 
ATOM      3  C   LIG d   1      -6.719  90.997 115.736  0.00  0.00     0.038 C 
ATOM      4  C   LIG d   1      -5.501  90.374 116.045  0.00  0.00     0.028 C 
ATOM      5  C   LIG d   1      -4.434  91.343 116.543  0.00  0.00    -0.047 C 
ATOM      6  C   LIG d   1      -5.025  92.194 117.690  0.00  0.00     0.091 C 
ENDROOT
BRANCH   1   7
ATOM      7  O   LIG d   1      -7.076  93.324 118.410  0.00  0.00    -0.368 OA
BRANCH   7   8
ATOM      8  C   LIG d   1      -6.905  94.699 118.835  0.00  0.00     0.119 C 
BRANCH   8   9
ATOM      9  C   LIG d   1      -6.580  94.681 120.341  0.00  0.00     0.028 C 
ATOM     10  C   LIG d   1      -6.602  93.260 120.929  0.00  0.00     0.006 C 
ENDBRANCH   8   9
BRANCH   8  11
ATOM     11  C   LIG d   1      -8.212  95.487 118.711  0.00  0.00     0.028 C 
ATOM     12  C   LIG d   1      -8.412  96.493 119.856  0.00  0.00     0.006 C 
ENDBRANCH   8  11
ENDBRANCH   7   8
ENDBRANCH   1   7
BRANCH   6  13
ATOM     13  N   LIG d   1      -4.073  93.226 118.178  0.00  0.00    -0.311 N 
ATOM     14  C   LIG d   1      -3.268  93.045 119.224  0.00  0.00     0.210 C 
ATOM     15  C   LIG d   1      -2.380  94.244 119.571  0.00  0.00     0.109 C 
ATOM     16  O   LIG d   1      -3.181  91.994 119.876  0.00  0.00    -0.276 OA
ATOM     17  H   LIG d   1      -4.055  94.098 117.687  0.00  0.00     0.149 HD
ENDBRANCH   6  13
BRANCH   5  18
ATOM     18  N   LIG d   1      -3.265  90.544 116.958  0.00  0.00     0.381 N 
ATOM     19  H   LIG d   1      -3.068  89.848 116.267  0.00  0.00    -0.090 HD
ATOM     20  H   LIG d   1      -3.480  90.079 117.822  0.00  0.00    -0.090 HD
ATOM     21  H   LIG d   1      -2.473  91.136 117.078  0.00  0.00    -0.090 HD
ENDBRANCH   5  18
BRANCH   3  22
ATOM     22  C   LIG d   1      -7.510  90.441 114.742  0.00  0.00     0.382 C 
ATOM     23  O   LIG d   1      -8.710  90.790 114.627  0.00  0.00    -0.241 OA
ATOM     24  O   LIG d   1      -7.051  89.563 113.987  0.00  0.00    -0.241 OA
ENDBRANCH   3  22
TORSDOF 7
ENDMDL
MODEL 3
REMARK VINA RESULT:      -5.0      1.789      4.585
REMARK  7 active torsions:
REMARK  status: ('A' for Active; 'I' for Inactive)
REMARK    1  A    between atoms: C_2  and  C_3 
REMARK    2  A    between atoms: C_3  and  O_6 
REMARK    3  A    between atoms: C_3  and  C_4 
REMARK    4  A    between atoms: C_7  and  O_6 
REMARK    5  A    between atoms: C_9  and  C_10 
REMARK    6  A    between atoms: N_15  and  C_14 
REMARK    7  A    between atoms: N_20  and  C_19 
REMARK       I    between atoms: C_22  and  N_20 
ROOT
ATOM      1  C   LIG d   1      -4.404  90.921 117.233  0.00  0.00     0.161 C 
ATOM      2  C   LIG d   1      -3.325  91.728 117.634  0.00  0.00     0.016 C 
ATOM      3  C   LIG d   1      -3.479  92.913 118.389  0.00  0.00     0.038 C 
ATOM      4  C   LIG d   1      -4.717  93.294 118.927  0.00  0.00     0.028 C 
ATOM      5  C   LIG d   1      -5.909  92.783 118.125  0.00  0.00    -0.047 C 
ATOM      6  C   LIG d   1      -5.750  91.262 117.905  0.00  0.00     0.091 C 
ENDROOT
BRANCH   1   7
ATOM      7  O   LIG d   1      -4.078  89.532 117.439  0.00  0.00    -0.368 OA
BRANCH   7   8
ATOM      8  C   LIG d   1      -2.922  89.265 118.270  0.00  0.00     0.119 C 
BRANCH   8   9
ATOM      9  C   LIG d   1      -2.141  88.107 117.619  0.00  0.00     0.028 C 
ATOM     10  C   LIG d   1      -1.605  87.105 118.655  0.00  0.00     0.006 C 
ENDBRANCH   8   9
BRANCH   8  11
ATOM     11  C   LIG d   1      -3.336  88.749 119.651  0.00  0.00     0.028 C 
ATOM     12  C   LIG d   1      -3.124  89.787 120.764  0.00  0.00     0.006 C 
ENDBRANCH   8  11
ENDBRANCH   7   8
ENDBRANCH   1   7
BRANCH   6  13
ATOM     13  N   LIG d   1      -6.832  90.696 117.056  0.00  0.00    -0.311 N 
ATOM     14  C   LIG d   1      -7.137  91.166 115.848  0.00  0.00     0.210 C 
ATOM     15  C   LIG d   1      -8.299  90.450 115.151  0.00  0.00     0.109 C 
ATOM     16  O   LIG d   1      -6.536  92.086 115.274  0.00  0.00    -0.276 OA
ATOM     17  H   LIG d   1      -7.350  89.926 117.432  0.00  0.00     0.149 HD
ENDBRANCH   6  13
BRANCH   5  18
ATOM     18  N   LIG d   1      -7.132  93.135 118.871  0.00  0.00     0.381 N 
ATOM     19  H   LIG d   1      -7.525  93.977 118.500  0.00  0.00    -0.090 HD
ATOM     20  H   LIG d   1      -6.891  93.297 119.833  0.00  0.00    -0.090 HD
ATOM     21  H   LIG d   1      -7.796  92.394 118.807  0.00  0.00    -0.090 HD
ENDBRANCH   5  18
BRANCH   3  22
ATOM     22  C   LIG d   1      -2.392  93.753 118.580  0.00  0.00     0.382 C 
ATOM     23  O   LIG d   1      -2.184  94.263 119.706  0.00  0.00    -0.241 OA
ATOM     24  O   LIG d   1      -1.642  94.041 117.628  0.00  0.00    -0.241 OA
ENDBRANCH   3  22
TORSDOF 7
ENDMDL
MODEL 4
REMARK VINA RESULT:      -4.9      2.277      3.640
REMARK  7 active torsions:
REMARK  status: ('A' for Active; 'I' for Inactive)
REMARK    1  A    between atoms: C_2  and  C_3 
REMARK    2  A    between atoms: C_3  and  O_6 
REMARK    3  A    between atoms: C_3  and  C_4 
REMARK    4  A    between atoms: C_7  and  O_6 
REMARK    5  A    between atoms: C_9  and  C_10 
REMARK    6  A    between atoms: N_15  and  C_14 
REMARK    7  A    between atoms: N_20  and  C_19 
REMARK       I    between atoms: C_22  and  N_20 
ROOT
ATOM      1  C   LIG d   1      -2.871  89.753 118.189  0.00  0.00     0.161 C 
ATOM      2  C   LIG d   1      -4.259  89.841 117.992  0.00  0.00     0.016 C 
ATOM      3  C   LIG d   1      -4.919  91.035 117.622  0.00  0.00     0.038 C 
ATOM      4  C   LIG d   1      -4.212  92.195 117.272  0.00  0.00     0.028 C 
ATOM      5  C   LIG d   1      -2.846  92.296 117.942  0.00  0.00    -0.047 C 
ATOM      6  C   LIG d   1      -2.071  90.980 117.704  0.00  0.00     0.091 C 
ENDROOT
BRANCH   1   7
ATOM      7  O   LIG d   1      -2.366  88.551 117.575  0.00  0.00    -0.368 OA
BRANCH   7   8
ATOM      8  C   LIG d   1      -1.936  87.505 118.480  0.00  0.00     0.119 C 
BRANCH   8   9
ATOM      9  C   LIG d   1      -2.239  87.981 119.914  0.00  0.00     0.028 C 
ATOM     10  C   LIG d   1      -2.855  86.871 120.783  0.00  0.00     0.006 C 
ENDBRANCH   8   9
BRANCH   8  11
ATOM     11  C   LIG d   1      -0.418  87.312 118.429  0.00  0.00     0.028 C 
ATOM     12  C   LIG d   1       0.120  87.194 116.994  0.00  0.00     0.006 C 
ENDBRANCH   8  11
ENDBRANCH   7   8
ENDBRANCH   1   7
BRANCH   6  13
ATOM     13  N   LIG d   1      -0.757  90.963 118.398  0.00  0.00    -0.311 N 
ATOM     14  C   LIG d   1       0.409  90.900 117.757  0.00  0.00     0.210 C 
ATOM     15  C   LIG d   1       1.644  90.873 118.664  0.00  0.00     0.109 C 
ATOM     16  O   LIG d   1       0.540  90.896 116.524  0.00  0.00    -0.276 OA
ATOM     17  H   LIG d   1      -0.769  90.995 119.398  0.00  0.00     0.149 HD
ENDBRANCH   6  13
BRANCH   5  18
ATOM     18  N   LIG d   1      -2.163  93.479 117.385  0.00  0.00     0.381 N 
ATOM     19  H   LIG d   1      -2.762  94.278 117.449  0.00  0.00    -0.090 HD
ATOM     20  H   LIG d   1      -1.964  93.312 116.414  0.00  0.00    -0.090 HD
ATOM     21  H   LIG d   1      -1.316  93.649 117.881  0.00  0.00    -0.090 HD
ENDBRANCH   5  18
BRANCH   3  22
ATOM     22  C   LIG d   1      -6.305  91.087 117.636  0.00  0.00     0.382 C 
ATOM     23  O   LIG d   1      -6.892  91.935 118.351  0.00  0.00    -0.241 OA
ATOM     24  O   LIG d   1      -6.975  90.269 116.978  0.00  0.00    -0.241 OA
ENDBRANCH   3  22
TORSDOF 7
ENDMDL
MODEL 5
REMARK VINA RESULT:      -4.9      2.351      3.558
REMARK  7 active torsions:
REMARK  status: ('A' for Active; 'I' for Inactive)
REMARK    1  A    between atoms: C_2  and  C_3 
REMARK    2  A    between atoms: C_3  and  O_6 
REMARK    3  A    between atoms: C_3  and  C_4 
REMARK    4  A    between atoms: C_7  and  O_6 
REMARK    5  A    between atoms: C_9  and  C_10 
REMARK    6  A    between atoms: N_15  and  C_14 
REMARK    7  A    between atoms: N_20  and  C_19 
REMARK       I    between atoms: C_22  and  N_20 
ROOT
ATOM      1  C   LIG d   1      -2.811  89.893 118.537  0.00  0.00     0.161 C 
ATOM      2  C   LIG d   1      -4.203  89.958 118.359  0.00  0.00     0.016 C 
ATOM      3  C   LIG d   1      -4.871  91.097 117.854  0.00  0.00     0.038 C 
ATOM      4  C   LIG d   1      -4.172  92.202 117.347  0.00  0.00     0.028 C 
ATOM      5  C   LIG d   1      -2.792  92.385 117.972  0.00  0.00    -0.047 C 
ATOM      6  C   LIG d   1      -2.021  91.048 117.886  0.00  0.00     0.091 C 
ENDROOT
BRANCH   1   7
ATOM      7  O   LIG d   1      -2.316  88.623 118.069  0.00  0.00    -0.368 OA
BRANCH   7   8
ATOM      8  C   LIG d   1      -1.639  87.801 119.052  0.00  0.00     0.119 C 
BRANCH   8   9
ATOM      9  C   LIG d   1      -0.786  86.772 118.286  0.00  0.00     0.028 C 
ATOM     10  C   LIG d   1      -0.188  87.351 116.993  0.00  0.00     0.006 C 
ENDBRANCH   8   9
BRANCH   8  11
ATOM     11  C   LIG d   1      -2.636  86.975 119.870  0.00  0.00     0.028 C 
ATOM     12  C   LIG d   1      -2.191  85.515 120.051  0.00  0.00     0.006 C 
ENDBRANCH   8  11
ENDBRANCH   7   8
ENDBRANCH   1   7
BRANCH   6  13
ATOM     13  N   LIG d   1      -0.693  91.116 118.550  0.00  0.00    -0.311 N 
ATOM     14  C   LIG d   1       0.461  91.025 117.891  0.00  0.00     0.210 C 
ATOM     15  C   LIG d   1       1.714  91.099 118.770  0.00  0.00     0.109 C 
ATOM     16  O   LIG d   1       0.567  90.922 116.660  0.00  0.00    -0.276 OA
ATOM     17  H   LIG d   1      -0.686  91.230 119.544  0.00  0.00     0.149 HD
ENDBRANCH   6  13
BRANCH   5  18
ATOM     18  N   LIG d   1      -2.122  93.487 117.256  0.00  0.00     0.381 N 
ATOM     19  H   LIG d   1      -1.218  93.649 117.654  0.00  0.00    -0.090 HD
ATOM     20  H   LIG d   1      -2.667  94.324 117.362  0.00  0.00    -0.090 HD
ATOM     21  H   LIG d   1      -2.032  93.261 116.290  0.00  0.00    -0.090 HD
ENDBRANCH   5  18
BRANCH   3  22
ATOM     22  C   LIG d   1      -6.256  91.153 117.889  0.00  0.00     0.382 C 
ATOM     23  O   LIG d   1      -6.933  90.421 117.128  0.00  0.00    -0.241 OA
ATOM     24  O   LIG d   1      -6.836  91.958 118.642  0.00  0.00    -0.241 OA
ENDBRANCH   3  22
TORSDOF 7
ENDMDL
MODEL 6
REMARK VINA RESULT:      -4.7      1.985      5.284
REMARK  7 active torsions:
REMARK  status: ('A' for Active; 'I' for Inactive)
REMARK    1  A    between atoms: C_2  and  C_3 
REMARK    2  A    between atoms: C_3  and  O_6 
REMARK    3  A    between atoms: C_3  and  C_4 
REMARK    4  A    between atoms: C_7  and  O_6 
REMARK    5  A    between atoms: C_9  and  C_10 
REMARK    6  A    between atoms: N_15  and  C_14 
REMARK    7  A    between atoms: N_20  and  C_19 
REMARK       I    between atoms: C_22  and  N_20 
ROOT
ATOM      1  C   LIG d   1      -5.029  91.488 117.407  0.00  0.00     0.161 C 
ATOM      2  C   LIG d   1      -3.937  90.620 117.237  0.00  0.00     0.016 C 
ATOM      3  C   LIG d   1      -2.703  90.782 117.906  0.00  0.00     0.038 C 
ATOM      4  C   LIG d   1      -2.525  91.744 118.912  0.00  0.00     0.028 C 
ATOM      5  C   LIG d   1      -3.433  92.959 118.756  0.00  0.00    -0.047 C 
ATOM      6  C   LIG d   1      -4.892  92.477 118.584  0.00  0.00     0.091 C 
ENDROOT
BRANCH   1   7
ATOM      7  O   LIG d   1      -6.245  90.725 117.533  0.00  0.00    -0.368 OA
BRANCH   7   8
ATOM      8  C   LIG d   1      -7.305  91.057 116.603  0.00  0.00     0.119 C 
BRANCH   8   9
ATOM      9  C   LIG d   1      -7.643  89.779 115.811  0.00  0.00     0.028 C 
ATOM     10  C   LIG d   1      -9.085  89.302 116.053  0.00  0.00     0.006 C 
ENDBRANCH   8   9
BRANCH   8  11
ATOM     11  C   LIG d   1      -6.832  92.070 115.557  0.00  0.00     0.028 C 
ATOM     12  C   LIG d   1      -6.857  91.506 114.127  0.00  0.00     0.006 C 
ENDBRANCH   8  11
ENDBRANCH   7   8
ENDBRANCH   1   7
BRANCH   6  13
ATOM     13  N   LIG d   1      -5.835  93.599 118.340  0.00  0.00    -0.311 N 
ATOM     14  C   LIG d   1      -6.548  94.179 119.304  0.00  0.00     0.210 C 
ATOM     15  C   LIG d   1      -7.475  95.305 118.833  0.00  0.00     0.109 C 
ATOM     16  O   LIG d   1      -6.478  93.890 120.507  0.00  0.00    -0.276 OA
ATOM     17  H   LIG d   1      -5.930  93.918 117.396  0.00  0.00     0.149 HD
ENDBRANCH   6  13
BRANCH   5  18
ATOM     18  N   LIG d   1      -3.243  93.813 119.943  0.00  0.00     0.381 N 
ATOM     19  H   LIG d   1      -3.411  94.770 119.703  0.00  0.00    -0.090 HD
ATOM     20  H   LIG d   1      -2.291  93.729 120.255  0.00  0.00    -0.090 HD
ATOM     21  H   LIG d   1      -3.865  93.531 120.669  0.00  0.00    -0.090 HD
ENDBRANCH   5  18
BRANCH   3  22
ATOM     22  C   LIG d   1      -1.616  90.002 117.541  0.00  0.00     0.382 C 
ATOM     23  O   LIG d   1      -0.616  90.534 117.001  0.00  0.00    -0.241 OA
ATOM     24  O   LIG d   1      -1.641  88.768 117.704  0.00  0.00    -0.241 OA
ENDBRANCH   3  22
TORSDOF 7
ENDMDL
MODEL 7
REMARK VINA RESULT:      -4.7      1.857      2.513
REMARK  7 active torsions:
REMARK  status: ('A' for Active; 'I' for Inactive)
REMARK    1  A    between atoms: C_2  and  C_3 
REMARK    2  A    between atoms: C_3  and  O_6 
REMARK    3  A    between atoms: C_3  and  C_4 
REMARK    4  A    between atoms: C_7  and  O_6 
REMARK    5  A    between atoms: C_9  and  C_10 
REMARK    6  A    between atoms: N_15  and  C_14 
REMARK    7  A    between atoms: N_20  and  C_19 
REMARK       I    between atoms: C_22  and  N_20 
ROOT
ATOM      1  C   LIG d   1      -2.319  90.445 117.908  0.00  0.00     0.161 C 
ATOM      2  C   LIG d   1      -3.469  90.012 117.227  0.00  0.00     0.016 C 
ATOM      3  C   LIG d   1      -4.603  90.829 117.016  0.00  0.00     0.038 C 
ATOM      4  C   LIG d   1      -4.604  92.194 117.342  0.00  0.00     0.028 C 
ATOM      5  C   LIG d   1      -3.657  92.545 118.484  0.00  0.00    -0.047 C 
ATOM      6  C   LIG d   1      -2.258  91.964 118.173  0.00  0.00     0.091 C 
ENDROOT
BRANCH   1   7
ATOM      7  O   LIG d   1      -1.140  90.013 117.201  0.00  0.00    -0.368 OA
BRANCH   7   8
ATOM      8  C   LIG d   1      -0.310  89.039 117.881  0.00  0.00     0.119 C 
BRANCH   8   9
ATOM      9  C   LIG d   1       1.140  89.256 117.407  0.00  0.00     0.028 C 
ATOM     10  C   LIG d   1       1.385  90.688 116.903  0.00  0.00     0.006 C 
ENDBRANCH   8   9
BRANCH   8  11
ATOM     11  C   LIG d   1      -0.666  87.611 117.458  0.00  0.00     0.028 C 
ATOM     12  C   LIG d   1      -1.297  86.792 118.595  0.00  0.00     0.006 C 
ENDBRANCH   8  11
ENDBRANCH   7   8
ENDBRANCH   1   7
BRANCH   6  13
ATOM     13  N   LIG d   1      -1.292  92.189 119.280  0.00  0.00    -0.311 N 
ATOM     14  C   LIG d   1      -0.254  93.019 119.189  0.00  0.00     0.210 C 
ATOM     15  C   LIG d   1       0.630  93.088 120.438  0.00  0.00     0.109 C 
ATOM     16  O   LIG d   1       0.001  93.728 118.203  0.00  0.00    -0.276 OA
ATOM     17  H   LIG d   1      -1.442  91.678 120.127  0.00  0.00     0.149 HD
ENDBRANCH   6  13
BRANCH   5  18
ATOM     18  N   LIG d   1      -3.655  94.013 118.627  0.00  0.00     0.381 N 
ATOM     19  H   LIG d   1      -4.487  94.393 118.222  0.00  0.00    -0.090 HD
ATOM     20  H   LIG d   1      -2.864  94.386 118.132  0.00  0.00    -0.090 HD
ATOM     21  H   LIG d   1      -3.601  94.262 119.590  0.00  0.00    -0.090 HD
ENDBRANCH   5  18
BRANCH   3  22
ATOM     22  C   LIG d   1      -5.767  90.272 116.509  0.00  0.00     0.382 C 
ATOM     23  O   LIG d   1      -5.734  89.616 115.439  0.00  0.00    -0.241 OA
ATOM     24  O   LIG d   1      -6.857  90.455 117.083  0.00  0.00    -0.241 OA
ENDBRANCH   3  22
TORSDOF 7
ENDMDL
MODEL 8
REMARK VINA RESULT:      -4.6      3.284      4.914
REMARK  7 active torsions:
REMARK  status: ('A' for Active; 'I' for Inactive)
REMARK    1  A    between atoms: C_2  and  C_3 
REMARK    2  A    between atoms: C_3  and  O_6 
REMARK    3  A    between atoms: C_3  and  C_4 
REMARK    4  A    between atoms: C_7  and  O_6 
REMARK    5  A    between atoms: C_9  and  C_10 
REMARK    6  A    between atoms: N_15  and  C_14 
REMARK    7  A    between atoms: N_20  and  C_19 
REMARK       I    between atoms: C_22  and  N_20 
ROOT
ATOM      1  C   LIG d   1      -6.332  93.397 119.599  0.00  0.00     0.161 C 
ATOM      2  C   LIG d   1      -7.559  94.062 119.439  0.00  0.00     0.016 C 
ATOM      3  C   LIG d   1      -7.675  95.468 119.343  0.00  0.00     0.038 C 
ATOM      4  C   LIG d   1      -6.549  96.300 119.249  0.00  0.00     0.028 C 
ATOM      5  C   LIG d   1      -5.307  95.716 119.914  0.00  0.00    -0.047 C 
ATOM      6  C   LIG d   1      -5.085  94.280 119.387  0.00  0.00     0.091 C 
ENDROOT
BRANCH   1   7
ATOM      7  O   LIG d   1      -6.284  92.245 118.734  0.00  0.00    -0.368 OA
BRANCH   7   8
ATOM      8  C   LIG d   1      -5.794  92.478 117.390  0.00  0.00     0.119 C 
BRANCH   8   9
ATOM      9  C   LIG d   1      -6.947  92.164 116.416  0.00  0.00     0.028 C 
ATOM     10  C   LIG d   1      -6.442  91.754 115.023  0.00  0.00     0.006 C 
ENDBRANCH   8   9
BRANCH   8  11
ATOM     11  C   LIG d   1      -4.677  91.496 117.026  0.00  0.00     0.028 C 
ATOM     12  C   LIG d   1      -4.386  90.483 118.145  0.00  0.00     0.006 C 
ENDBRANCH   8  11
ENDBRANCH   7   8
ENDBRANCH   1   7
BRANCH   6  13
ATOM     13  N   LIG d   1      -3.938  93.605 120.049  0.00  0.00    -0.311 N 
ATOM     14  C   LIG d   1      -2.716  93.550 119.523  0.00  0.00     0.210 C 
ATOM     15  C   LIG d   1      -1.684  92.788 120.360  0.00  0.00     0.109 C 
ATOM     16  O   LIG d   1      -2.380  94.088 118.457  0.00  0.00    -0.276 OA
ATOM     17  H   LIG d   1      -4.114  93.168 120.933  0.00  0.00     0.149 HD
ENDBRANCH   6  13
BRANCH   5  18
ATOM     18  N   LIG d   1      -4.179  96.620 119.622  0.00  0.00     0.381 N 
ATOM     19  H   LIG d   1      -4.502  97.406 119.094  0.00  0.00    -0.090 HD
ATOM     20  H   LIG d   1      -3.501  96.126 119.068  0.00  0.00    -0.090 HD
ATOM     21  H   LIG d   1      -3.761  96.930 120.471  0.00  0.00    -0.090 HD
ENDBRANCH   5  18
BRANCH   3  22
ATOM     22  C   LIG d   1      -8.929  96.058 119.381  0.00  0.00     0.382 C 
ATOM     23  O   LIG d   1      -9.859  95.600 118.674  0.00  0.00    -0.241 OA
ATOM     24  O   LIG d   1      -9.130  97.070 120.079  0.00  0.00    -0.241 OA
ENDBRANCH   3  22
TORSDOF 7
ENDMDL
MODEL 9
REMARK VINA RESULT:      -4.6      2.806      6.665
REMARK  7 active torsions:
REMARK  status: ('A' for Active; 'I' for Inactive)
REMARK    1  A    between atoms: C_2  and  C_3 
REMARK    2  A    between atoms: C_3  and  O_6 
REMARK    3  A    between atoms: C_3  and  C_4 
REMARK    4  A    between atoms: C_7  and  O_6 
REMARK    5  A    between atoms: C_9  and  C_10 
REMARK    6  A    between atoms: N_15  and  C_14 
REMARK    7  A    between atoms: N_20  and  C_19 
REMARK       I    between atoms: C_22  and  N_20 
ROOT
ATOM      1  C   LIG d   1      -6.332  92.474 118.848  0.00  0.00     0.161 C 
ATOM      2  C   LIG d   1      -5.201  92.955 119.529  0.00  0.00     0.016 C 
ATOM      3  C   LIG d   1      -3.875  92.711 119.103  0.00  0.00     0.038 C 
ATOM      4  C   LIG d   1      -3.592  92.093 117.877  0.00  0.00     0.028 C 
ATOM      5  C   LIG d   1      -4.692  91.147 117.406  0.00  0.00    -0.047 C 
ATOM      6  C   LIG d   1      -6.045  91.892 117.448  0.00  0.00     0.091 C 
ENDROOT
BRANCH   1   7
ATOM      7  O   LIG d   1      -7.330  93.510 118.766  0.00  0.00    -0.368 OA
BRANCH   7   8
ATOM      8  C   LIG d   1      -7.218  94.582 119.734  0.00  0.00     0.119 C 
BRANCH   8   9
ATOM      9  C   LIG d   1      -8.440  94.491 120.668  0.00  0.00     0.028 C 
ATOM     10  C   LIG d   1      -9.512  95.542 120.336  0.00  0.00     0.006 C 
ENDBRANCH   8   9
BRANCH   8  11
ATOM     11  C   LIG d   1      -7.323  95.954 119.061  0.00  0.00     0.028 C 
ATOM     12  C   LIG d   1      -6.159  96.889 119.429  0.00  0.00     0.006 C 
ENDBRANCH   8  11
ENDBRANCH   7   8
ENDBRANCH   1   7
BRANCH   6  13
ATOM     13  N   LIG d   1      -7.187  91.014 117.084  0.00  0.00    -0.311 N 
ATOM     14  C   LIG d   1      -7.619  90.853 115.834  0.00  0.00     0.210 C 
ATOM     15  C   LIG d   1      -8.823  89.918 115.681  0.00  0.00     0.109 C 
ATOM     16  O   LIG d   1      -7.100  91.371 114.834  0.00  0.00    -0.276 OA
ATOM     17  H   LIG d   1      -7.647  90.530 117.830  0.00  0.00     0.149 HD
ENDBRANCH   6  13
BRANCH   5  18
ATOM     18  N   LIG d   1      -4.330  90.680 116.055  0.00  0.00     0.381 N 
ATOM     19  H   LIG d   1      -5.160  90.504 115.524  0.00  0.00    -0.090 HD
ATOM     20  H   LIG d   1      -3.819  89.819 116.135  0.00  0.00    -0.090 HD
ATOM     21  H   LIG d   1      -3.772  91.365 115.595  0.00  0.00    -0.090 HD
ENDBRANCH   5  18
BRANCH   3  22
ATOM     22  C   LIG d   1      -2.815  93.053 119.929  0.00  0.00     0.382 C 
ATOM     23  O   LIG d   1      -2.089  92.155 120.421  0.00  0.00    -0.241 OA
ATOM     24  O   LIG d   1      -2.602  94.244 120.224  0.00  0.00    -0.241 OA
ENDBRANCH   3  22
TORSDOF 7
ENDMDL
