MODEL 1
REMARK VINA RESULT:      -5.4      0.000      0.000
REMARK  7 active torsions:
REMARK  status: ('A' for Active; 'I' for Inactive)
REMARK    1  A    between atoms: C_2  and  C_3 
REMARK    2  A    between atoms: C_3  and  O_6 
REMARK    3  A    between atoms: C_3  and  C_4 
REMARK    4  A    between atoms: C_7  and  O_6 
REMARK    5  A    between atoms: C_9  and  C_10 
REMARK    6  A    between atoms: N_15  and  C_14 
REMARK    7  A    between atoms: N_20  and  C_19 
REMARK       I    between atoms: C_22  and  N_20 
ROOT
ATOM      1  C   LIG d   1      -5.694  92.395 118.011  0.00  0.00     0.161 C 
ATOM      2  C   LIG d   1      -5.636  91.469 116.956  0.00  0.00     0.016 C 
ATOM      3  C   LIG d   1      -6.622  91.376 115.947  0.00  0.00     0.038 C 
ATOM      4  C   LIG d   1      -7.663  92.310 115.839  0.00  0.00     0.028 C 
ATOM      5  C   LIG d   1      -8.042  92.951 117.170  0.00  0.00    -0.047 C 
ATOM      6  C   LIG d   1      -6.764  93.495 117.847  0.00  0.00     0.091 C 
ENDROOT
BRANCH   1   7
ATOM      7  O   LIG d   1      -4.395  92.985 118.215  0.00  0.00    -0.368 OA
BRANCH   7   8
ATOM      8  C   LIG d   1      -3.550  92.342 119.200  0.00  0.00     0.119 C 
BRANCH   8   9
ATOM      9  C   LIG d   1      -3.830  93.012 120.559  0.00  0.00     0.028 C 
ATOM     10  C   LIG d   1      -3.607  94.534 120.519  0.00  0.00     0.006 C 
ENDBRANCH   8   9
BRANCH   8  11
ATOM     11  C   LIG d   1      -2.068  92.601 118.917  0.00  0.00     0.028 C 
ATOM     12  C   LIG d   1      -1.179  91.387 119.233  0.00  0.00     0.006 C 
ENDBRANCH   8  11
ENDBRANCH   7   8
ENDBRANCH   1   7
BRANCH   6  13
ATOM     13  N   LIG d   1      -7.034  94.064 119.194  0.00  0.00    -0.311 N 
ATOM     14  C   LIG d   1      -7.248  95.360 119.413  0.00  0.00     0.210 C 
ATOM     15  C   LIG d   1      -7.487  95.738 120.878  0.00  0.00     0.109 C 
ATOM     16  O   LIG d   1      -7.294  96.229 118.528  0.00  0.00    -0.276 OA
ATOM     17  H   LIG d   1      -7.045  93.425 119.965  0.00  0.00     0.149 HD
ENDBRANCH   6  13
BRANCH   5  18
ATOM     18  N   LIG d   1      -9.040  94.001 116.891  0.00  0.00     0.381 N 
ATOM     19  H   LIG d   1      -9.897  93.582 116.589  0.00  0.00    -0.090 HD
ATOM     20  H   LIG d   1      -8.698  94.586 116.149  0.00  0.00    -0.090 HD
ATOM     21  H   LIG d   1      -9.199  94.547 117.709  0.00  0.00    -0.090 HD
ENDBRANCH   5  18
BRANCH   3  22
ATOM     22  C   LIG d   1      -6.595  90.315 115.055  0.00  0.00     0.382 C 
ATOM     23  O   LIG d   1      -7.568  90.115 114.289  0.00  0.00    -0.241 OA
ATOM     24  O   LIG d   1      -5.629  89.528 115.038  0.00  0.00    -0.241 OA
ENDBRANCH   3  22
TORSDOF 7
ENDMDL
MODEL 2
REMARK VINA RESULT:      -5.2      1.748      4.931
REMARK  7 active torsions:
REMARK  status: ('A' for Active; 'I' for Inactive)
REMARK    1  A    between atoms: C_2  and  C_3 
REMARK    2  A    between atoms: C_3  and  O_6 
REMARK    3  A    between atoms: C_3  and  C_4 
REMARK    4  A    between atoms: C_7  and  O_6 
REMARK    5  A    between atoms: C_9  and  C_10 
REMARK    6  A    between atoms: N_15  and  C_14 
REMARK    7  A    between atoms: N_20  and  C_19 
REMARK       I    between atoms: C_22  and  N_20 
ROOT
ATOM      1  C   LIG d   1      -5.199  93.032 118.326  0.00  0.00     0.161 C 
ATOM      2  C   LIG d   1      -5.358  94.132 119.185  0.00  0.00     0.016 C 
ATOM      3  C   LIG d   1      -6.523  94.933 119.215  0.00  0.00     0.038 C 
ATOM      4  C   LIG d   1      -7.675  94.595 118.490  0.00  0.00     0.028 C 
ATOM      5  C   LIG d   1      -7.382  93.785 117.232  0.00  0.00    -0.047 C 
ATOM      6  C   LIG d   1      -6.488  92.581 117.607  0.00  0.00     0.091 C 
ENDROOT
BRANCH   1   7
ATOM      7  O   LIG d   1      -4.616  91.929 119.047  0.00  0.00    -0.368 OA
BRANCH   7   8
ATOM      8  C   LIG d   1      -3.333  91.460 118.565  0.00  0.00     0.119 C 
BRANCH   8   9
ATOM      9  C   LIG d   1      -3.202  89.977 118.964  0.00  0.00     0.028 C 
ATOM     10  C   LIG d   1      -2.790  89.085 117.781  0.00  0.00     0.006 C 
ENDBRANCH   8   9
BRANCH   8  11
ATOM     11  C   LIG d   1      -2.177  92.173 119.272  0.00  0.00     0.028 C 
ATOM     12  C   LIG d   1      -1.001  92.481 118.331  0.00  0.00     0.006 C 
ENDBRANCH   8  11
ENDBRANCH   7   8
ENDBRANCH   1   7
BRANCH   6  13
ATOM     13  N   LIG d   1      -6.085  91.783 116.420  0.00  0.00    -0.311 N 
ATOM     14  C   LIG d   1      -6.772  90.732 115.975  0.00  0.00     0.210 C 
ATOM     15  C   LIG d   1      -6.171  90.038 114.749  0.00  0.00     0.109 C 
ATOM     16  O   LIG d   1      -7.839  90.328 116.461  0.00  0.00    -0.276 OA
ATOM     17  H   LIG d   1      -5.247  92.061 115.946  0.00  0.00     0.149 HD
ENDBRANCH   6  13
BRANCH   5  18
ATOM     18  N   LIG d   1      -8.677  93.384 116.649  0.00  0.00     0.381 N 
ATOM     19  H   LIG d   1      -8.640  92.423 116.372  0.00  0.00    -0.090 HD
ATOM     20  H   LIG d   1      -8.851  93.941 115.831  0.00  0.00    -0.090 HD
ATOM     21  H   LIG d   1      -9.406  93.519 117.314  0.00  0.00    -0.090 HD
ENDBRANCH   5  18
BRANCH   3  22
ATOM     22  C   LIG d   1      -6.528  96.110 119.948  0.00  0.00     0.382 C 
ATOM     23  O   LIG d   1      -5.561  96.906 119.864  0.00  0.00    -0.241 OA
ATOM     24  O   LIG d   1      -7.467  96.366 120.726  0.00  0.00    -0.241 OA
ENDBRANCH   3  22
TORSDOF 7
ENDMDL
MODEL 3
REMARK VINA RESULT:      -4.5      4.757      7.615
REMARK  7 active torsions:
REMARK  status: ('A' for Active; 'I' for Inactive)
REMARK    1  A    between atoms: C_2  and  C_3 
REMARK    2  A    between atoms: C_3  and  O_6 
REMARK    3  A    between atoms: C_3  and  C_4 
REMARK    4  A    between atoms: C_7  and  O_6 
REMARK    5  A    between atoms: C_9  and  C_10 
REMARK    6  A    between atoms: N_15  and  C_14 
REMARK    7  A    between atoms: N_20  and  C_19 
REMARK       I    between atoms: C_22  and  N_20 
ROOT
ATOM      1  C   LIG d   1      -0.132  90.285 117.105  0.00  0.00     0.161 C 
ATOM      2  C   LIG d   1       1.211  90.034 116.776  0.00  0.00     0.016 C 
ATOM      3  C   LIG d   1       2.254  90.960 117.004  0.00  0.00     0.038 C 
ATOM      4  C   LIG d   1       2.047  92.149 117.719  0.00  0.00     0.028 C 
ATOM      5  C   LIG d   1       0.618  92.672 117.624  0.00  0.00    -0.047 C 
ATOM      6  C   LIG d   1      -0.359  91.531 117.987  0.00  0.00     0.091 C 
ENDROOT
BRANCH   1   7
ATOM      7  O   LIG d   1      -0.709  89.119 117.726  0.00  0.00    -0.368 OA
BRANCH   7   8
ATOM      8  C   LIG d   1      -0.467  88.968 119.146  0.00  0.00     0.119 C 
BRANCH   8   9
ATOM      9  C   LIG d   1       0.451  87.745 119.331  0.00  0.00     0.028 C 
ATOM     10  C   LIG d   1       0.250  86.688 118.232  0.00  0.00     0.006 C 
ENDBRANCH   8   9
BRANCH   8  11
ATOM     11  C   LIG d   1      -1.757  88.624 119.897  0.00  0.00     0.028 C 
ATOM     12  C   LIG d   1      -2.992  88.605 118.983  0.00  0.00     0.006 C 
ENDBRANCH   8  11
ENDBRANCH   7   8
ENDBRANCH   1   7
BRANCH   6  13
ATOM     13  N   LIG d   1      -1.782  91.934 117.838  0.00  0.00    -0.311 N 
ATOM     14  C   LIG d   1      -2.532  92.364 118.851  0.00  0.00     0.210 C 
ATOM     15  C   LIG d   1      -3.978  92.709 118.483  0.00  0.00     0.109 C 
ATOM     16  O   LIG d   1      -2.127  92.524 120.012  0.00  0.00    -0.276 OA
ATOM     17  H   LIG d   1      -2.182  91.865 116.923  0.00  0.00     0.149 HD
ENDBRANCH   6  13
BRANCH   5  18
ATOM     18  N   LIG d   1       0.508  93.835 118.525  0.00  0.00     0.381 N 
ATOM     19  H   LIG d   1       1.418  94.210 118.707  0.00  0.00    -0.090 HD
ATOM     20  H   LIG d   1       0.111  93.535 119.397  0.00  0.00    -0.090 HD
ATOM     21  H   LIG d   1      -0.070  94.533 118.111  0.00  0.00    -0.090 HD
ENDBRANCH   5  18
BRANCH   3  22
ATOM     22  C   LIG d   1       3.514  90.719 116.478  0.00  0.00     0.382 C 
ATOM     23  O   LIG d   1       3.640  90.401 115.271  0.00  0.00    -0.241 OA
ATOM     24  O   LIG d   1       4.524  90.772 117.206  0.00  0.00    -0.241 OA
ENDBRANCH   3  22
TORSDOF 7
ENDMDL
MODEL 4
REMARK VINA RESULT:      -4.4      5.815      8.731
REMARK  7 active torsions:
REMARK  status: ('A' for Active; 'I' for Inactive)
REMARK    1  A    between atoms: C_2  and  C_3 
REMARK    2  A    between atoms: C_3  and  O_6 
REMARK    3  A    between atoms: C_3  and  C_4 
REMARK    4  A    between atoms: C_7  and  O_6 
REMARK    5  A    between atoms: C_9  and  C_10 
REMARK    6  A    between atoms: N_15  and  C_14 
REMARK    7  A    between atoms: N_20  and  C_19 
REMARK       I    between atoms: C_22  and  N_20 
ROOT
ATOM      1  C   LIG d   1       0.749  88.826 117.332  0.00  0.00     0.161 C 
ATOM      2  C   LIG d   1      -0.630  88.567 117.413  0.00  0.00     0.016 C 
ATOM      3  C   LIG d   1      -1.568  89.496 117.918  0.00  0.00     0.038 C 
ATOM      4  C   LIG d   1      -1.208  90.813 118.239  0.00  0.00     0.028 C 
ATOM      5  C   LIG d   1       0.254  90.959 118.650  0.00  0.00    -0.047 C 
ATOM      6  C   LIG d   1       1.145  90.298 117.574  0.00  0.00     0.091 C 
ENDROOT
BRANCH   1   7
ATOM      7  O   LIG d   1       1.258  88.372 116.063  0.00  0.00    -0.368 OA
BRANCH   7   8
ATOM      8  C   LIG d   1       2.182  87.257 116.109  0.00  0.00     0.119 C 
BRANCH   8   9
ATOM      9  C   LIG d   1       3.183  87.438 114.951  0.00  0.00     0.028 C 
ATOM     10  C   LIG d   1       3.500  88.917 114.675  0.00  0.00     0.006 C 
ENDBRANCH   8   9
BRANCH   8  11
ATOM     11  C   LIG d   1       1.470  85.931 115.826  0.00  0.00     0.028 C 
ATOM     12  C   LIG d   1       1.262  85.675 114.325  0.00  0.00     0.006 C 
ENDBRANCH   8  11
ENDBRANCH   7   8
ENDBRANCH   1   7
BRANCH   6  13
ATOM     13  N   LIG d   1       2.586  90.321 117.939  0.00  0.00    -0.311 N 
ATOM     14  C   LIG d   1       3.427  91.275 117.543  0.00  0.00     0.210 C 
ATOM     15  C   LIG d   1       4.873  91.098 118.015  0.00  0.00     0.109 C 
ATOM     16  O   LIG d   1       3.105  92.268 116.873  0.00  0.00    -0.276 OA
ATOM     17  H   LIG d   1       2.925  89.569 118.507  0.00  0.00     0.149 HD
ENDBRANCH   6  13
BRANCH   5  18
ATOM     18  N   LIG d   1       0.527  92.398 118.822  0.00  0.00     0.381 N 
ATOM     19  H   LIG d   1      -0.329  92.887 118.996  0.00  0.00    -0.090 HD
ATOM     20  H   LIG d   1       0.928  92.757 117.973  0.00  0.00    -0.090 HD
ATOM     21  H   LIG d   1       1.158  92.537 119.581  0.00  0.00    -0.090 HD
ENDBRANCH   5  18
BRANCH   3  22
ATOM     22  C   LIG d   1      -2.876  89.097 118.145  0.00  0.00     0.382 C 
ATOM     23  O   LIG d   1      -3.814  89.632 117.506  0.00  0.00    -0.241 OA
ATOM     24  O   LIG d   1      -3.135  88.241 119.011  0.00  0.00    -0.241 OA
ENDBRANCH   3  22
TORSDOF 7
ENDMDL
MODEL 5
REMARK VINA RESULT:      -4.1      5.612      8.217
REMARK  7 active torsions:
REMARK  status: ('A' for Active; 'I' for Inactive)
REMARK    1  A    between atoms: C_2  and  C_3 
REMARK    2  A    between atoms: C_3  and  O_6 
REMARK    3  A    between atoms: C_3  and  C_4 
REMARK    4  A    between atoms: C_7  and  O_6 
REMARK    5  A    between atoms: C_9  and  C_10 
REMARK    6  A    between atoms: N_15  and  C_14 
REMARK    7  A    between atoms: N_20  and  C_19 
REMARK       I    between atoms: C_22  and  N_20 
ROOT
ATOM      1  C   LIG d   1       0.809  90.777 117.689  0.00  0.00     0.161 C 
ATOM      2  C   LIG d   1       1.295  90.050 116.590  0.00  0.00     0.016 C 
ATOM      3  C   LIG d   1       2.663  89.998 116.234  0.00  0.00     0.038 C 
ATOM      4  C   LIG d   1       3.662  90.552 117.049  0.00  0.00     0.028 C 
ATOM      5  C   LIG d   1       3.174  91.723 117.895  0.00  0.00    -0.047 C 
ATOM      6  C   LIG d   1       1.896  91.295 118.653  0.00  0.00     0.091 C 
ENDROOT
BRANCH   1   7
ATOM      7  O   LIG d   1      -0.161  89.988 118.406  0.00  0.00    -0.368 OA
BRANCH   7   8
ATOM      8  C   LIG d   1      -1.548  90.205 118.049  0.00  0.00     0.119 C 
BRANCH   8   9
ATOM      9  C   LIG d   1      -2.211  90.970 119.210  0.00  0.00     0.028 C 
ATOM     10  C   LIG d   1      -2.848  92.294 118.754  0.00  0.00     0.006 C 
ENDBRANCH   8   9
BRANCH   8  11
ATOM     11  C   LIG d   1      -2.311  88.881 117.948  0.00  0.00     0.028 C 
ATOM     12  C   LIG d   1      -2.851  88.399 119.304  0.00  0.00     0.006 C 
ENDBRANCH   8  11
ENDBRANCH   7   8
ENDBRANCH   1   7
BRANCH   6  13
ATOM     13  N   LIG d   1       1.305  92.409 119.440  0.00  0.00    -0.311 N 
ATOM     14  C   LIG d   1       0.706  93.462 118.886  0.00  0.00     0.210 C 
ATOM     15  C   LIG d   1       0.184  94.505 119.878  0.00  0.00     0.109 C 
ATOM     16  O   LIG d   1       0.530  93.614 117.668  0.00  0.00    -0.276 OA
ATOM     17  H   LIG d   1       1.376  92.351 120.437  0.00  0.00     0.149 HD
ENDBRANCH   6  13
BRANCH   5  18
ATOM     18  N   LIG d   1       4.276  92.113 118.794  0.00  0.00     0.381 N 
ATOM     19  H   LIG d   1       5.152  91.840 118.394  0.00  0.00    -0.090 HD
ATOM     20  H   LIG d   1       4.167  91.634 119.670  0.00  0.00    -0.090 HD
ATOM     21  H   LIG d   1       4.263  93.098 118.941  0.00  0.00    -0.090 HD
ENDBRANCH   5  18
BRANCH   3  22
ATOM     22  C   LIG d   1       3.039  89.421 115.031  0.00  0.00     0.382 C 
ATOM     23  O   LIG d   1       2.571  88.306 114.696  0.00  0.00    -0.241 OA
ATOM     24  O   LIG d   1       3.874  89.981 114.295  0.00  0.00    -0.241 OA
ENDBRANCH   3  22
TORSDOF 7
ENDMDL
MODEL 6
REMARK VINA RESULT:      -4.0      5.251      8.192
REMARK  7 active torsions:
REMARK  status: ('A' for Active; 'I' for Inactive)
REMARK    1  A    between atoms: C_2  and  C_3 
REMARK    2  A    between atoms: C_3  and  O_6 
REMARK    3  A    between atoms: C_3  and  C_4 
REMARK    4  A    between atoms: C_7  and  O_6 
REMARK    5  A    between atoms: C_9  and  C_10 
REMARK    6  A    between atoms: N_15  and  C_14 
REMARK    7  A    between atoms: N_20  and  C_19 
REMARK       I    between atoms: C_22  and  N_20 
ROOT
ATOM      1  C   LIG d   1       0.567  89.541 117.803  0.00  0.00     0.161 C 
ATOM      2  C   LIG d   1      -0.782  89.150 117.759  0.00  0.00     0.016 C 
ATOM      3  C   LIG d   1      -1.842  89.957 118.231  0.00  0.00     0.038 C 
ATOM      4  C   LIG d   1      -1.638  91.282 118.644  0.00  0.00     0.028 C 
ATOM      5  C   LIG d   1      -0.234  91.541 119.178  0.00  0.00    -0.047 C 
ATOM      6  C   LIG d   1       0.798  91.028 118.147  0.00  0.00     0.091 C 
ENDROOT
BRANCH   1   7
ATOM      7  O   LIG d   1       1.213  89.209 116.558  0.00  0.00    -0.368 OA
BRANCH   7   8
ATOM      8  C   LIG d   1       2.212  88.161 116.619  0.00  0.00     0.119 C 
BRANCH   8   9
ATOM      9  C   LIG d   1       1.580  86.885 116.029  0.00  0.00     0.028 C 
ATOM     10  C   LIG d   1       1.168  85.878 117.115  0.00  0.00     0.006 C 
ENDBRANCH   8   9
BRANCH   8  11
ATOM     11  C   LIG d   1       2.562  87.807 118.067  0.00  0.00     0.028 C 
ATOM     12  C   LIG d   1       4.050  88.017 118.389  0.00  0.00     0.006 C 
ENDBRANCH   8  11
ENDBRANCH   7   8
ENDBRANCH   1   7
BRANCH   6  13
ATOM     13  N   LIG d   1       2.197  91.165 118.629  0.00  0.00    -0.311 N 
ATOM     14  C   LIG d   1       3.166  91.734 117.913  0.00  0.00     0.210 C 
ATOM     15  C   LIG d   1       4.541  91.755 118.588  0.00  0.00     0.109 C 
ATOM     16  O   LIG d   1       3.010  92.251 116.797  0.00  0.00    -0.276 OA
ATOM     17  H   LIG d   1       2.405  90.801 119.538  0.00  0.00     0.149 HD
ENDBRANCH   6  13
BRANCH   5  18
ATOM     18  N   LIG d   1      -0.116  92.987 119.442  0.00  0.00     0.381 N 
ATOM     19  H   LIG d   1      -0.171  93.158 120.426  0.00  0.00    -0.090 HD
ATOM     20  H   LIG d   1      -0.882  93.462 118.997  0.00  0.00    -0.090 HD
ATOM     21  H   LIG d   1       0.749  93.330 119.086  0.00  0.00    -0.090 HD
ENDBRANCH   5  18
BRANCH   3  22
ATOM     22  C   LIG d   1      -3.119  89.425 118.330  0.00  0.00     0.382 C 
ATOM     23  O   LIG d   1      -3.309  88.370 118.982  0.00  0.00    -0.241 OA
ATOM     24  O   LIG d   1      -4.075  89.963 117.740  0.00  0.00    -0.241 OA
ENDBRANCH   3  22
TORSDOF 7
ENDMDL
MODEL 7
REMARK VINA RESULT:      -4.0      7.827     11.265
REMARK  7 active torsions:
REMARK  status: ('A' for Active; 'I' for Inactive)
REMARK    1  A    between atoms: C_2  and  C_3 
REMARK    2  A    between atoms: C_3  and  O_6 
REMARK    3  A    between atoms: C_3  and  C_4 
REMARK    4  A    between atoms: C_7  and  O_6 
REMARK    5  A    between atoms: C_9  and  C_10 
REMARK    6  A    between atoms: N_15  and  C_14 
REMARK    7  A    between atoms: N_20  and  C_19 
REMARK       I    between atoms: C_22  and  N_20 
ROOT
ATOM      1  C   LIG d   1       2.978  89.927 116.337  0.00  0.00     0.161 C 
ATOM      2  C   LIG d   1       1.887  90.788 116.539  0.00  0.00     0.016 C 
ATOM      3  C   LIG d   1       1.808  91.706 117.611  0.00  0.00     0.038 C 
ATOM      4  C   LIG d   1       2.889  91.932 118.475  0.00  0.00     0.028 C 
ATOM      5  C   LIG d   1       3.814  90.728 118.615  0.00  0.00    -0.047 C 
ATOM      6  C   LIG d   1       4.215  90.236 117.205  0.00  0.00     0.091 C 
ENDROOT
BRANCH   1   7
ATOM      7  O   LIG d   1       3.336  89.910 114.941  0.00  0.00    -0.368 OA
BRANCH   7   8
ATOM      8  C   LIG d   1       3.049  88.684 114.225  0.00  0.00     0.119 C 
BRANCH   8   9
ATOM      9  C   LIG d   1       2.572  87.644 115.257  0.00  0.00     0.028 C 
ATOM     10  C   LIG d   1       3.385  86.340 115.196  0.00  0.00     0.006 C 
ENDBRANCH   8   9
BRANCH   8  11
ATOM     11  C   LIG d   1       4.319  88.089 113.608  0.00  0.00     0.028 C 
ATOM     12  C   LIG d   1       5.438  89.127 113.432  0.00  0.00     0.006 C 
ENDBRANCH   8  11
ENDBRANCH   7   8
ENDBRANCH   1   7
BRANCH   6  13
ATOM     13  N   LIG d   1       5.053  89.009 117.249  0.00  0.00    -0.311 N 
ATOM     14  C   LIG d   1       6.384  89.028 117.213  0.00  0.00     0.210 C 
ATOM     15  C   LIG d   1       7.051  87.650 117.249  0.00  0.00     0.109 C 
ATOM     16  O   LIG d   1       7.076  90.057 117.186  0.00  0.00    -0.276 OA
ATOM     17  H   LIG d   1       4.573  88.132 117.302  0.00  0.00     0.149 HD
ENDBRANCH   6  13
BRANCH   5  18
ATOM     18  N   LIG d   1       4.969  91.145 119.432  0.00  0.00     0.381 N 
ATOM     19  H   LIG d   1       5.678  90.439 119.403  0.00  0.00    -0.090 HD
ATOM     20  H   LIG d   1       4.671  91.254 120.385  0.00  0.00    -0.090 HD
ATOM     21  H   LIG d   1       5.335  92.007 119.090  0.00  0.00    -0.090 HD
ENDBRANCH   5  18
BRANCH   3  22
ATOM     22  C   LIG d   1       0.621  92.381 117.852  0.00  0.00     0.382 C 
ATOM     23  O   LIG d   1      -0.304  91.818 118.486  0.00  0.00    -0.241 OA
ATOM     24  O   LIG d   1       0.446  93.531 117.404  0.00  0.00    -0.241 OA
ENDBRANCH   3  22
TORSDOF 7
ENDMDL
MODEL 8
REMARK VINA RESULT:      -4.0      6.535      8.754
REMARK  7 active torsions:
REMARK  status: ('A' for Active; 'I' for Inactive)
REMARK    1  A    between atoms: C_2  and  C_3 
REMARK    2  A    between atoms: C_3  and  O_6 
REMARK    3  A    between atoms: C_3  and  C_4 
REMARK    4  A    between atoms: C_7  and  O_6 
REMARK    5  A    between atoms: C_9  and  C_10 
REMARK    6  A    between atoms: N_15  and  C_14 
REMARK    7  A    between atoms: N_20  and  C_19 
REMARK       I    between atoms: C_22  and  N_20 
ROOT
ATOM      1  C   LIG d   1       0.523  90.361 116.794  0.00  0.00     0.161 C 
ATOM      2  C   LIG d   1      -0.698  90.131 117.451  0.00  0.00     0.016 C 
ATOM      3  C   LIG d   1      -1.133  88.850 117.860  0.00  0.00     0.038 C 
ATOM      4  C   LIG d   1      -0.303  87.722 117.772  0.00  0.00     0.028 C 
ATOM      5  C   LIG d   1       0.734  87.818 116.658  0.00  0.00    -0.047 C 
ATOM      6  C   LIG d   1       1.491  89.159 116.790  0.00  0.00     0.091 C 
ENDROOT
BRANCH   1   7
ATOM      7  O   LIG d   1       1.168  91.522 117.353  0.00  0.00    -0.368 OA
BRANCH   7   8
ATOM      8  C   LIG d   1       1.599  91.410 118.732  0.00  0.00     0.119 C 
BRANCH   8   9
ATOM      9  C   LIG d   1       1.065  92.643 119.486  0.00  0.00     0.028 C 
ATOM     10  C   LIG d   1       0.423  93.675 118.543  0.00  0.00     0.006 C 
ENDBRANCH   8   9
BRANCH   8  11
ATOM     11  C   LIG d   1       3.124  91.493 118.847  0.00  0.00     0.028 C 
ATOM     12  C   LIG d   1       3.781  92.132 117.613  0.00  0.00     0.006 C 
ENDBRANCH   8  11
ENDBRANCH   7   8
ENDBRANCH   1   7
BRANCH   6  13
ATOM     13  N   LIG d   1       2.466  89.371 115.689  0.00  0.00    -0.311 N 
ATOM     14  C   LIG d   1       3.752  89.036 115.774  0.00  0.00     0.210 C 
ATOM     15  C   LIG d   1       4.588  89.359 114.532  0.00  0.00     0.109 C 
ATOM     16  O   LIG d   1       4.273  88.473 116.748  0.00  0.00    -0.276 OA
ATOM     17  H   LIG d   1       2.121  89.794 114.849  0.00  0.00     0.149 HD
ENDBRANCH   6  13
BRANCH   5  18
ATOM     18  N   LIG d   1       1.617  86.642 116.769  0.00  0.00     0.381 N 
ATOM     19  H   LIG d   1       1.123  85.886 117.200  0.00  0.00    -0.090 HD
ATOM     20  H   LIG d   1       2.401  86.878 117.351  0.00  0.00    -0.090 HD
ATOM     21  H   LIG d   1       1.935  86.368 115.865  0.00  0.00    -0.090 HD
ENDBRANCH   5  18
BRANCH   3  22
ATOM     22  C   LIG d   1      -2.428  88.680 118.325  0.00  0.00     0.382 C 
ATOM     23  O   LIG d   1      -2.655  87.886 119.270  0.00  0.00    -0.241 OA
ATOM     24  O   LIG d   1      -3.378  89.276 117.783  0.00  0.00    -0.241 OA
ENDBRANCH   3  22
TORSDOF 7
ENDMDL
MODEL 9
REMARK VINA RESULT:      -4.0      5.010      7.995
REMARK  7 active torsions:
REMARK  status: ('A' for Active; 'I' for Inactive)
REMARK    1  A    between atoms: C_2  and  C_3 
REMARK    2  A    between atoms: C_3  and  O_6 
REMARK    3  A    between atoms: C_3  and  C_4 
REMARK    4  A    between atoms: C_7  and  O_6 
REMARK    5  A    between atoms: C_9  and  C_10 
REMARK    6  A    between atoms: N_15  and  C_14 
REMARK    7  A    between atoms: N_20  and  C_19 
REMARK       I    between atoms: C_22  and  N_20 
ROOT
ATOM      1  C   LIG d   1      -0.754  91.253 120.058  0.00  0.00     0.161 C 
ATOM      2  C   LIG d   1      -0.971  92.598 120.401  0.00  0.00     0.016 C 
ATOM      3  C   LIG d   1      -0.275  93.675 119.806  0.00  0.00     0.038 C 
ATOM      4  C   LIG d   1       0.583  93.489 118.711  0.00  0.00     0.028 C 
ATOM      5  C   LIG d   1       1.213  92.101 118.665  0.00  0.00    -0.047 C 
ATOM      6  C   LIG d   1       0.097  91.038 118.789  0.00  0.00     0.091 C 
ENDROOT
BRANCH   1   7
ATOM      7  O   LIG d   1      -2.018  90.570 119.935  0.00  0.00    -0.368 OA
BRANCH   7   8
ATOM      8  C   LIG d   1      -2.699  90.714 118.664  0.00  0.00     0.119 C 
BRANCH   8   9
ATOM      9  C   LIG d   1      -4.053  91.396 118.939  0.00  0.00     0.028 C 
ATOM     10  C   LIG d   1      -4.120  92.821 118.364  0.00  0.00     0.006 C 
ENDBRANCH   8   9
BRANCH   8  11
ATOM     11  C   LIG d   1      -3.047  89.350 118.061  0.00  0.00     0.028 C 
ATOM     12  C   LIG d   1      -2.726  88.182 119.005  0.00  0.00     0.006 C 
ENDBRANCH   8  11
ENDBRANCH   7   8
ENDBRANCH   1   7
BRANCH   6  13
ATOM     13  N   LIG d   1       0.635  89.654 118.837  0.00  0.00    -0.311 N 
ATOM     14  C   LIG d   1       0.711  88.860 117.770  0.00  0.00     0.210 C 
ATOM     15  C   LIG d   1       1.279  87.463 118.043  0.00  0.00     0.109 C 
ATOM     16  O   LIG d   1       0.393  89.190 116.618  0.00  0.00    -0.276 OA
ATOM     17  H   LIG d   1       0.945  89.316 119.726  0.00  0.00     0.149 HD
ENDBRANCH   6  13
BRANCH   5  18
ATOM     18  N   LIG d   1       1.972  91.998 117.404  0.00  0.00     0.381 N 
ATOM     19  H   LIG d   1       1.444  92.402 116.657  0.00  0.00    -0.090 HD
ATOM     20  H   LIG d   1       2.123  91.027 117.194  0.00  0.00    -0.090 HD
ATOM     21  H   LIG d   1       2.847  92.466 117.494  0.00  0.00    -0.090 HD
ENDBRANCH   5  18
BRANCH   3  22
ATOM     22  C   LIG d   1      -0.404  94.951 120.332  0.00  0.00     0.382 C 
ATOM     23  O   LIG d   1      -1.458  95.280 120.927  0.00  0.00    -0.241 OA
ATOM     24  O   LIG d   1       0.502  95.792 120.179  0.00  0.00    -0.241 OA
ENDBRANCH   3  22
TORSDOF 7
ENDMDL
