MODEL 1
REMARK VINA RESULT:      -5.5      0.000      0.000
REMARK  7 active torsions:
REMARK  status: ('A' for Active; 'I' for Inactive)
REMARK    1  A    between atoms: C_2  and  C_3 
REMARK    2  A    between atoms: C_3  and  O_6 
REMARK    3  A    between atoms: C_3  and  C_4 
REMARK    4  A    between atoms: C_7  and  O_6 
REMARK    5  A    between atoms: C_9  and  C_10 
REMARK    6  A    between atoms: N_15  and  C_14 
REMARK    7  A    between atoms: N_20  and  C_19 
REMARK       I    between atoms: C_22  and  N_20 
ROOT
ATOM      1  C   LIG d   1      -4.366  90.867 117.427  0.00  0.00     0.161 C 
ATOM      2  C   LIG d   1      -5.360  90.372 116.566  0.00  0.00     0.016 C 
ATOM      3  C   LIG d   1      -6.526  91.096 116.226  0.00  0.00     0.038 C 
ATOM      4  C   LIG d   1      -6.705  92.434 116.608  0.00  0.00     0.028 C 
ATOM      5  C   LIG d   1      -5.969  92.802 117.891  0.00  0.00    -0.047 C 
ATOM      6  C   LIG d   1      -4.491  92.368 117.764  0.00  0.00     0.091 C 
ENDROOT
BRANCH   1   7
ATOM      7  O   LIG d   1      -3.063  90.582 116.882  0.00  0.00    -0.368 OA
BRANCH   7   8
ATOM      8  C   LIG d   1      -2.515  89.276 117.189  0.00  0.00     0.119 C 
BRANCH   8   9
ATOM      9  C   LIG d   1      -2.657  89.060 118.708  0.00  0.00     0.028 C 
ATOM     10  C   LIG d   1      -1.766  87.917 119.223  0.00  0.00     0.006 C 
ENDBRANCH   8   9
BRANCH   8  11
ATOM     11  C   LIG d   1      -1.010  89.224 116.910  0.00  0.00     0.028 C 
ATOM     12  C   LIG d   1      -0.319  90.582 117.109  0.00  0.00     0.006 C 
ENDBRANCH   8  11
ENDBRANCH   7   8
ENDBRANCH   1   7
BRANCH   6  13
ATOM     13  N   LIG d   1      -3.718  92.615 119.009  0.00  0.00    -0.311 N 
ATOM     14  C   LIG d   1      -2.536  93.229 119.028  0.00  0.00     0.210 C 
ATOM     15  C   LIG d   1      -1.900  93.363 120.415  0.00  0.00     0.109 C 
ATOM     16  O   LIG d   1      -1.969  93.703 118.032  0.00  0.00    -0.276 OA
ATOM     17  H   LIG d   1      -4.119  92.290 119.867  0.00  0.00     0.149 HD
ENDBRANCH   6  13
BRANCH   5  18
ATOM     18  N   LIG d   1      -6.128  94.254 118.096  0.00  0.00     0.381 N 
ATOM     19  H   LIG d   1      -5.629  94.538 118.916  0.00  0.00    -0.090 HD
ATOM     20  H   LIG d   1      -7.103  94.458 118.234  0.00  0.00    -0.090 HD
ATOM     21  H   LIG d   1      -5.787  94.750 117.302  0.00  0.00    -0.090 HD
ENDBRANCH   5  18
BRANCH   3  22
ATOM     22  C   LIG d   1      -7.547  90.468 115.530  0.00  0.00     0.382 C 
ATOM     23  O   LIG d   1      -8.278  91.130 114.755  0.00  0.00    -0.241 OA
ATOM     24  O   LIG d   1      -7.774  89.255 115.700  0.00  0.00    -0.241 OA
ENDBRANCH   3  22
TORSDOF 7
ENDMDL
MODEL 2
REMARK VINA RESULT:      -5.5      1.682      4.632
REMARK  7 active torsions:
REMARK  status: ('A' for Active; 'I' for Inactive)
REMARK    1  A    between atoms: C_2  and  C_3 
REMARK    2  A    between atoms: C_3  and  O_6 
REMARK    3  A    between atoms: C_3  and  C_4 
REMARK    4  A    between atoms: C_7  and  O_6 
REMARK    5  A    between atoms: C_9  and  C_10 
REMARK    6  A    between atoms: N_15  and  C_14 
REMARK    7  A    between atoms: N_20  and  C_19 
REMARK       I    between atoms: C_22  and  N_20 
ROOT
ATOM      1  C   LIG d   1      -4.629  91.477 117.310  0.00  0.00     0.161 C 
ATOM      2  C   LIG d   1      -3.645  92.302 117.881  0.00  0.00     0.016 C 
ATOM      3  C   LIG d   1      -3.941  93.394 118.729  0.00  0.00     0.038 C 
ATOM      4  C   LIG d   1      -5.243  93.644 119.189  0.00  0.00     0.028 C 
ATOM      5  C   LIG d   1      -6.327  93.146 118.239  0.00  0.00    -0.047 C 
ATOM      6  C   LIG d   1      -6.047  91.666 117.889  0.00  0.00     0.091 C 
ENDROOT
BRANCH   1   7
ATOM      7  O   LIG d   1      -4.227  90.097 117.410  0.00  0.00    -0.368 OA
BRANCH   7   8
ATOM      8  C   LIG d   1      -2.867  89.859 117.852  0.00  0.00     0.119 C 
BRANCH   8   9
ATOM      9  C   LIG d   1      -2.153  89.062 116.743  0.00  0.00     0.028 C 
ATOM     10  C   LIG d   1      -0.661  89.416 116.634  0.00  0.00     0.006 C 
ENDBRANCH   8   9
BRANCH   8  11
ATOM     11  C   LIG d   1      -2.833  88.955 119.088  0.00  0.00     0.028 C 
ATOM     12  C   LIG d   1      -2.019  89.557 120.244  0.00  0.00     0.006 C 
ENDBRANCH   8  11
ENDBRANCH   7   8
ENDBRANCH   1   7
BRANCH   6  13
ATOM     13  N   LIG d   1      -7.013  91.125 116.898  0.00  0.00    -0.311 N 
ATOM     14  C   LIG d   1      -6.990  91.441 115.604  0.00  0.00     0.210 C 
ATOM     15  C   LIG d   1      -8.088  90.787 114.760  0.00  0.00     0.109 C 
ATOM     16  O   LIG d   1      -6.145  92.174 115.070  0.00  0.00    -0.276 OA
ATOM     17  H   LIG d   1      -7.714  90.498 117.240  0.00  0.00     0.149 HD
ENDBRANCH   6  13
BRANCH   5  18
ATOM     18  N   LIG d   1      -7.628  93.346 118.904  0.00  0.00     0.381 N 
ATOM     19  H   LIG d   1      -8.229  93.887 118.315  0.00  0.00    -0.090 HD
ATOM     20  H   LIG d   1      -7.482  93.854 119.758  0.00  0.00    -0.090 HD
ATOM     21  H   LIG d   1      -8.050  92.465 119.101  0.00  0.00    -0.090 HD
ENDBRANCH   5  18
BRANCH   3  22
ATOM     22  C   LIG d   1      -2.933  94.273 119.095  0.00  0.00     0.382 C 
ATOM     23  O   LIG d   1      -1.852  94.286 118.459  0.00  0.00    -0.241 OA
ATOM     24  O   LIG d   1      -3.076  95.023 120.079  0.00  0.00    -0.241 OA
ENDBRANCH   3  22
TORSDOF 7
ENDMDL
MODEL 3
REMARK VINA RESULT:      -5.3      2.802      4.332
REMARK  7 active torsions:
REMARK  status: ('A' for Active; 'I' for Inactive)
REMARK    1  A    between atoms: C_2  and  C_3 
REMARK    2  A    between atoms: C_3  and  O_6 
REMARK    3  A    between atoms: C_3  and  C_4 
REMARK    4  A    between atoms: C_7  and  O_6 
REMARK    5  A    between atoms: C_9  and  C_10 
REMARK    6  A    between atoms: N_15  and  C_14 
REMARK    7  A    between atoms: N_20  and  C_19 
REMARK       I    between atoms: C_22  and  N_20 
ROOT
ATOM      1  C   LIG d   1      -5.798  92.731 118.286  0.00  0.00     0.161 C 
ATOM      2  C   LIG d   1      -7.073  93.289 118.473  0.00  0.00     0.016 C 
ATOM      3  C   LIG d   1      -7.315  94.424 119.280  0.00  0.00     0.038 C 
ATOM      4  C   LIG d   1      -6.269  95.174 119.838  0.00  0.00     0.028 C 
ATOM      5  C   LIG d   1      -5.006  94.356 120.092  0.00  0.00    -0.047 C 
ATOM      6  C   LIG d   1      -4.630  93.600 118.797  0.00  0.00     0.091 C 
ENDROOT
BRANCH   1   7
ATOM      7  O   LIG d   1      -5.607  92.403 116.895  0.00  0.00    -0.368 OA
BRANCH   7   8
ATOM      8  C   LIG d   1      -6.221  91.171 116.441  0.00  0.00     0.119 C 
BRANCH   8   9
ATOM      9  C   LIG d   1      -5.129  90.341 115.739  0.00  0.00     0.028 C 
ATOM     10  C   LIG d   1      -3.923  90.066 116.652  0.00  0.00     0.006 C 
ENDBRANCH   8   9
BRANCH   8  11
ATOM     11  C   LIG d   1      -7.280  91.440 115.367  0.00  0.00     0.028 C 
ATOM     12  C   LIG d   1      -6.687  91.514 113.951  0.00  0.00     0.006 C 
ENDBRANCH   8  11
ENDBRANCH   7   8
ENDBRANCH   1   7
BRANCH   6  13
ATOM     13  N   LIG d   1      -3.454  92.710 118.982  0.00  0.00    -0.311 N 
ATOM     14  C   LIG d   1      -2.296  92.885 118.347  0.00  0.00     0.210 C 
ATOM     15  C   LIG d   1      -1.220  91.842 118.667  0.00  0.00     0.109 C 
ATOM     16  O   LIG d   1      -2.047  93.822 117.575  0.00  0.00    -0.276 OA
ATOM     17  H   LIG d   1      -3.559  91.942 119.615  0.00  0.00     0.149 HD
ENDBRANCH   6  13
BRANCH   5  18
ATOM     18  N   LIG d   1      -3.956  95.288 120.543  0.00  0.00     0.381 N 
ATOM     19  H   LIG d   1      -3.396  95.571 119.764  0.00  0.00    -0.090 HD
ATOM     20  H   LIG d   1      -3.363  94.814 121.202  0.00  0.00    -0.090 HD
ATOM     21  H   LIG d   1      -4.369  96.086 120.972  0.00  0.00    -0.090 HD
ENDBRANCH   5  18
BRANCH   3  22
ATOM     22  C   LIG d   1      -8.619  94.797 119.569  0.00  0.00     0.382 C 
ATOM     23  O   LIG d   1      -8.845  95.882 120.157  0.00  0.00    -0.241 OA
ATOM     24  O   LIG d   1      -9.569  94.042 119.288  0.00  0.00    -0.241 OA
ENDBRANCH   3  22
TORSDOF 7
ENDMDL
MODEL 4
REMARK VINA RESULT:      -5.2      2.668      6.349
REMARK  7 active torsions:
REMARK  status: ('A' for Active; 'I' for Inactive)
REMARK    1  A    between atoms: C_2  and  C_3 
REMARK    2  A    between atoms: C_3  and  O_6 
REMARK    3  A    between atoms: C_3  and  C_4 
REMARK    4  A    between atoms: C_7  and  O_6 
REMARK    5  A    between atoms: C_9  and  C_10 
REMARK    6  A    between atoms: N_15  and  C_14 
REMARK    7  A    between atoms: N_20  and  C_19 
REMARK       I    between atoms: C_22  and  N_20 
ROOT
ATOM      1  C   LIG d   1      -5.209  92.140 118.329  0.00  0.00     0.161 C 
ATOM      2  C   LIG d   1      -4.108  92.215 119.198  0.00  0.00     0.016 C 
ATOM      3  C   LIG d   1      -2.919  91.473 119.012  0.00  0.00     0.038 C 
ATOM      4  C   LIG d   1      -2.690  90.717 117.853  0.00  0.00     0.028 C 
ATOM      5  C   LIG d   1      -3.971  90.214 117.196  0.00  0.00    -0.047 C 
ATOM      6  C   LIG d   1      -4.936  91.406 117.000  0.00  0.00     0.091 C 
ENDROOT
BRANCH   1   7
ATOM      7  O   LIG d   1      -5.720  93.464 118.074  0.00  0.00    -0.368 OA
BRANCH   7   8
ATOM      8  C   LIG d   1      -6.604  94.011 119.083  0.00  0.00     0.119 C 
BRANCH   8   9
ATOM      9  C   LIG d   1      -7.966  94.274 118.412  0.00  0.00     0.028 C 
ATOM     10  C   LIG d   1      -8.989  94.891 119.381  0.00  0.00     0.006 C 
ENDBRANCH   8   9
BRANCH   8  11
ATOM     11  C   LIG d   1      -6.119  95.381 119.565  0.00  0.00     0.028 C 
ATOM     12  C   LIG d   1      -5.411  95.317 120.928  0.00  0.00     0.006 C 
ENDBRANCH   8  11
ENDBRANCH   7   8
ENDBRANCH   1   7
BRANCH   6  13
ATOM     13  N   LIG d   1      -6.247  90.987 116.439  0.00  0.00    -0.311 N 
ATOM     14  C   LIG d   1      -6.700  91.392 115.254  0.00  0.00     0.210 C 
ATOM     15  C   LIG d   1      -8.085  90.858 114.875  0.00  0.00     0.109 C 
ATOM     16  O   LIG d   1      -6.073  92.116 114.466  0.00  0.00    -0.276 OA
ATOM     17  H   LIG d   1      -6.808  90.374 116.998  0.00  0.00     0.149 HD
ENDBRANCH   6  13
BRANCH   5  18
ATOM     18  N   LIG d   1      -3.594  89.561 115.928  0.00  0.00     0.381 N 
ATOM     19  H   LIG d   1      -4.118  88.716 115.814  0.00  0.00    -0.090 HD
ATOM     20  H   LIG d   1      -2.618  89.325 115.961  0.00  0.00    -0.090 HD
ATOM     21  H   LIG d   1      -3.769  90.174 115.163  0.00  0.00    -0.090 HD
ENDBRANCH   5  18
BRANCH   3  22
ATOM     22  C   LIG d   1      -1.958  91.453 120.012  0.00  0.00     0.382 C 
ATOM     23  O   LIG d   1      -1.167  92.419 120.141  0.00  0.00    -0.241 OA
ATOM     24  O   LIG d   1      -1.843  90.462 120.758  0.00  0.00    -0.241 OA
ENDBRANCH   3  22
TORSDOF 7
ENDMDL
MODEL 5
REMARK VINA RESULT:      -5.0      2.207      4.631
REMARK  7 active torsions:
REMARK  status: ('A' for Active; 'I' for Inactive)
REMARK    1  A    between atoms: C_2  and  C_3 
REMARK    2  A    between atoms: C_3  and  O_6 
REMARK    3  A    between atoms: C_3  and  C_4 
REMARK    4  A    between atoms: C_7  and  O_6 
REMARK    5  A    between atoms: C_9  and  C_10 
REMARK    6  A    between atoms: N_15  and  C_14 
REMARK    7  A    between atoms: N_20  and  C_19 
REMARK       I    between atoms: C_22  and  N_20 
ROOT
ATOM      1  C   LIG d   1      -5.395  92.642 117.962  0.00  0.00     0.161 C 
ATOM      2  C   LIG d   1      -6.248  92.519 116.853  0.00  0.00     0.016 C 
ATOM      3  C   LIG d   1      -6.125  91.494 115.886  0.00  0.00     0.038 C 
ATOM      4  C   LIG d   1      -5.227  90.428 116.046  0.00  0.00     0.028 C 
ATOM      5  C   LIG d   1      -4.006  90.785 116.888  0.00  0.00    -0.047 C 
ATOM      6  C   LIG d   1      -4.480  91.425 118.213  0.00  0.00     0.091 C 
ENDROOT
BRANCH   1   7
ATOM      7  O   LIG d   1      -6.167  92.941 119.142  0.00  0.00    -0.368 OA
BRANCH   7   8
ATOM      8  C   LIG d   1      -6.355  94.345 119.442  0.00  0.00     0.119 C 
BRANCH   8   9
ATOM      9  C   LIG d   1      -5.224  94.770 120.399  0.00  0.00     0.028 C 
ATOM     10  C   LIG d   1      -4.258  95.778 119.756  0.00  0.00     0.006 C 
ENDBRANCH   8   9
BRANCH   8  11
ATOM     11  C   LIG d   1      -7.654  94.580 120.219  0.00  0.00     0.028 C 
ATOM     12  C   LIG d   1      -8.868  94.790 119.301  0.00  0.00     0.006 C 
ENDBRANCH   8  11
ENDBRANCH   7   8
ENDBRANCH   1   7
BRANCH   6  13
ATOM     13  N   LIG d   1      -3.347  91.881 119.059  0.00  0.00    -0.311 N 
ATOM     14  C   LIG d   1      -2.426  92.751 118.645  0.00  0.00     0.210 C 
ATOM     15  C   LIG d   1      -1.332  93.070 119.669  0.00  0.00     0.109 C 
ATOM     16  O   LIG d   1      -2.430  93.312 117.540  0.00  0.00    -0.276 OA
ATOM     17  H   LIG d   1      -3.285  91.499 119.982  0.00  0.00     0.149 HD
ENDBRANCH   6  13
BRANCH   5  18
ATOM     18  N   LIG d   1      -3.227  89.550 117.089  0.00  0.00     0.381 N 
ATOM     19  H   LIG d   1      -3.837  88.804 117.357  0.00  0.00    -0.090 HD
ATOM     20  H   LIG d   1      -2.566  89.699 117.831  0.00  0.00    -0.090 HD
ATOM     21  H   LIG d   1      -2.746  89.309 116.250  0.00  0.00    -0.090 HD
ENDBRANCH   5  18
BRANCH   3  22
ATOM     22  C   LIG d   1      -6.878  91.552 114.724  0.00  0.00     0.382 C 
ATOM     23  O   LIG d   1      -6.420  92.127 113.707  0.00  0.00    -0.241 OA
ATOM     24  O   LIG d   1      -8.028  91.075 114.692  0.00  0.00    -0.241 OA
ENDBRANCH   3  22
TORSDOF 7
ENDMDL
MODEL 6
REMARK VINA RESULT:      -5.0      2.224      4.270
REMARK  7 active torsions:
REMARK  status: ('A' for Active; 'I' for Inactive)
REMARK    1  A    between atoms: C_2  and  C_3 
REMARK    2  A    between atoms: C_3  and  O_6 
REMARK    3  A    between atoms: C_3  and  C_4 
REMARK    4  A    between atoms: C_7  and  O_6 
REMARK    5  A    between atoms: C_9  and  C_10 
REMARK    6  A    between atoms: N_15  and  C_14 
REMARK    7  A    between atoms: N_20  and  C_19 
REMARK       I    between atoms: C_22  and  N_20 
ROOT
ATOM      1  C   LIG d   1      -4.991  92.061 117.993  0.00  0.00     0.161 C 
ATOM      2  C   LIG d   1      -5.966  92.133 116.985  0.00  0.00     0.016 C 
ATOM      3  C   LIG d   1      -5.977  91.290 115.850  0.00  0.00     0.038 C 
ATOM      4  C   LIG d   1      -5.092  90.209 115.722  0.00  0.00     0.028 C 
ATOM      5  C   LIG d   1      -3.776  90.411 116.466  0.00  0.00    -0.047 C 
ATOM      6  C   LIG d   1      -4.083  90.815 117.926  0.00  0.00     0.091 C 
ENDROOT
BRANCH   1   7
ATOM      7  O   LIG d   1      -5.618  92.154 119.288  0.00  0.00    -0.368 OA
BRANCH   7   8
ATOM      8  C   LIG d   1      -5.177  93.245 120.132  0.00  0.00     0.119 C 
BRANCH   8   9
ATOM      9  C   LIG d   1      -6.429  94.033 120.564  0.00  0.00     0.028 C 
ATOM     10  C   LIG d   1      -6.891  95.034 119.492  0.00  0.00     0.006 C 
ENDBRANCH   8   9
BRANCH   8  11
ATOM     11  C   LIG d   1      -4.319  94.244 119.350  0.00  0.00     0.028 C 
ATOM     12  C   LIG d   1      -2.974  94.538 120.032  0.00  0.00     0.006 C 
ENDBRANCH   8  11
ENDBRANCH   7   8
ENDBRANCH   1   7
BRANCH   6  13
ATOM     13  N   LIG d   1      -2.851  91.114 118.702  0.00  0.00    -0.311 N 
ATOM     14  C   LIG d   1      -2.211  90.208 119.439  0.00  0.00     0.210 C 
ATOM     15  C   LIG d   1      -0.973  90.730 120.175  0.00  0.00     0.109 C 
ATOM     16  O   LIG d   1      -2.533  89.013 119.529  0.00  0.00    -0.276 OA
ATOM     17  H   LIG d   1      -2.502  92.051 118.661  0.00  0.00     0.149 HD
ENDBRANCH   6  13
BRANCH   5  18
ATOM     18  N   LIG d   1      -3.008  89.156 116.362  0.00  0.00     0.381 N 
ATOM     19  H   LIG d   1      -3.621  88.403 116.119  0.00  0.00    -0.090 HD
ATOM     20  H   LIG d   1      -2.597  88.952 117.256  0.00  0.00    -0.090 HD
ATOM     21  H   LIG d   1      -2.295  89.249 115.673  0.00  0.00    -0.090 HD
ENDBRANCH   5  18
BRANCH   3  22
ATOM     22  C   LIG d   1      -6.855  91.550 114.809  0.00  0.00     0.382 C 
ATOM     23  O   LIG d   1      -6.448  92.138 113.778  0.00  0.00    -0.241 OA
ATOM     24  O   LIG d   1      -8.058  91.244 114.906  0.00  0.00    -0.241 OA
ENDBRANCH   3  22
TORSDOF 7
ENDMDL
MODEL 7
REMARK VINA RESULT:      -5.0      2.594      5.234
REMARK  7 active torsions:
REMARK  status: ('A' for Active; 'I' for Inactive)
REMARK    1  A    between atoms: C_2  and  C_3 
REMARK    2  A    between atoms: C_3  and  O_6 
REMARK    3  A    between atoms: C_3  and  C_4 
REMARK    4  A    between atoms: C_7  and  O_6 
REMARK    5  A    between atoms: C_9  and  C_10 
REMARK    6  A    between atoms: N_15  and  C_14 
REMARK    7  A    between atoms: N_20  and  C_19 
REMARK       I    between atoms: C_22  and  N_20 
ROOT
ATOM      1  C   LIG d   1      -5.163  92.400 119.580  0.00  0.00     0.161 C 
ATOM      2  C   LIG d   1      -4.150  91.596 119.030  0.00  0.00     0.016 C 
ATOM      3  C   LIG d   1      -4.224  91.028 117.737  0.00  0.00     0.038 C 
ATOM      4  C   LIG d   1      -5.255  91.352 116.843  0.00  0.00     0.028 C 
ATOM      5  C   LIG d   1      -6.552  91.757 117.534  0.00  0.00    -0.047 C 
ATOM      6  C   LIG d   1      -6.243  92.855 118.577  0.00  0.00     0.091 C 
ENDROOT
BRANCH   1   7
ATOM      7  O   LIG d   1      -4.577  93.540 120.238  0.00  0.00    -0.368 OA
BRANCH   7   8
ATOM      8  C   LIG d   1      -4.244  94.665 119.388  0.00  0.00     0.119 C 
BRANCH   8   9
ATOM      9  C   LIG d   1      -2.731  94.919 119.526  0.00  0.00     0.028 C 
ATOM     10  C   LIG d   1      -1.942  94.450 118.292  0.00  0.00     0.006 C 
ENDBRANCH   8   9
BRANCH   8  11
ATOM     11  C   LIG d   1      -4.917  95.951 119.877  0.00  0.00     0.028 C 
ATOM     12  C   LIG d   1      -4.210  97.221 119.377  0.00  0.00     0.006 C 
ENDBRANCH   8  11
ENDBRANCH   7   8
ENDBRANCH   1   7
BRANCH   6  13
ATOM     13  N   LIG d   1      -7.445  93.249 119.359  0.00  0.00    -0.311 N 
ATOM     14  C   LIG d   1      -8.268  94.230 118.993  0.00  0.00     0.210 C 
ATOM     15  C   LIG d   1      -9.435  94.485 119.952  0.00  0.00     0.109 C 
ATOM     16  O   LIG d   1      -8.161  94.891 117.950  0.00  0.00    -0.276 OA
ATOM     17  H   LIG d   1      -7.625  92.743 120.204  0.00  0.00     0.149 HD
ENDBRANCH   6  13
BRANCH   5  18
ATOM     18  N   LIG d   1      -7.494  92.200 116.490  0.00  0.00     0.381 N 
ATOM     19  H   LIG d   1      -8.368  92.453 116.907  0.00  0.00    -0.090 HD
ATOM     20  H   LIG d   1      -7.657  91.439 115.854  0.00  0.00    -0.090 HD
ATOM     21  H   LIG d   1      -7.116  92.979 115.997  0.00  0.00    -0.090 HD
ENDBRANCH   5  18
BRANCH   3  22
ATOM     22  C   LIG d   1      -3.279  90.093 117.343  0.00  0.00     0.382 C 
ATOM     23  O   LIG d   1      -2.129  90.115 117.843  0.00  0.00    -0.241 OA
ATOM     24  O   LIG d   1      -3.548  89.257 116.460  0.00  0.00    -0.241 OA
ENDBRANCH   3  22
TORSDOF 7
ENDMDL
MODEL 8
REMARK VINA RESULT:      -4.8      3.977      6.119
REMARK  7 active torsions:
REMARK  status: ('A' for Active; 'I' for Inactive)
REMARK    1  A    between atoms: C_2  and  C_3 
REMARK    2  A    between atoms: C_3  and  O_6 
REMARK    3  A    between atoms: C_3  and  C_4 
REMARK    4  A    between atoms: C_7  and  O_6 
REMARK    5  A    between atoms: C_9  and  C_10 
REMARK    6  A    between atoms: N_15  and  C_14 
REMARK    7  A    between atoms: N_20  and  C_19 
REMARK       I    between atoms: C_22  and  N_20 
ROOT
ATOM      1  C   LIG d   1       0.625  88.871 116.752  0.00  0.00     0.161 C 
ATOM      2  C   LIG d   1      -0.777  88.812 116.683  0.00  0.00     0.016 C 
ATOM      3  C   LIG d   1      -1.627  89.751 117.311  0.00  0.00     0.038 C 
ATOM      4  C   LIG d   1      -1.127  90.907 117.929  0.00  0.00     0.028 C 
ATOM      5  C   LIG d   1       0.294  90.744 118.458  0.00  0.00    -0.047 C 
ATOM      6  C   LIG d   1       1.189  90.186 117.328  0.00  0.00     0.091 C 
ENDROOT
BRANCH   1   7
ATOM      7  O   LIG d   1       1.189  88.610 115.452  0.00  0.00    -0.368 OA
BRANCH   7   8
ATOM      8  C   LIG d   1       2.239  87.613 115.401  0.00  0.00     0.119 C 
BRANCH   8   9
ATOM      9  C   LIG d   1       3.155  87.966 114.213  0.00  0.00     0.028 C 
ATOM     10  C   LIG d   1       4.595  88.276 114.655  0.00  0.00     0.006 C 
ENDBRANCH   8   9
BRANCH   8  11
ATOM     11  C   LIG d   1       1.675  86.226 115.079  0.00  0.00     0.028 C 
ATOM     12  C   LIG d   1       1.594  85.950 113.569  0.00  0.00     0.006 C 
ENDBRANCH   8  11
ENDBRANCH   7   8
ENDBRANCH   1   7
BRANCH   6  13
ATOM     13  N   LIG d   1       2.578  89.918 117.785  0.00  0.00    -0.311 N 
ATOM     14  C   LIG d   1       3.634  90.613 117.369  0.00  0.00     0.210 C 
ATOM     15  C   LIG d   1       4.977  90.159 117.949  0.00  0.00     0.109 C 
ATOM     16  O   LIG d   1       3.583  91.584 116.599  0.00  0.00    -0.276 OA
ATOM     17  H   LIG d   1       2.707  89.167 118.435  0.00  0.00     0.149 HD
ENDBRANCH   6  13
BRANCH   5  18
ATOM     18  N   LIG d   1       0.739  92.061 118.952  0.00  0.00     0.381 N 
ATOM     19  H   LIG d   1       0.098  92.768 118.655  0.00  0.00    -0.090 HD
ATOM     20  H   LIG d   1       1.641  92.267 118.560  0.00  0.00    -0.090 HD
ATOM     21  H   LIG d   1       0.796  92.050 119.947  0.00  0.00    -0.090 HD
ENDBRANCH   5  18
BRANCH   3  22
ATOM     22  C   LIG d   1      -2.993  89.517 117.359  0.00  0.00     0.382 C 
ATOM     23  O   LIG d   1      -3.664  89.504 116.299  0.00  0.00    -0.241 OA
ATOM     24  O   LIG d   1      -3.570  89.363 118.452  0.00  0.00    -0.241 OA
ENDBRANCH   3  22
TORSDOF 7
ENDMDL
MODEL 9
REMARK VINA RESULT:      -4.6      2.083      4.602
REMARK  7 active torsions:
REMARK  status: ('A' for Active; 'I' for Inactive)
REMARK    1  A    between atoms: C_2  and  C_3 
REMARK    2  A    between atoms: C_3  and  O_6 
REMARK    3  A    between atoms: C_3  and  C_4 
REMARK    4  A    between atoms: C_7  and  O_6 
REMARK    5  A    between atoms: C_9  and  C_10 
REMARK    6  A    between atoms: N_15  and  C_14 
REMARK    7  A    between atoms: N_20  and  C_19 
REMARK       I    between atoms: C_22  and  N_20 
ROOT
ATOM      1  C   LIG d   1      -3.390  92.182 117.954  0.00  0.00     0.161 C 
ATOM      2  C   LIG d   1      -3.148  93.392 118.625  0.00  0.00     0.016 C 
ATOM      3  C   LIG d   1      -4.172  94.191 119.183  0.00  0.00     0.038 C 
ATOM      4  C   LIG d   1      -5.504  93.756 119.239  0.00  0.00     0.028 C 
ATOM      5  C   LIG d   1      -5.869  92.777 118.128  0.00  0.00    -0.047 C 
ATOM      6  C   LIG d   1      -4.826  91.637 118.102  0.00  0.00     0.091 C 
ENDROOT
BRANCH   1   7
ATOM      7  O   LIG d   1      -2.431  91.191 118.372  0.00  0.00    -0.368 OA
BRANCH   7   8
ATOM      8  C   LIG d   1      -1.146  91.225 117.703  0.00  0.00     0.119 C 
BRANCH   8   9
ATOM      9  C   LIG d   1      -0.942  89.857 117.022  0.00  0.00     0.028 C 
ATOM     10  C   LIG d   1      -1.948  88.802 117.512  0.00  0.00     0.006 C 
ENDBRANCH   8   9
BRANCH   8  11
ATOM     11  C   LIG d   1       0.002  91.352 118.709  0.00  0.00     0.028 C 
ATOM     12  C   LIG d   1       0.662  92.740 118.686  0.00  0.00     0.006 C 
ENDBRANCH   8  11
ENDBRANCH   7   8
ENDBRANCH   1   7
BRANCH   6  13
ATOM     13  N   LIG d   1      -5.060  90.679 116.989  0.00  0.00    -0.311 N 
ATOM     14  C   LIG d   1      -5.532  91.042 115.798  0.00  0.00     0.210 C 
ATOM     15  C   LIG d   1      -5.718  89.894 114.800  0.00  0.00     0.109 C 
ATOM     16  O   LIG d   1      -5.784  92.209 115.462  0.00  0.00    -0.276 OA
ATOM     17  H   LIG d   1      -4.853  89.716 117.165  0.00  0.00     0.149 HD
ENDBRANCH   6  13
BRANCH   5  18
ATOM     18  N   LIG d   1      -7.241  92.300 118.387  0.00  0.00     0.381 N 
ATOM     19  H   LIG d   1      -7.210  91.458 118.927  0.00  0.00    -0.090 HD
ATOM     20  H   LIG d   1      -7.685  92.096 117.509  0.00  0.00    -0.090 HD
ATOM     21  H   LIG d   1      -7.758  92.997 118.875  0.00  0.00    -0.090 HD
ENDBRANCH   5  18
BRANCH   3  22
ATOM     22  C   LIG d   1      -3.873  95.459 119.658  0.00  0.00     0.382 C 
ATOM     23  O   LIG d   1      -2.715  95.720 120.064  0.00  0.00    -0.241 OA
ATOM     24  O   LIG d   1      -4.758  96.333 119.726  0.00  0.00    -0.241 OA
ENDBRANCH   3  22
TORSDOF 7
ENDMDL
