MODEL 1
REMARK VINA RESULT:      -5.5      0.000      0.000
REMARK  7 active torsions:
REMARK  status: ('A' for Active; 'I' for Inactive)
REMARK    1  A    between atoms: C_2  and  C_3 
REMARK    2  A    between atoms: C_3  and  O_6 
REMARK    3  A    between atoms: C_3  and  C_4 
REMARK    4  A    between atoms: C_7  and  O_6 
REMARK    5  A    between atoms: C_9  and  C_10 
REMARK    6  A    between atoms: N_15  and  C_14 
REMARK    7  A    between atoms: N_20  and  C_19 
REMARK       I    between atoms: C_22  and  N_20 
ROOT
ATOM      1  C   LIG d   1      -4.787  92.416 117.150  0.00  0.00     0.161 C 
ATOM      2  C   LIG d   1      -4.394  91.133 116.733  0.00  0.00     0.016 C 
ATOM      3  C   LIG d   1      -5.116  90.367 115.790  0.00  0.00     0.038 C 
ATOM      4  C   LIG d   1      -6.205  90.896 115.082  0.00  0.00     0.028 C 
ATOM      5  C   LIG d   1      -6.938  92.000 115.836  0.00  0.00    -0.047 C 
ATOM      6  C   LIG d   1      -5.910  93.054 116.307  0.00  0.00     0.091 C 
ENDROOT
BRANCH   1   7
ATOM      7  O   LIG d   1      -3.640  93.287 117.198  0.00  0.00    -0.368 OA
BRANCH   7   8
ATOM      8  C   LIG d   1      -2.760  93.121 118.337  0.00  0.00     0.119 C 
BRANCH   8   9
ATOM      9  C   LIG d   1      -3.320  93.985 119.484  0.00  0.00     0.028 C 
ATOM     10  C   LIG d   1      -3.580  95.437 119.052  0.00  0.00     0.006 C 
ENDBRANCH   8   9
BRANCH   8  11
ATOM     11  C   LIG d   1      -1.364  93.683 118.050  0.00  0.00     0.028 C 
ATOM     12  C   LIG d   1      -0.389  93.481 119.220  0.00  0.00     0.006 C 
ENDBRANCH   8  11
ENDBRANCH   7   8
ENDBRANCH   1   7
BRANCH   6  13
ATOM     13  N   LIG d   1      -6.533  94.127 117.126  0.00  0.00    -0.311 N 
ATOM     14  C   LIG d   1      -6.946  93.947 118.379  0.00  0.00     0.210 C 
ATOM     15  C   LIG d   1      -7.578  95.178 119.035  0.00  0.00     0.109 C 
ATOM     16  O   LIG d   1      -6.821  92.892 119.020  0.00  0.00    -0.276 OA
ATOM     17  H   LIG d   1      -6.645  95.024 116.694  0.00  0.00     0.149 HD
ENDBRANCH   6  13
BRANCH   5  18
ATOM     18  N   LIG d   1      -7.961  92.555 114.930  0.00  0.00     0.381 N 
ATOM     19  H   LIG d   1      -7.522  93.105 114.219  0.00  0.00    -0.090 HD
ATOM     20  H   LIG d   1      -8.573  93.153 115.457  0.00  0.00    -0.090 HD
ATOM     21  H   LIG d   1      -8.485  91.817 114.513  0.00  0.00    -0.090 HD
ENDBRANCH   5  18
BRANCH   3  22
ATOM     22  C   LIG d   1      -4.773  89.040 115.575  0.00  0.00     0.382 C 
ATOM     23  O   LIG d   1      -4.110  88.417 116.439  0.00  0.00    -0.241 OA
ATOM     24  O   LIG d   1      -5.080  88.473 114.510  0.00  0.00    -0.241 OA
ENDBRANCH   3  22
TORSDOF 7
ENDMDL
MODEL 2
REMARK VINA RESULT:      -5.5      2.111      4.364
REMARK  7 active torsions:
REMARK  status: ('A' for Active; 'I' for Inactive)
REMARK    1  A    between atoms: C_2  and  C_3 
REMARK    2  A    between atoms: C_3  and  O_6 
REMARK    3  A    between atoms: C_3  and  C_4 
REMARK    4  A    between atoms: C_7  and  O_6 
REMARK    5  A    between atoms: C_9  and  C_10 
REMARK    6  A    between atoms: N_15  and  C_14 
REMARK    7  A    between atoms: N_20  and  C_19 
REMARK       I    between atoms: C_22  and  N_20 
ROOT
ATOM      1  C   LIG d   1      -6.240  93.470 116.838  0.00  0.00     0.161 C 
ATOM      2  C   LIG d   1      -6.863  92.487 116.053  0.00  0.00     0.016 C 
ATOM      3  C   LIG d   1      -6.307  91.208 115.820  0.00  0.00     0.038 C 
ATOM      4  C   LIG d   1      -5.152  90.770 116.486  0.00  0.00     0.028 C 
ATOM      5  C   LIG d   1      -4.220  91.906 116.894  0.00  0.00    -0.047 C 
ATOM      6  C   LIG d   1      -5.035  92.972 117.662  0.00  0.00     0.091 C 
ENDROOT
BRANCH   1   7
ATOM      7  O   LIG d   1      -7.212  94.096 117.700  0.00  0.00    -0.368 OA
BRANCH   7   8
ATOM      8  C   LIG d   1      -7.465  95.502 117.459  0.00  0.00     0.119 C 
BRANCH   8   9
ATOM      9  C   LIG d   1      -6.854  96.290 118.634  0.00  0.00     0.028 C 
ATOM     10  C   LIG d   1      -7.051  95.579 119.984  0.00  0.00     0.006 C 
ENDBRANCH   8   9
BRANCH   8  11
ATOM     11  C   LIG d   1      -8.964  95.813 117.499  0.00  0.00     0.028 C 
ATOM     12  C   LIG d   1      -9.292  97.231 117.006  0.00  0.00     0.006 C 
ENDBRANCH   8  11
ENDBRANCH   7   8
ENDBRANCH   1   7
BRANCH   6  13
ATOM     13  N   LIG d   1      -4.216  94.158 118.025  0.00  0.00    -0.311 N 
ATOM     14  C   LIG d   1      -3.634  94.312 119.213  0.00  0.00     0.210 C 
ATOM     15  C   LIG d   1      -2.853  95.618 119.386  0.00  0.00     0.109 C 
ATOM     16  O   LIG d   1      -3.665  93.476 120.129  0.00  0.00    -0.276 OA
ATOM     17  H   LIG d   1      -4.113  94.871 117.330  0.00  0.00     0.149 HD
ENDBRANCH   6  13
BRANCH   5  18
ATOM     18  N   LIG d   1      -3.129  91.322 117.697  0.00  0.00     0.381 N 
ATOM     19  H   LIG d   1      -2.503  92.043 117.993  0.00  0.00    -0.090 HD
ATOM     20  H   LIG d   1      -2.617  90.674 117.125  0.00  0.00    -0.090 HD
ATOM     21  H   LIG d   1      -3.505  90.851 118.491  0.00  0.00    -0.090 HD
ENDBRANCH   5  18
BRANCH   3  22
ATOM     22  C   LIG d   1      -6.885  90.367 114.882  0.00  0.00     0.382 C 
ATOM     23  O   LIG d   1      -7.929  90.720 114.282  0.00  0.00    -0.241 OA
ATOM     24  O   LIG d   1      -6.401  89.241 114.660  0.00  0.00    -0.241 OA
ENDBRANCH   3  22
TORSDOF 7
ENDMDL
MODEL 3
REMARK VINA RESULT:      -5.4      2.064      3.365
REMARK  7 active torsions:
REMARK  status: ('A' for Active; 'I' for Inactive)
REMARK    1  A    between atoms: C_2  and  C_3 
REMARK    2  A    between atoms: C_3  and  O_6 
REMARK    3  A    between atoms: C_3  and  C_4 
REMARK    4  A    between atoms: C_7  and  O_6 
REMARK    5  A    between atoms: C_9  and  C_10 
REMARK    6  A    between atoms: N_15  and  C_14 
REMARK    7  A    between atoms: N_20  and  C_19 
REMARK       I    between atoms: C_22  and  N_20 
ROOT
ATOM      1  C   LIG d   1      -4.494  91.591 117.414  0.00  0.00     0.161 C 
ATOM      2  C   LIG d   1      -4.968  90.803 116.352  0.00  0.00     0.016 C 
ATOM      3  C   LIG d   1      -5.995  91.218 115.473  0.00  0.00     0.038 C 
ATOM      4  C   LIG d   1      -6.516  92.520 115.504  0.00  0.00     0.028 C 
ATOM      5  C   LIG d   1      -6.424  93.177 116.877  0.00  0.00    -0.047 C 
ATOM      6  C   LIG d   1      -4.972  93.058 117.395  0.00  0.00     0.091 C 
ENDROOT
BRANCH   1   7
ATOM      7  O   LIG d   1      -3.054  91.534 117.459  0.00  0.00    -0.368 OA
BRANCH   7   8
ATOM      8  C   LIG d   1      -2.480  90.797 118.566  0.00  0.00     0.119 C 
BRANCH   8   9
ATOM      9  C   LIG d   1      -1.793  89.547 117.982  0.00  0.00     0.028 C 
ATOM     10  C   LIG d   1      -2.692  88.301 118.042  0.00  0.00     0.006 C 
ENDBRANCH   8   9
BRANCH   8  11
ATOM     11  C   LIG d   1      -3.567  90.262 119.503  0.00  0.00     0.028 C 
ATOM     12  C   LIG d   1      -3.486  90.864 120.914  0.00  0.00     0.006 C 
ENDBRANCH   8  11
ENDBRANCH   7   8
ENDBRANCH   1   7
BRANCH   6  13
ATOM     13  N   LIG d   1      -4.814  93.600 118.769  0.00  0.00    -0.311 N 
ATOM     14  C   LIG d   1      -3.799  94.380 119.137  0.00  0.00     0.210 C 
ATOM     15  C   LIG d   1      -3.816  94.813 120.606  0.00  0.00     0.109 C 
ATOM     16  O   LIG d   1      -2.903  94.779 118.378  0.00  0.00    -0.276 OA
ATOM     17  H   LIG d   1      -5.513  93.351 119.441  0.00  0.00     0.149 HD
ENDBRANCH   6  13
BRANCH   5  18
ATOM     18  N   LIG d   1      -6.874  94.574 116.734  0.00  0.00     0.381 N 
ATOM     19  H   LIG d   1      -7.794  94.675 117.116  0.00  0.00    -0.090 HD
ATOM     20  H   LIG d   1      -6.912  94.805 115.757  0.00  0.00    -0.090 HD
ATOM     21  H   LIG d   1      -6.243  95.186 117.204  0.00  0.00    -0.090 HD
ENDBRANCH   5  18
BRANCH   3  22
ATOM     22  C   LIG d   1      -6.539  90.312 114.575  0.00  0.00     0.382 C 
ATOM     23  O   LIG d   1      -7.487  90.660 113.831  0.00  0.00    -0.241 OA
ATOM     24  O   LIG d   1      -6.123  89.139 114.531  0.00  0.00    -0.241 OA
ENDBRANCH   3  22
TORSDOF 7
ENDMDL
MODEL 4
REMARK VINA RESULT:      -5.4      2.362      4.149
REMARK  7 active torsions:
REMARK  status: ('A' for Active; 'I' for Inactive)
REMARK    1  A    between atoms: C_2  and  C_3 
REMARK    2  A    between atoms: C_3  and  O_6 
REMARK    3  A    between atoms: C_3  and  C_4 
REMARK    4  A    between atoms: C_7  and  O_6 
REMARK    5  A    between atoms: C_9  and  C_10 
REMARK    6  A    between atoms: N_15  and  C_14 
REMARK    7  A    between atoms: N_20  and  C_19 
REMARK       I    between atoms: C_22  and  N_20 
ROOT
ATOM      1  C   LIG d   1      -4.981  92.864 117.005  0.00  0.00     0.161 C 
ATOM      2  C   LIG d   1      -6.129  92.206 116.533  0.00  0.00     0.016 C 
ATOM      3  C   LIG d   1      -6.205  90.806 116.353  0.00  0.00     0.038 C 
ATOM      4  C   LIG d   1      -5.181  89.947 116.779  0.00  0.00     0.028 C 
ATOM      5  C   LIG d   1      -3.805  90.606 116.793  0.00  0.00    -0.047 C 
ATOM      6  C   LIG d   1      -3.893  91.934 117.579  0.00  0.00     0.091 C 
ENDROOT
BRANCH   1   7
ATOM      7  O   LIG d   1      -5.354  93.860 117.978  0.00  0.00    -0.368 OA
BRANCH   7   8
ATOM      8  C   LIG d   1      -6.585  93.615 118.701  0.00  0.00     0.119 C 
BRANCH   8   9
ATOM      9  C   LIG d   1      -7.276  94.976 118.914  0.00  0.00     0.028 C 
ATOM     10  C   LIG d   1      -7.831  95.563 117.605  0.00  0.00     0.006 C 
ENDBRANCH   8   9
BRANCH   8  11
ATOM     11  C   LIG d   1      -6.308  93.077 120.108  0.00  0.00     0.028 C 
ATOM     12  C   LIG d   1      -6.553  91.564 120.227  0.00  0.00     0.006 C 
ENDBRANCH   8  11
ENDBRANCH   7   8
ENDBRANCH   1   7
BRANCH   6  13
ATOM     13  N   LIG d   1      -2.610  92.684 117.570  0.00  0.00    -0.311 N 
ATOM     14  C   LIG d   1      -2.056  93.203 118.665  0.00  0.00     0.210 C 
ATOM     15  C   LIG d   1      -0.742  93.954 118.430  0.00  0.00     0.109 C 
ATOM     16  O   LIG d   1      -2.512  93.084 119.812  0.00  0.00    -0.276 OA
ATOM     17  H   LIG d   1      -2.156  92.800 116.685  0.00  0.00     0.149 HD
ENDBRANCH   6  13
BRANCH   5  18
ATOM     18  N   LIG d   1      -2.857  89.644 117.386  0.00  0.00     0.381 N 
ATOM     19  H   LIG d   1      -2.754  89.829 118.364  0.00  0.00    -0.090 HD
ATOM     20  H   LIG d   1      -1.960  89.760 116.948  0.00  0.00    -0.090 HD
ATOM     21  H   LIG d   1      -3.185  88.713 117.249  0.00  0.00    -0.090 HD
ENDBRANCH   5  18
BRANCH   3  22
ATOM     22  C   LIG d   1      -7.299  90.255 115.704  0.00  0.00     0.382 C 
ATOM     23  O   LIG d   1      -7.569  89.038 115.852  0.00  0.00    -0.241 OA
ATOM     24  O   LIG d   1      -7.994  90.948 114.937  0.00  0.00    -0.241 OA
ENDBRANCH   3  22
TORSDOF 7
ENDMDL
MODEL 5
REMARK VINA RESULT:      -5.4      2.185      4.968
REMARK  7 active torsions:
REMARK  status: ('A' for Active; 'I' for Inactive)
REMARK    1  A    between atoms: C_2  and  C_3 
REMARK    2  A    between atoms: C_3  and  O_6 
REMARK    3  A    between atoms: C_3  and  C_4 
REMARK    4  A    between atoms: C_7  and  O_6 
REMARK    5  A    between atoms: C_9  and  C_10 
REMARK    6  A    between atoms: N_15  and  C_14 
REMARK    7  A    between atoms: N_20  and  C_19 
REMARK       I    between atoms: C_22  and  N_20 
ROOT
ATOM      1  C   LIG d   1      -4.767  91.947 117.632  0.00  0.00     0.161 C 
ATOM      2  C   LIG d   1      -4.999  93.124 118.362  0.00  0.00     0.016 C 
ATOM      3  C   LIG d   1      -5.965  94.089 117.997  0.00  0.00     0.038 C 
ATOM      4  C   LIG d   1      -6.876  93.868 116.953  0.00  0.00     0.028 C 
ATOM      5  C   LIG d   1      -6.348  92.925 115.878  0.00  0.00    -0.047 C 
ATOM      6  C   LIG d   1      -5.826  91.636 116.554  0.00  0.00     0.091 C 
ENDROOT
BRANCH   1   7
ATOM      7  O   LIG d   1      -4.627  90.832 118.534  0.00  0.00    -0.368 OA
BRANCH   7   8
ATOM      8  C   LIG d   1      -3.270  90.443 118.861  0.00  0.00     0.119 C 
BRANCH   8   9
ATOM      9  C   LIG d   1      -2.382  90.800 117.652  0.00  0.00     0.028 C 
ATOM     10  C   LIG d   1      -1.087  91.518 118.067  0.00  0.00     0.006 C 
ENDBRANCH   8   9
BRANCH   8  11
ATOM     11  C   LIG d   1      -3.148  88.924 119.019  0.00  0.00     0.028 C 
ATOM     12  C   LIG d   1      -2.830  88.211 117.695  0.00  0.00     0.006 C 
ENDBRANCH   8  11
ENDBRANCH   7   8
ENDBRANCH   1   7
BRANCH   6  13
ATOM     13  N   LIG d   1      -5.215  90.693 115.581  0.00  0.00    -0.311 N 
ATOM     14  C   LIG d   1      -5.564  89.412 115.483  0.00  0.00     0.210 C 
ATOM     15  C   LIG d   1      -4.795  88.611 114.428  0.00  0.00     0.109 C 
ATOM     16  O   LIG d   1      -6.461  88.870 116.147  0.00  0.00    -0.276 OA
ATOM     17  H   LIG d   1      -4.500  91.057 114.981  0.00  0.00     0.149 HD
ENDBRANCH   6  13
BRANCH   5  18
ATOM     18  N   LIG d   1      -7.446  92.674 114.926  0.00  0.00     0.381 N 
ATOM     19  H   LIG d   1      -7.130  92.068 114.196  0.00  0.00    -0.090 HD
ATOM     20  H   LIG d   1      -7.724  93.547 114.513  0.00  0.00    -0.090 HD
ATOM     21  H   LIG d   1      -8.220  92.261 115.399  0.00  0.00    -0.090 HD
ENDBRANCH   5  18
BRANCH   3  22
ATOM     22  C   LIG d   1      -6.001  95.309 118.655  0.00  0.00     0.382 C 
ATOM     23  O   LIG d   1      -4.940  95.817 119.093  0.00  0.00    -0.241 OA
ATOM     24  O   LIG d   1      -7.086  95.888 118.855  0.00  0.00    -0.241 OA
ENDBRANCH   3  22
TORSDOF 7
ENDMDL
MODEL 6
REMARK VINA RESULT:      -5.3      2.521      4.765
REMARK  7 active torsions:
REMARK  status: ('A' for Active; 'I' for Inactive)
REMARK    1  A    between atoms: C_2  and  C_3 
REMARK    2  A    between atoms: C_3  and  O_6 
REMARK    3  A    between atoms: C_3  and  C_4 
REMARK    4  A    between atoms: C_7  and  O_6 
REMARK    5  A    between atoms: C_9  and  C_10 
REMARK    6  A    between atoms: N_15  and  C_14 
REMARK    7  A    between atoms: N_20  and  C_19 
REMARK       I    between atoms: C_22  and  N_20 
ROOT
ATOM      1  C   LIG d   1      -5.862  91.164 118.753  0.00  0.00     0.161 C 
ATOM      2  C   LIG d   1      -4.615  91.599 119.233  0.00  0.00     0.016 C 
ATOM      3  C   LIG d   1      -3.390  91.312 118.588  0.00  0.00     0.038 C 
ATOM      4  C   LIG d   1      -3.342  90.696 117.329  0.00  0.00     0.028 C 
ATOM      5  C   LIG d   1      -4.539  89.794 117.049  0.00  0.00    -0.047 C 
ATOM      6  C   LIG d   1      -5.838  90.586 117.323  0.00  0.00     0.091 C 
ENDROOT
BRANCH   1   7
ATOM      7  O   LIG d   1      -6.821  92.236 118.844  0.00  0.00    -0.368 OA
BRANCH   7   8
ATOM      8  C   LIG d   1      -6.296  93.577 118.681  0.00  0.00     0.119 C 
BRANCH   8   9
ATOM      9  C   LIG d   1      -6.960  94.467 119.750  0.00  0.00     0.028 C 
ATOM     10  C   LIG d   1      -7.713  93.647 120.811  0.00  0.00     0.006 C 
ENDBRANCH   8   9
BRANCH   8  11
ATOM     11  C   LIG d   1      -6.714  94.178 117.336  0.00  0.00     0.028 C 
ATOM     12  C   LIG d   1      -7.471  95.508 117.487  0.00  0.00     0.006 C 
ENDBRANCH   8  11
ENDBRANCH   7   8
ENDBRANCH   1   7
BRANCH   6  13
ATOM     13  N   LIG d   1      -7.057  89.752 117.155  0.00  0.00    -0.311 N 
ATOM     14  C   LIG d   1      -7.706  89.626 115.998  0.00  0.00     0.210 C 
ATOM     15  C   LIG d   1      -8.950  88.734 116.049  0.00  0.00     0.109 C 
ATOM     16  O   LIG d   1      -7.351  90.144 114.929  0.00  0.00    -0.276 OA
ATOM     17  H   LIG d   1      -7.396  89.272 117.965  0.00  0.00     0.149 HD
ENDBRANCH   6  13
BRANCH   5  18
ATOM     18  N   LIG d   1      -4.429  89.327 115.654  0.00  0.00     0.381 N 
ATOM     19  H   LIG d   1      -5.160  88.672 115.458  0.00  0.00    -0.090 HD
ATOM     20  H   LIG d   1      -3.547  88.860 115.536  0.00  0.00    -0.090 HD
ATOM     21  H   LIG d   1      -4.491  90.100 115.030  0.00  0.00    -0.090 HD
ENDBRANCH   5  18
BRANCH   3  22
ATOM     22  C   LIG d   1      -2.193  91.609 119.222  0.00  0.00     0.382 C 
ATOM     23  O   LIG d   1      -1.968  92.776 119.621  0.00  0.00    -0.241 OA
ATOM     24  O   LIG d   1      -1.318  90.733 119.361  0.00  0.00    -0.241 OA
ENDBRANCH   3  22
TORSDOF 7
ENDMDL
MODEL 7
REMARK VINA RESULT:      -5.3      2.230      5.044
REMARK  7 active torsions:
REMARK  status: ('A' for Active; 'I' for Inactive)
REMARK    1  A    between atoms: C_2  and  C_3 
REMARK    2  A    between atoms: C_3  and  O_6 
REMARK    3  A    between atoms: C_3  and  C_4 
REMARK    4  A    between atoms: C_7  and  O_6 
REMARK    5  A    between atoms: C_9  and  C_10 
REMARK    6  A    between atoms: N_15  and  C_14 
REMARK    7  A    between atoms: N_20  and  C_19 
REMARK       I    between atoms: C_22  and  N_20 
ROOT
ATOM      1  C   LIG d   1      -4.253  92.019 117.760  0.00  0.00     0.161 C 
ATOM      2  C   LIG d   1      -4.319  93.170 118.563  0.00  0.00     0.016 C 
ATOM      3  C   LIG d   1      -5.334  94.147 118.441  0.00  0.00     0.038 C 
ATOM      4  C   LIG d   1      -6.444  93.962 117.605  0.00  0.00     0.028 C 
ATOM      5  C   LIG d   1      -6.160  93.057 116.411  0.00  0.00    -0.047 C 
ATOM      6  C   LIG d   1      -5.517  91.745 116.918  0.00  0.00     0.091 C 
ENDROOT
BRANCH   1   7
ATOM      7  O   LIG d   1      -3.936  90.873 118.574  0.00  0.00    -0.368 OA
BRANCH   7   8
ATOM      8  C   LIG d   1      -2.736  90.146 118.211  0.00  0.00     0.119 C 
BRANCH   8   9
ATOM      9  C   LIG d   1      -2.995  88.654 118.495  0.00  0.00     0.028 C 
ATOM     10  C   LIG d   1      -2.505  87.745 117.356  0.00  0.00     0.006 C 
ENDBRANCH   8   9
BRANCH   8  11
ATOM     11  C   LIG d   1      -1.557  90.532 119.109  0.00  0.00     0.028 C 
ATOM     12  C   LIG d   1      -0.598  91.528 118.438  0.00  0.00     0.006 C 
ENDBRANCH   8  11
ENDBRANCH   7   8
ENDBRANCH   1   7
BRANCH   6  13
ATOM     13  N   LIG d   1      -5.130  90.838 115.807  0.00  0.00    -0.311 N 
ATOM     14  C   LIG d   1      -5.541  89.574 115.716  0.00  0.00     0.210 C 
ATOM     15  C   LIG d   1      -5.008  88.807 114.502  0.00  0.00     0.109 C 
ATOM     16  O   LIG d   1      -6.322  89.025 116.507  0.00  0.00    -0.276 OA
ATOM     17  H   LIG d   1      -4.523  91.211 115.104  0.00  0.00     0.149 HD
ENDBRANCH   6  13
BRANCH   5  18
ATOM     18  N   LIG d   1      -7.435  92.840 115.702  0.00  0.00     0.381 N 
ATOM     19  H   LIG d   1      -7.811  91.946 115.948  0.00  0.00    -0.090 HD
ATOM     20  H   LIG d   1      -7.262  92.848 114.712  0.00  0.00    -0.090 HD
ATOM     21  H   LIG d   1      -8.084  93.558 115.940  0.00  0.00    -0.090 HD
ENDBRANCH   5  18
BRANCH   3  22
ATOM     22  C   LIG d   1      -5.222  95.344 119.133  0.00  0.00     0.382 C 
ATOM     23  O   LIG d   1      -6.218  95.816 119.733  0.00  0.00    -0.241 OA
ATOM     24  O   LIG d   1      -4.151  95.979 119.128  0.00  0.00    -0.241 OA
ENDBRANCH   3  22
TORSDOF 7
ENDMDL
MODEL 8
REMARK VINA RESULT:      -5.3      2.548      4.208
REMARK  7 active torsions:
REMARK  status: ('A' for Active; 'I' for Inactive)
REMARK    1  A    between atoms: C_2  and  C_3 
REMARK    2  A    between atoms: C_3  and  O_6 
REMARK    3  A    between atoms: C_3  and  C_4 
REMARK    4  A    between atoms: C_7  and  O_6 
REMARK    5  A    between atoms: C_9  and  C_10 
REMARK    6  A    between atoms: N_15  and  C_14 
REMARK    7  A    between atoms: N_20  and  C_19 
REMARK       I    between atoms: C_22  and  N_20 
ROOT
ATOM      1  C   LIG d   1      -6.125  91.025 118.354  0.00  0.00     0.161 C 
ATOM      2  C   LIG d   1      -5.065  90.667 119.204  0.00  0.00     0.016 C 
ATOM      3  C   LIG d   1      -3.940  89.926 118.776  0.00  0.00     0.038 C 
ATOM      4  C   LIG d   1      -3.725  89.620 117.423  0.00  0.00     0.028 C 
ATOM      5  C   LIG d   1      -5.013  89.523 116.612  0.00  0.00    -0.047 C 
ATOM      6  C   LIG d   1      -5.855  90.796 116.852  0.00  0.00     0.091 C 
ENDROOT
BRANCH   1   7
ATOM      7  O   LIG d   1      -6.501  92.396 118.593  0.00  0.00    -0.368 OA
BRANCH   7   8
ATOM      8  C   LIG d   1      -5.877  93.386 117.738  0.00  0.00     0.119 C 
BRANCH   8   9
ATOM      9  C   LIG d   1      -4.905  94.204 118.609  0.00  0.00     0.028 C 
ATOM     10  C   LIG d   1      -3.435  93.982 118.215  0.00  0.00     0.006 C 
ENDBRANCH   8   9
BRANCH   8  11
ATOM     11  C   LIG d   1      -6.903  94.396 117.216  0.00  0.00     0.028 C 
ATOM     12  C   LIG d   1      -7.210  95.511 118.229  0.00  0.00     0.006 C 
ENDBRANCH   8  11
ENDBRANCH   7   8
ENDBRANCH   1   7
BRANCH   6  13
ATOM     13  N   LIG d   1      -7.170  90.745 116.162  0.00  0.00    -0.311 N 
ATOM     14  C   LIG d   1      -7.391  91.289 114.966  0.00  0.00     0.210 C 
ATOM     15  C   LIG d   1      -8.823  91.140 114.443  0.00  0.00     0.109 C 
ATOM     16  O   LIG d   1      -6.530  91.853 114.275  0.00  0.00    -0.276 OA
ATOM     17  H   LIG d   1      -7.917  90.279 116.637  0.00  0.00     0.149 HD
ENDBRANCH   6  13
BRANCH   5  18
ATOM     18  N   LIG d   1      -4.635  89.337 115.198  0.00  0.00     0.381 N 
ATOM     19  H   LIG d   1      -4.172  88.457 115.084  0.00  0.00    -0.090 HD
ATOM     20  H   LIG d   1      -3.997  90.066 114.934  0.00  0.00    -0.090 HD
ATOM     21  H   LIG d   1      -5.447  89.371 114.622  0.00  0.00    -0.090 HD
ENDBRANCH   5  18
BRANCH   3  22
ATOM     22  C   LIG d   1      -3.035  89.448 119.711  0.00  0.00     0.382 C 
ATOM     23  O   LIG d   1      -2.240  90.238 120.275  0.00  0.00    -0.241 OA
ATOM     24  O   LIG d   1      -2.973  88.230 119.965  0.00  0.00    -0.241 OA
ENDBRANCH   3  22
TORSDOF 7
ENDMDL
MODEL 9
REMARK VINA RESULT:      -5.2      2.463      5.100
REMARK  7 active torsions:
REMARK  status: ('A' for Active; 'I' for Inactive)
REMARK    1  A    between atoms: C_2  and  C_3 
REMARK    2  A    between atoms: C_3  and  O_6 
REMARK    3  A    between atoms: C_3  and  C_4 
REMARK    4  A    between atoms: C_7  and  O_6 
REMARK    5  A    between atoms: C_9  and  C_10 
REMARK    6  A    between atoms: N_15  and  C_14 
REMARK    7  A    between atoms: N_20  and  C_19 
REMARK       I    between atoms: C_22  and  N_20 
ROOT
ATOM      1  C   LIG d   1      -3.234  91.761 117.452  0.00  0.00     0.161 C 
ATOM      2  C   LIG d   1      -3.226  92.940 118.217  0.00  0.00     0.016 C 
ATOM      3  C   LIG d   1      -4.347  93.793 118.343  0.00  0.00     0.038 C 
ATOM      4  C   LIG d   1      -5.605  93.444 117.831  0.00  0.00     0.028 C 
ATOM      5  C   LIG d   1      -5.533  92.512 116.627  0.00  0.00    -0.047 C 
ATOM      6  C   LIG d   1      -4.630  91.307 116.978  0.00  0.00     0.091 C 
ENDROOT
BRANCH   1   7
ATOM      7  O   LIG d   1      -2.583  90.702 118.182  0.00  0.00    -0.368 OA
BRANCH   7   8
ATOM      8  C   LIG d   1      -3.423  89.939 119.083  0.00  0.00     0.119 C 
BRANCH   8   9
ATOM      9  C   LIG d   1      -3.007  90.303 120.522  0.00  0.00     0.028 C 
ATOM     10  C   LIG d   1      -1.504  90.608 120.639  0.00  0.00     0.006 C 
ENDBRANCH   8   9
BRANCH   8  11
ATOM     11  C   LIG d   1      -3.159  88.436 118.952  0.00  0.00     0.028 C 
ATOM     12  C   LIG d   1      -2.377  88.077 117.679  0.00  0.00     0.006 C 
ENDBRANCH   8  11
ENDBRANCH   7   8
ENDBRANCH   1   7
BRANCH   6  13
ATOM     13  N   LIG d   1      -4.437  90.388 115.827  0.00  0.00    -0.311 N 
ATOM     14  C   LIG d   1      -5.201  89.319 115.605  0.00  0.00     0.210 C 
ATOM     15  C   LIG d   1      -4.818  88.495 114.372  0.00  0.00     0.109 C 
ATOM     16  O   LIG d   1      -6.179  88.994 116.295  0.00  0.00    -0.276 OA
ATOM     17  H   LIG d   1      -3.685  90.595 115.199  0.00  0.00     0.149 HD
ENDBRANCH   6  13
BRANCH   5  18
ATOM     18  N   LIG d   1      -6.912  92.119 116.283  0.00  0.00     0.381 N 
ATOM     19  H   LIG d   1      -6.896  91.364 115.627  0.00  0.00    -0.090 HD
ATOM     20  H   LIG d   1      -7.375  92.901 115.852  0.00  0.00    -0.090 HD
ATOM     21  H   LIG d   1      -7.404  91.845 117.105  0.00  0.00    -0.090 HD
ENDBRANCH   5  18
BRANCH   3  22
ATOM     22  C   LIG d   1      -4.204  95.030 118.952  0.00  0.00     0.382 C 
ATOM     23  O   LIG d   1      -5.220  95.688 119.281  0.00  0.00    -0.241 OA
ATOM     24  O   LIG d   1      -3.072  95.516 119.138  0.00  0.00    -0.241 OA
ENDBRANCH   3  22
TORSDOF 7
ENDMDL
