MODEL 1
REMARK VINA RESULT:      -5.4      0.000      0.000
REMARK  7 active torsions:
REMARK  status: ('A' for Active; 'I' for Inactive)
REMARK    1  A    between atoms: C_2  and  C_3 
REMARK    2  A    between atoms: C_3  and  O_6 
REMARK    3  A    between atoms: C_3  and  C_4 
REMARK    4  A    between atoms: C_7  and  O_6 
REMARK    5  A    between atoms: C_9  and  C_10 
REMARK    6  A    between atoms: N_15  and  C_14 
REMARK    7  A    between atoms: N_20  and  C_19 
REMARK       I    between atoms: C_22  and  N_20 
ROOT
ATOM      1  C   LIG d   1      -5.811  92.830 117.174  0.00  0.00     0.161 C 
ATOM      2  C   LIG d   1      -6.506  92.267 116.092  0.00  0.00     0.016 C 
ATOM      3  C   LIG d   1      -6.161  91.028 115.505  0.00  0.00     0.038 C 
ATOM      4  C   LIG d   1      -5.184  90.191 116.062  0.00  0.00     0.028 C 
ATOM      5  C   LIG d   1      -4.117  90.945 116.849  0.00  0.00    -0.047 C 
ATOM      6  C   LIG d   1      -4.812  91.879 117.866  0.00  0.00     0.091 C 
ENDROOT
BRANCH   1   7
ATOM      7  O   LIG d   1      -6.747  93.358 118.135  0.00  0.00    -0.368 OA
BRANCH   7   8
ATOM      8  C   LIG d   1      -6.750  94.798 118.296  0.00  0.00     0.119 C 
BRANCH   8   9
ATOM      9  C   LIG d   1      -6.201  95.108 119.703  0.00  0.00     0.028 C 
ATOM     10  C   LIG d   1      -6.570  94.023 120.728  0.00  0.00     0.006 C 
ENDBRANCH   8   9
BRANCH   8  11
ATOM     11  C   LIG d   1      -8.176  95.357 118.286  0.00  0.00     0.028 C 
ATOM     12  C   LIG d   1      -8.215  96.893 118.320  0.00  0.00     0.006 C 
ENDBRANCH   8  11
ENDBRANCH   7   8
ENDBRANCH   1   7
BRANCH   6  13
ATOM     13  N   LIG d   1      -3.843  92.716 118.620  0.00  0.00    -0.311 N 
ATOM     14  C   LIG d   1      -3.358  92.381 119.815  0.00  0.00     0.210 C 
ATOM     15  C   LIG d   1      -2.387  93.395 120.427  0.00  0.00     0.109 C 
ATOM     16  O   LIG d   1      -3.617  91.325 120.412  0.00  0.00    -0.276 OA
ATOM     17  H   LIG d   1      -3.555  93.576 118.195  0.00  0.00     0.149 HD
ENDBRANCH   6  13
BRANCH   5  18
ATOM     18  N   LIG d   1      -3.243  89.943 117.488  0.00  0.00     0.381 N 
ATOM     19  H   LIG d   1      -2.286  90.214 117.386  0.00  0.00    -0.090 HD
ATOM     20  H   LIG d   1      -3.371  89.059 117.028  0.00  0.00    -0.090 HD
ATOM     21  H   LIG d   1      -3.471  89.859 118.454  0.00  0.00    -0.090 HD
ENDBRANCH   5  18
BRANCH   3  22
ATOM     22  C   LIG d   1      -6.771  90.634 114.323  0.00  0.00     0.382 C 
ATOM     23  O   LIG d   1      -7.633  91.370 113.787  0.00  0.00    -0.241 OA
ATOM     24  O   LIG d   1      -6.501  89.531 113.811  0.00  0.00    -0.241 OA
ENDBRANCH   3  22
TORSDOF 7
ENDMDL
MODEL 2
REMARK VINA RESULT:      -5.3      2.062      5.026
REMARK  7 active torsions:
REMARK  status: ('A' for Active; 'I' for Inactive)
REMARK    1  A    between atoms: C_2  and  C_3 
REMARK    2  A    between atoms: C_3  and  O_6 
REMARK    3  A    between atoms: C_3  and  C_4 
REMARK    4  A    between atoms: C_7  and  O_6 
REMARK    5  A    between atoms: C_9  and  C_10 
REMARK    6  A    between atoms: N_15  and  C_14 
REMARK    7  A    between atoms: N_20  and  C_19 
REMARK       I    between atoms: C_22  and  N_20 
ROOT
ATOM      1  C   LIG d   1      -5.552  93.040 117.930  0.00  0.00     0.161 C 
ATOM      2  C   LIG d   1      -6.735  93.783 117.782  0.00  0.00     0.016 C 
ATOM      3  C   LIG d   1      -6.951  95.034 118.403  0.00  0.00     0.038 C 
ATOM      4  C   LIG d   1      -5.932  95.702 119.098  0.00  0.00     0.028 C 
ATOM      5  C   LIG d   1      -4.890  94.764 119.697  0.00  0.00    -0.047 C 
ATOM      6  C   LIG d   1      -4.387  93.804 118.594  0.00  0.00     0.091 C 
ENDROOT
BRANCH   1   7
ATOM      7  O   LIG d   1      -5.142  92.514 116.652  0.00  0.00    -0.368 OA
BRANCH   7   8
ATOM      8  C   LIG d   1      -5.970  91.459 116.102  0.00  0.00     0.119 C 
BRANCH   8   9
ATOM      9  C   LIG d   1      -5.035  90.308 115.683  0.00  0.00     0.028 C 
ATOM     10  C   LIG d   1      -3.887  90.090 116.684  0.00  0.00     0.006 C 
ENDBRANCH   8   9
BRANCH   8  11
ATOM     11  C   LIG d   1      -6.661  91.910 114.812  0.00  0.00     0.028 C 
ATOM     12  C   LIG d   1      -7.029  90.735 113.892  0.00  0.00     0.006 C 
ENDBRANCH   8  11
ENDBRANCH   7   8
ENDBRANCH   1   7
BRANCH   6  13
ATOM     13  N   LIG d   1      -3.426  92.797 119.114  0.00  0.00    -0.311 N 
ATOM     14  C   LIG d   1      -2.176  92.679 118.671  0.00  0.00     0.210 C 
ATOM     15  C   LIG d   1      -1.359  91.562 119.328  0.00  0.00     0.109 C 
ATOM     16  O   LIG d   1      -1.655  93.415 117.819  0.00  0.00    -0.276 OA
ATOM     17  H   LIG d   1      -3.756  92.179 119.829  0.00  0.00     0.149 HD
ENDBRANCH   6  13
BRANCH   5  18
ATOM     18  N   LIG d   1      -3.817  95.597 120.272  0.00  0.00     0.381 N 
ATOM     19  H   LIG d   1      -3.000  95.040 120.422  0.00  0.00    -0.090 HD
ATOM     20  H   LIG d   1      -4.124  95.953 121.160  0.00  0.00    -0.090 HD
ATOM     21  H   LIG d   1      -3.606  96.352 119.657  0.00  0.00    -0.090 HD
ENDBRANCH   5  18
BRANCH   3  22
ATOM     22  C   LIG d   1      -8.211  95.611 118.366  0.00  0.00     0.382 C 
ATOM     23  O   LIG d   1      -9.220  94.935 118.682  0.00  0.00    -0.241 OA
ATOM     24  O   LIG d   1      -8.357  96.786 117.978  0.00  0.00    -0.241 OA
ENDBRANCH   3  22
TORSDOF 7
ENDMDL
MODEL 3
REMARK VINA RESULT:      -5.1      2.182      5.331
REMARK  7 active torsions:
REMARK  status: ('A' for Active; 'I' for Inactive)
REMARK    1  A    between atoms: C_2  and  C_3 
REMARK    2  A    between atoms: C_3  and  O_6 
REMARK    3  A    between atoms: C_3  and  C_4 
REMARK    4  A    between atoms: C_7  and  O_6 
REMARK    5  A    between atoms: C_9  and  C_10 
REMARK    6  A    between atoms: N_15  and  C_14 
REMARK    7  A    between atoms: N_20  and  C_19 
REMARK       I    between atoms: C_22  and  N_20 
ROOT
ATOM      1  C   LIG d   1      -5.614  92.291 117.175  0.00  0.00     0.161 C 
ATOM      2  C   LIG d   1      -4.687  91.264 117.418  0.00  0.00     0.016 C 
ATOM      3  C   LIG d   1      -4.066  91.056 118.671  0.00  0.00     0.038 C 
ATOM      4  C   LIG d   1      -4.446  91.774 119.814  0.00  0.00     0.028 C 
ATOM      5  C   LIG d   1      -5.012  93.156 119.502  0.00  0.00    -0.047 C 
ATOM      6  C   LIG d   1      -6.124  93.014 118.439  0.00  0.00     0.091 C 
ENDROOT
BRANCH   1   7
ATOM      7  O   LIG d   1      -6.723  91.778 116.409  0.00  0.00    -0.368 OA
BRANCH   7   8
ATOM      8  C   LIG d   1      -6.649  90.380 116.040  0.00  0.00     0.119 C 
BRANCH   8   9
ATOM      9  C   LIG d   1      -6.902  90.288 114.522  0.00  0.00     0.028 C 
ATOM     10  C   LIG d   1      -7.182  91.661 113.890  0.00  0.00     0.006 C 
ENDBRANCH   8   9
BRANCH   8  11
ATOM     11  C   LIG d   1      -7.777  89.572 116.688  0.00  0.00     0.028 C 
ATOM     12  C   LIG d   1      -8.865  89.157 115.685  0.00  0.00     0.006 C 
ENDBRANCH   8  11
ENDBRANCH   7   8
ENDBRANCH   1   7
BRANCH   6  13
ATOM     13  N   LIG d   1      -6.673  94.329 118.014  0.00  0.00    -0.311 N 
ATOM     14  C   LIG d   1      -7.729  94.902 118.589  0.00  0.00     0.210 C 
ATOM     15  C   LIG d   1      -8.143  96.248 117.985  0.00  0.00     0.109 C 
ATOM     16  O   LIG d   1      -8.342  94.440 119.563  0.00  0.00    -0.276 OA
ATOM     17  H   LIG d   1      -6.217  94.789 117.251  0.00  0.00     0.149 HD
ENDBRANCH   6  13
BRANCH   5  18
ATOM     18  N   LIG d   1      -5.494  93.737 120.770  0.00  0.00     0.381 N 
ATOM     19  H   LIG d   1      -4.734  93.819 121.415  0.00  0.00    -0.090 HD
ATOM     20  H   LIG d   1      -6.181  93.122 121.169  0.00  0.00    -0.090 HD
ATOM     21  H   LIG d   1      -5.896  94.633 120.603  0.00  0.00    -0.090 HD
ENDBRANCH   5  18
BRANCH   3  22
ATOM     22  C   LIG d   1      -3.024  90.148 118.779  0.00  0.00     0.382 C 
ATOM     23  O   LIG d   1      -1.882  90.542 119.116  0.00  0.00    -0.241 OA
ATOM     24  O   LIG d   1      -3.201  88.947 118.501  0.00  0.00    -0.241 OA
ENDBRANCH   3  22
TORSDOF 7
ENDMDL
MODEL 4
REMARK VINA RESULT:      -5.1      2.513      4.917
REMARK  7 active torsions:
REMARK  status: ('A' for Active; 'I' for Inactive)
REMARK    1  A    between atoms: C_2  and  C_3 
REMARK    2  A    between atoms: C_3  and  O_6 
REMARK    3  A    between atoms: C_3  and  C_4 
REMARK    4  A    between atoms: C_7  and  O_6 
REMARK    5  A    between atoms: C_9  and  C_10 
REMARK    6  A    between atoms: N_15  and  C_14 
REMARK    7  A    between atoms: N_20  and  C_19 
REMARK       I    between atoms: C_22  and  N_20 
ROOT
ATOM      1  C   LIG d   1      -3.796  91.157 117.503  0.00  0.00     0.161 C 
ATOM      2  C   LIG d   1      -4.526  90.402 116.569  0.00  0.00     0.016 C 
ATOM      3  C   LIG d   1      -5.753  90.830 116.012  0.00  0.00     0.038 C 
ATOM      4  C   LIG d   1      -6.262  92.117 116.238  0.00  0.00     0.028 C 
ATOM      5  C   LIG d   1      -5.818  92.719 117.567  0.00  0.00    -0.047 C 
ATOM      6  C   LIG d   1      -4.279  92.612 117.677  0.00  0.00     0.091 C 
ENDROOT
BRANCH   1   7
ATOM      7  O   LIG d   1      -2.396  91.131 117.164  0.00  0.00    -0.368 OA
BRANCH   7   8
ATOM      8  C   LIG d   1      -1.533  90.404 118.073  0.00  0.00     0.119 C 
BRANCH   8   9
ATOM      9  C   LIG d   1      -0.374  91.342 118.461  0.00  0.00     0.028 C 
ATOM     10  C   LIG d   1       0.099  92.209 117.282  0.00  0.00     0.006 C 
ENDBRANCH   8   9
BRANCH   8  11
ATOM     11  C   LIG d   1      -0.873  89.209 117.379  0.00  0.00     0.028 C 
ATOM     12  C   LIG d   1      -1.778  87.967 117.343  0.00  0.00     0.006 C 
ENDBRANCH   8  11
ENDBRANCH   7   8
ENDBRANCH   1   7
BRANCH   6  13
ATOM     13  N   LIG d   1      -3.769  93.102 118.984  0.00  0.00    -0.311 N 
ATOM     14  C   LIG d   1      -2.837  94.046 119.100  0.00  0.00     0.210 C 
ATOM     15  C   LIG d   1      -2.439  94.389 120.539  0.00  0.00     0.109 C 
ATOM     16  O   LIG d   1      -2.324  94.654 118.149  0.00  0.00    -0.276 OA
ATOM     17  H   LIG d   1      -4.153  92.684 119.809  0.00  0.00     0.149 HD
ENDBRANCH   6  13
BRANCH   5  18
ATOM     18  N   LIG d   1      -6.305  94.110 117.612  0.00  0.00     0.381 N 
ATOM     19  H   LIG d   1      -6.319  94.494 116.688  0.00  0.00    -0.090 HD
ATOM     20  H   LIG d   1      -5.675  94.658 118.171  0.00  0.00    -0.090 HD
ATOM     21  H   LIG d   1      -7.220  94.139 118.005  0.00  0.00    -0.090 HD
ENDBRANCH   5  18
BRANCH   3  22
ATOM     22  C   LIG d   1      -6.505  89.949 115.250  0.00  0.00     0.382 C 
ATOM     23  O   LIG d   1      -6.068  89.544 114.146  0.00  0.00    -0.241 OA
ATOM     24  O   LIG d   1      -7.635  89.589 115.631  0.00  0.00    -0.241 OA
ENDBRANCH   3  22
TORSDOF 7
ENDMDL
MODEL 5
REMARK VINA RESULT:      -5.0      1.769      2.380
REMARK  7 active torsions:
REMARK  status: ('A' for Active; 'I' for Inactive)
REMARK    1  A    between atoms: C_2  and  C_3 
REMARK    2  A    between atoms: C_3  and  O_6 
REMARK    3  A    between atoms: C_3  and  C_4 
REMARK    4  A    between atoms: C_7  and  O_6 
REMARK    5  A    between atoms: C_9  and  C_10 
REMARK    6  A    between atoms: N_15  and  C_14 
REMARK    7  A    between atoms: N_20  and  C_19 
REMARK       I    between atoms: C_22  and  N_20 
ROOT
ATOM      1  C   LIG d   1      -5.020  92.811 117.036  0.00  0.00     0.161 C 
ATOM      2  C   LIG d   1      -6.169  92.066 116.724  0.00  0.00     0.016 C 
ATOM      3  C   LIG d   1      -6.156  90.667 116.513  0.00  0.00     0.038 C 
ATOM      4  C   LIG d   1      -5.011  89.893 116.751  0.00  0.00     0.028 C 
ATOM      5  C   LIG d   1      -3.709  90.667 116.576  0.00  0.00    -0.047 C 
ATOM      6  C   LIG d   1      -3.783  91.968 117.408  0.00  0.00     0.091 C 
ENDROOT
BRANCH   1   7
ATOM      7  O   LIG d   1      -5.319  93.753 118.085  0.00  0.00    -0.368 OA
BRANCH   7   8
ATOM      8  C   LIG d   1      -6.131  93.255 119.177  0.00  0.00     0.119 C 
BRANCH   8   9
ATOM      9  C   LIG d   1      -7.174  94.339 119.510  0.00  0.00     0.028 C 
ATOM     10  C   LIG d   1      -7.458  95.267 118.317  0.00  0.00     0.006 C 
ENDBRANCH   8   9
BRANCH   8  11
ATOM     11  C   LIG d   1      -5.303  93.081 120.453  0.00  0.00     0.028 C 
ATOM     12  C   LIG d   1      -4.124  94.064 120.537  0.00  0.00     0.006 C 
ENDBRANCH   8  11
ENDBRANCH   7   8
ENDBRANCH   1   7
BRANCH   6  13
ATOM     13  N   LIG d   1      -2.583  92.826 117.227  0.00  0.00    -0.311 N 
ATOM     14  C   LIG d   1      -1.542  92.814 118.057  0.00  0.00     0.210 C 
ATOM     15  C   LIG d   1      -0.417  93.791 117.698  0.00  0.00     0.109 C 
ATOM     16  O   LIG d   1      -1.428  92.065 119.039  0.00  0.00    -0.276 OA
ATOM     17  H   LIG d   1      -2.578  93.442 116.438  0.00  0.00     0.149 HD
ENDBRANCH   6  13
BRANCH   5  18
ATOM     18  N   LIG d   1      -2.604  89.780 116.987  0.00  0.00     0.381 N 
ATOM     19  H   LIG d   1      -2.875  89.254 117.794  0.00  0.00    -0.090 HD
ATOM     20  H   LIG d   1      -1.808  90.343 117.230  0.00  0.00    -0.090 HD
ATOM     21  H   LIG d   1      -2.368  89.162 116.242  0.00  0.00    -0.090 HD
ENDBRANCH   5  18
BRANCH   3  22
ATOM     22  C   LIG d   1      -7.288  90.036 116.022  0.00  0.00     0.382 C 
ATOM     23  O   LIG d   1      -7.784  90.399 114.928  0.00  0.00    -0.241 OA
ATOM     24  O   LIG d   1      -7.846  89.137 116.680  0.00  0.00    -0.241 OA
ENDBRANCH   3  22
TORSDOF 7
ENDMDL
MODEL 6
REMARK VINA RESULT:      -4.9      2.732      6.405
REMARK  7 active torsions:
REMARK  status: ('A' for Active; 'I' for Inactive)
REMARK    1  A    between atoms: C_2  and  C_3 
REMARK    2  A    between atoms: C_3  and  O_6 
REMARK    3  A    between atoms: C_3  and  C_4 
REMARK    4  A    between atoms: C_7  and  O_6 
REMARK    5  A    between atoms: C_9  and  C_10 
REMARK    6  A    between atoms: N_15  and  C_14 
REMARK    7  A    between atoms: N_20  and  C_19 
REMARK       I    between atoms: C_22  and  N_20 
ROOT
ATOM      1  C   LIG d   1      -4.183  91.119 117.207  0.00  0.00     0.161 C 
ATOM      2  C   LIG d   1      -3.114  91.922 117.638  0.00  0.00     0.016 C 
ATOM      3  C   LIG d   1      -3.288  93.165 118.290  0.00  0.00     0.038 C 
ATOM      4  C   LIG d   1      -4.552  93.620 118.692  0.00  0.00     0.028 C 
ATOM      5  C   LIG d   1      -5.691  93.085 117.831  0.00  0.00    -0.047 C 
ATOM      6  C   LIG d   1      -5.567  91.547 117.736  0.00  0.00     0.091 C 
ENDROOT
BRANCH   1   7
ATOM      7  O   LIG d   1      -3.923  89.741 117.539  0.00  0.00    -0.368 OA
BRANCH   7   8
ATOM      8  C   LIG d   1      -2.585  89.438 118.006  0.00  0.00     0.119 C 
BRANCH   8   9
ATOM      9  C   LIG d   1      -2.054  88.264 117.161  0.00  0.00     0.028 C 
ATOM     10  C   LIG d   1      -0.534  88.082 117.300  0.00  0.00     0.006 C 
ENDBRANCH   8   9
BRANCH   8  11
ATOM     11  C   LIG d   1      -2.601  88.925 119.449  0.00  0.00     0.028 C 
ATOM     12  C   LIG d   1      -2.037  89.946 120.451  0.00  0.00     0.006 C 
ENDBRANCH   8  11
ENDBRANCH   7   8
ENDBRANCH   1   7
BRANCH   6  13
ATOM     13  N   LIG d   1      -6.594  90.950 116.843  0.00  0.00    -0.311 N 
ATOM     14  C   LIG d   1      -6.786  91.339 115.584  0.00  0.00     0.210 C 
ATOM     15  C   LIG d   1      -7.910  90.606 114.844  0.00  0.00     0.109 C 
ATOM     16  O   LIG d   1      -6.110  92.198 114.998  0.00  0.00    -0.276 OA
ATOM     17  H   LIG d   1      -7.167  90.224 117.227  0.00  0.00     0.149 HD
ENDBRANCH   6  13
BRANCH   5  18
ATOM     18  N   LIG d   1      -6.958  93.526 118.444  0.00  0.00     0.381 N 
ATOM     19  H   LIG d   1      -6.888  94.488 118.712  0.00  0.00    -0.090 HD
ATOM     20  H   LIG d   1      -7.127  92.980 119.270  0.00  0.00    -0.090 HD
ATOM     21  H   LIG d   1      -7.708  93.408 117.799  0.00  0.00    -0.090 HD
ENDBRANCH   5  18
BRANCH   3  22
ATOM     22  C   LIG d   1      -2.191  93.985 118.510  0.00  0.00     0.382 C 
ATOM     23  O   LIG d   1      -1.590  94.502 117.537  0.00  0.00    -0.241 OA
ATOM     24  O   LIG d   1      -1.768  94.178 119.665  0.00  0.00    -0.241 OA
ENDBRANCH   3  22
TORSDOF 7
ENDMDL
MODEL 7
REMARK VINA RESULT:      -4.9      2.978      5.531
REMARK  7 active torsions:
REMARK  status: ('A' for Active; 'I' for Inactive)
REMARK    1  A    between atoms: C_2  and  C_3 
REMARK    2  A    between atoms: C_3  and  O_6 
REMARK    3  A    between atoms: C_3  and  C_4 
REMARK    4  A    between atoms: C_7  and  O_6 
REMARK    5  A    between atoms: C_9  and  C_10 
REMARK    6  A    between atoms: N_15  and  C_14 
REMARK    7  A    between atoms: N_20  and  C_19 
REMARK       I    between atoms: C_22  and  N_20 
ROOT
ATOM      1  C   LIG d   1      -2.729  90.900 117.508  0.00  0.00     0.161 C 
ATOM      2  C   LIG d   1      -3.637  90.207 116.692  0.00  0.00     0.016 C 
ATOM      3  C   LIG d   1      -4.908  90.714 116.337  0.00  0.00     0.038 C 
ATOM      4  C   LIG d   1      -5.299  92.024 116.652  0.00  0.00     0.028 C 
ATOM      5  C   LIG d   1      -4.619  92.573 117.902  0.00  0.00    -0.047 C 
ATOM      6  C   LIG d   1      -3.092  92.377 117.771  0.00  0.00     0.091 C 
ENDROOT
BRANCH   1   7
ATOM      7  O   LIG d   1      -1.401  90.801 116.956  0.00  0.00    -0.368 OA
BRANCH   7   8
ATOM      8  C   LIG d   1      -0.450  90.019 117.718  0.00  0.00     0.119 C 
BRANCH   8   9
ATOM      9  C   LIG d   1       0.863  90.823 117.786  0.00  0.00     0.028 C 
ATOM     10  C   LIG d   1       1.063  91.723 116.555  0.00  0.00     0.006 C 
ENDBRANCH   8   9
BRANCH   8  11
ATOM     11  C   LIG d   1      -0.092  88.717 116.994  0.00  0.00     0.028 C 
ATOM     12  C   LIG d   1      -1.001  87.544 117.393  0.00  0.00     0.006 C 
ENDBRANCH   8  11
ENDBRANCH   7   8
ENDBRANCH   1   7
BRANCH   6  13
ATOM     13  N   LIG d   1      -2.358  92.811 118.988  0.00  0.00    -0.311 N 
ATOM     14  C   LIG d   1      -1.353  93.685 118.965  0.00  0.00     0.210 C 
ATOM     15  C   LIG d   1      -0.720  93.979 120.329  0.00  0.00     0.109 C 
ATOM     16  O   LIG d   1      -0.946  94.269 117.949  0.00  0.00    -0.276 OA
ATOM     17  H   LIG d   1      -2.643  92.411 119.860  0.00  0.00     0.149 HD
ENDBRANCH   6  13
BRANCH   5  18
ATOM     18  N   LIG d   1      -5.011  93.989 118.036  0.00  0.00     0.381 N 
ATOM     19  H   LIG d   1      -5.967  94.051 118.326  0.00  0.00    -0.090 HD
ATOM     20  H   LIG d   1      -4.923  94.437 117.141  0.00  0.00    -0.090 HD
ATOM     21  H   LIG d   1      -4.425  94.444 118.702  0.00  0.00    -0.090 HD
ENDBRANCH   5  18
BRANCH   3  22
ATOM     22  C   LIG d   1      -5.820  89.892 115.691  0.00  0.00     0.382 C 
ATOM     23  O   LIG d   1      -6.842  89.492 116.298  0.00  0.00    -0.241 OA
ATOM     24  O   LIG d   1      -5.611  89.511 114.524  0.00  0.00    -0.241 OA
ENDBRANCH   3  22
TORSDOF 7
ENDMDL
MODEL 8
REMARK VINA RESULT:      -4.7      1.818      2.171
REMARK  7 active torsions:
REMARK  status: ('A' for Active; 'I' for Inactive)
REMARK    1  A    between atoms: C_2  and  C_3 
REMARK    2  A    between atoms: C_3  and  O_6 
REMARK    3  A    between atoms: C_3  and  C_4 
REMARK    4  A    between atoms: C_7  and  O_6 
REMARK    5  A    between atoms: C_9  and  C_10 
REMARK    6  A    between atoms: N_15  and  C_14 
REMARK    7  A    between atoms: N_20  and  C_19 
REMARK       I    between atoms: C_22  and  N_20 
ROOT
ATOM      1  C   LIG d   1      -5.620  93.805 118.273  0.00  0.00     0.161 C 
ATOM      2  C   LIG d   1      -6.360  92.783 117.656  0.00  0.00     0.016 C 
ATOM      3  C   LIG d   1      -5.768  91.669 117.019  0.00  0.00     0.038 C 
ATOM      4  C   LIG d   1      -4.388  91.422 117.088  0.00  0.00     0.028 C 
ATOM      5  C   LIG d   1      -3.555  92.687 117.266  0.00  0.00    -0.047 C 
ATOM      6  C   LIG d   1      -4.119  93.497 118.456  0.00  0.00     0.091 C 
ENDROOT
BRANCH   1   7
ATOM      7  O   LIG d   1      -6.219  94.146 119.539  0.00  0.00    -0.368 OA
BRANCH   7   8
ATOM      8  C   LIG d   1      -6.607  95.532 119.708  0.00  0.00     0.119 C 
BRANCH   8   9
ATOM      9  C   LIG d   1      -7.914  95.551 120.525  0.00  0.00     0.028 C 
ATOM     10  C   LIG d   1      -8.513  94.146 120.705  0.00  0.00     0.006 C 
ENDBRANCH   8   9
BRANCH   8  11
ATOM     11  C   LIG d   1      -6.957  96.180 118.366  0.00  0.00     0.028 C 
ATOM     12  C   LIG d   1      -8.244  97.019 118.428  0.00  0.00     0.006 C 
ENDBRANCH   8  11
ENDBRANCH   7   8
ENDBRANCH   1   7
BRANCH   6  13
ATOM     13  N   LIG d   1      -3.414  94.791 118.646  0.00  0.00    -0.311 N 
ATOM     14  C   LIG d   1      -2.390  94.953 119.482  0.00  0.00     0.210 C 
ATOM     15  C   LIG d   1      -1.821  96.373 119.541  0.00  0.00     0.109 C 
ATOM     16  O   LIG d   1      -1.879  94.046 120.158  0.00  0.00    -0.276 OA
ATOM     17  H   LIG d   1      -3.744  95.573 118.113  0.00  0.00     0.149 HD
ENDBRANCH   6  13
BRANCH   5  18
ATOM     18  N   LIG d   1      -2.153  92.273 117.461  0.00  0.00     0.381 N 
ATOM     19  H   LIG d   1      -1.755  92.776 118.229  0.00  0.00    -0.090 HD
ATOM     20  H   LIG d   1      -1.629  92.497 116.633  0.00  0.00    -0.090 HD
ATOM     21  H   LIG d   1      -2.108  91.294 117.637  0.00  0.00    -0.090 HD
ENDBRANCH   5  18
BRANCH   3  22
ATOM     22  C   LIG d   1      -6.554  90.808 116.269  0.00  0.00     0.382 C 
ATOM     23  O   LIG d   1      -6.350  89.571 116.316  0.00  0.00    -0.241 OA
ATOM     24  O   LIG d   1      -7.435  91.255 115.511  0.00  0.00    -0.241 OA
ENDBRANCH   3  22
TORSDOF 7
ENDMDL
MODEL 9
REMARK VINA RESULT:      -4.6      3.491      6.497
REMARK  7 active torsions:
REMARK  status: ('A' for Active; 'I' for Inactive)
REMARK    1  A    between atoms: C_2  and  C_3 
REMARK    2  A    between atoms: C_3  and  O_6 
REMARK    3  A    between atoms: C_3  and  C_4 
REMARK    4  A    between atoms: C_7  and  O_6 
REMARK    5  A    between atoms: C_9  and  C_10 
REMARK    6  A    between atoms: N_15  and  C_14 
REMARK    7  A    between atoms: N_20  and  C_19 
REMARK       I    between atoms: C_22  and  N_20 
ROOT
ATOM      1  C   LIG d   1      -1.961  92.066 117.846  0.00  0.00     0.161 C 
ATOM      2  C   LIG d   1      -0.559  91.996 117.808  0.00  0.00     0.016 C 
ATOM      3  C   LIG d   1       0.276  93.137 117.768  0.00  0.00     0.038 C 
ATOM      4  C   LIG d   1      -0.234  94.435 117.917  0.00  0.00     0.028 C 
ATOM      5  C   LIG d   1      -1.679  94.575 117.450  0.00  0.00    -0.047 C 
ATOM      6  C   LIG d   1      -2.532  93.473 118.121  0.00  0.00     0.091 C 
ENDROOT
BRANCH   1   7
ATOM      7  O   LIG d   1      -2.472  91.122 118.807  0.00  0.00    -0.368 OA
BRANCH   7   8
ATOM      8  C   LIG d   1      -3.116  89.943 118.264  0.00  0.00     0.119 C 
BRANCH   8   9
ATOM      9  C   LIG d   1      -2.083  88.800 118.287  0.00  0.00     0.028 C 
ATOM     10  C   LIG d   1      -2.300  87.836 119.465  0.00  0.00     0.006 C 
ENDBRANCH   8   9
BRANCH   8  11
ATOM     11  C   LIG d   1      -3.475  90.135 116.788  0.00  0.00     0.028 C 
ATOM     12  C   LIG d   1      -4.988  90.279 116.557  0.00  0.00     0.006 C 
ENDBRANCH   8  11
ENDBRANCH   7   8
ENDBRANCH   1   7
BRANCH   6  13
ATOM     13  N   LIG d   1      -3.943  93.486 117.654  0.00  0.00    -0.311 N 
ATOM     14  C   LIG d   1      -4.986  93.588 118.475  0.00  0.00     0.210 C 
ATOM     15  C   LIG d   1      -6.355  93.561 117.789  0.00  0.00     0.109 C 
ATOM     16  O   LIG d   1      -4.907  93.731 119.705  0.00  0.00    -0.276 OA
ATOM     17  H   LIG d   1      -4.098  93.405 116.668  0.00  0.00     0.149 HD
ENDBRANCH   6  13
BRANCH   5  18
ATOM     18  N   LIG d   1      -2.127  95.939 117.789  0.00  0.00     0.381 N 
ATOM     19  H   LIG d   1      -1.430  96.602 117.514  0.00  0.00    -0.090 HD
ATOM     20  H   LIG d   1      -2.249  96.003 118.784  0.00  0.00    -0.090 HD
ATOM     21  H   LIG d   1      -2.987  96.140 117.328  0.00  0.00    -0.090 HD
ENDBRANCH   5  18
BRANCH   3  22
ATOM     22  C   LIG d   1       1.635  92.986 117.537  0.00  0.00     0.382 C 
ATOM     23  O   LIG d   1       2.036  92.489 116.458  0.00  0.00    -0.241 OA
ATOM     24  O   LIG d   1       2.463  93.299 118.414  0.00  0.00    -0.241 OA
ENDBRANCH   3  22
TORSDOF 7
ENDMDL
