MODEL 1
REMARK VINA RESULT:      -5.5      0.000      0.000
REMARK  7 active torsions:
REMARK  status: ('A' for Active; 'I' for Inactive)
REMARK    1  A    between atoms: C_2  and  C_3 
REMARK    2  A    between atoms: C_3  and  O_6 
REMARK    3  A    between atoms: C_3  and  C_4 
REMARK    4  A    between atoms: C_7  and  O_6 
REMARK    5  A    between atoms: C_9  and  C_10 
REMARK    6  A    between atoms: N_15  and  C_14 
REMARK    7  A    between atoms: N_20  and  C_19 
REMARK       I    between atoms: C_22  and  N_20 
ROOT
ATOM      1  C   LIG d   1      -4.705  90.958 117.310  0.00  0.00     0.161 C 
ATOM      2  C   LIG d   1      -3.946  89.778 117.238  0.00  0.00     0.016 C 
ATOM      3  C   LIG d   1      -3.134  89.309 118.297  0.00  0.00     0.038 C 
ATOM      4  C   LIG d   1      -3.145  89.913 119.563  0.00  0.00     0.028 C 
ATOM      5  C   LIG d   1      -3.507  91.394 119.524  0.00  0.00    -0.047 C 
ATOM      6  C   LIG d   1      -4.816  91.570 118.722  0.00  0.00     0.091 C 
ENDROOT
BRANCH   1   7
ATOM      7  O   LIG d   1      -6.016  90.729 116.758  0.00  0.00    -0.368 OA
BRANCH   7   8
ATOM      8  C   LIG d   1      -6.168  89.538 115.948  0.00  0.00     0.119 C 
BRANCH   8   9
ATOM      9  C   LIG d   1      -6.436  89.994 114.500  0.00  0.00     0.028 C 
ATOM     10  C   LIG d   1      -6.489  91.525 114.368  0.00  0.00     0.006 C 
ENDBRANCH   8   9
BRANCH   8  11
ATOM     11  C   LIG d   1      -7.409  88.739 116.358  0.00  0.00     0.028 C 
ATOM     12  C   LIG d   1      -8.720  89.492 116.081  0.00  0.00     0.006 C 
ENDBRANCH   8  11
ENDBRANCH   7   8
ENDBRANCH   1   7
BRANCH   6  13
ATOM     13  N   LIG d   1      -5.196  92.998 118.564  0.00  0.00    -0.311 N 
ATOM     14  C   LIG d   1      -5.983  93.647 119.421  0.00  0.00     0.210 C 
ATOM     15  C   LIG d   1      -6.266  95.108 119.061  0.00  0.00     0.109 C 
ATOM     16  O   LIG d   1      -6.447  93.159 120.463  0.00  0.00    -0.276 OA
ATOM     17  H   LIG d   1      -4.838  93.480 117.762  0.00  0.00     0.149 HD
ENDBRANCH   6  13
BRANCH   5  18
ATOM     18  N   LIG d   1      -3.615  91.863 120.919  0.00  0.00     0.381 N 
ATOM     19  H   LIG d   1      -4.564  91.787 121.229  0.00  0.00    -0.090 HD
ATOM     20  H   LIG d   1      -3.347  92.830 120.959  0.00  0.00    -0.090 HD
ATOM     21  H   LIG d   1      -3.022  91.321 121.508  0.00  0.00    -0.090 HD
ENDBRANCH   5  18
BRANCH   3  22
ATOM     22  C   LIG d   1      -2.269  88.247 118.081  0.00  0.00     0.382 C 
ATOM     23  O   LIG d   1      -2.601  87.315 117.310  0.00  0.00    -0.241 OA
ATOM     24  O   LIG d   1      -1.180  88.187 118.683  0.00  0.00    -0.241 OA
ENDBRANCH   3  22
TORSDOF 7
ENDMDL
MODEL 2
REMARK VINA RESULT:      -5.4      1.832      5.227
REMARK  7 active torsions:
REMARK  status: ('A' for Active; 'I' for Inactive)
REMARK    1  A    between atoms: C_2  and  C_3 
REMARK    2  A    between atoms: C_3  and  O_6 
REMARK    3  A    between atoms: C_3  and  C_4 
REMARK    4  A    between atoms: C_7  and  O_6 
REMARK    5  A    between atoms: C_9  and  C_10 
REMARK    6  A    between atoms: N_15  and  C_14 
REMARK    7  A    between atoms: N_20  and  C_19 
REMARK       I    between atoms: C_22  and  N_20 
ROOT
ATOM      1  C   LIG d   1      -6.475  92.202 117.500  0.00  0.00     0.161 C 
ATOM      2  C   LIG d   1      -7.246  93.347 117.760  0.00  0.00     0.016 C 
ATOM      3  C   LIG d   1      -6.924  94.292 118.761  0.00  0.00     0.038 C 
ATOM      4  C   LIG d   1      -5.718  94.234 119.475  0.00  0.00     0.028 C 
ATOM      5  C   LIG d   1      -5.155  92.822 119.598  0.00  0.00    -0.047 C 
ATOM      6  C   LIG d   1      -5.096  92.180 118.193  0.00  0.00     0.091 C 
ENDROOT
BRANCH   1   7
ATOM      7  O   LIG d   1      -6.323  92.027 116.078  0.00  0.00    -0.368 OA
BRANCH   7   8
ATOM      8  C   LIG d   1      -7.251  91.111 115.446  0.00  0.00     0.119 C 
BRANCH   8   9
ATOM      9  C   LIG d   1      -7.534  89.974 116.446  0.00  0.00     0.028 C 
ATOM     10  C   LIG d   1      -8.862  89.254 116.157  0.00  0.00     0.006 C 
ENDBRANCH   8   9
BRANCH   8  11
ATOM     11  C   LIG d   1      -6.620  90.431 114.227  0.00  0.00     0.028 C 
ATOM     12  C   LIG d   1      -5.715  89.249 114.606  0.00  0.00     0.006 C 
ENDBRANCH   8  11
ENDBRANCH   7   8
ENDBRANCH   1   7
BRANCH   6  13
ATOM     13  N   LIG d   1      -4.636  90.768 118.234  0.00  0.00    -0.311 N 
ATOM     14  C   LIG d   1      -3.361  90.408 118.095  0.00  0.00     0.210 C 
ATOM     15  C   LIG d   1      -3.105  88.899 118.149  0.00  0.00     0.109 C 
ATOM     16  O   LIG d   1      -2.413  91.198 117.965  0.00  0.00    -0.276 OA
ATOM     17  H   LIG d   1      -5.335  90.064 118.367  0.00  0.00     0.149 HD
ENDBRANCH   6  13
BRANCH   5  18
ATOM     18  N   LIG d   1      -3.832  92.925 120.242  0.00  0.00     0.381 N 
ATOM     19  H   LIG d   1      -3.112  92.791 119.561  0.00  0.00    -0.090 HD
ATOM     20  H   LIG d   1      -3.750  92.201 120.935  0.00  0.00    -0.090 HD
ATOM     21  H   LIG d   1      -3.730  93.818 120.672  0.00  0.00    -0.090 HD
ENDBRANCH   5  18
BRANCH   3  22
ATOM     22  C   LIG d   1      -7.834  95.287 119.084  0.00  0.00     0.382 C 
ATOM     23  O   LIG d   1      -7.925  95.693 120.268  0.00  0.00    -0.241 OA
ATOM     24  O   LIG d   1      -8.596  95.753 118.216  0.00  0.00    -0.241 OA
ENDBRANCH   3  22
TORSDOF 7
ENDMDL
MODEL 3
REMARK VINA RESULT:      -5.4      2.172      5.178
REMARK  7 active torsions:
REMARK  status: ('A' for Active; 'I' for Inactive)
REMARK    1  A    between atoms: C_2  and  C_3 
REMARK    2  A    between atoms: C_3  and  O_6 
REMARK    3  A    between atoms: C_3  and  C_4 
REMARK    4  A    between atoms: C_7  and  O_6 
REMARK    5  A    between atoms: C_9  and  C_10 
REMARK    6  A    between atoms: N_15  and  C_14 
REMARK    7  A    between atoms: N_20  and  C_19 
REMARK       I    between atoms: C_22  and  N_20 
ROOT
ATOM      1  C   LIG d   1      -3.604  89.669 117.607  0.00  0.00     0.161 C 
ATOM      2  C   LIG d   1      -4.456  89.139 116.623  0.00  0.00     0.016 C 
ATOM      3  C   LIG d   1      -5.617  89.802 116.161  0.00  0.00     0.038 C 
ATOM      4  C   LIG d   1      -5.923  91.116 116.545  0.00  0.00     0.028 C 
ATOM      5  C   LIG d   1      -5.368  91.491 117.915  0.00  0.00    -0.047 C 
ATOM      6  C   LIG d   1      -3.861  91.149 117.956  0.00  0.00     0.091 C 
ENDROOT
BRANCH   1   7
ATOM      7  O   LIG d   1      -2.229  89.477 117.216  0.00  0.00    -0.368 OA
BRANCH   7   8
ATOM      8  C   LIG d   1      -1.501  88.450 117.932  0.00  0.00     0.119 C 
BRANCH   8   9
ATOM      9  C   LIG d   1      -2.398  87.964 119.087  0.00  0.00     0.028 C 
ATOM     10  C   LIG d   1      -1.731  88.137 120.461  0.00  0.00     0.006 C 
ENDBRANCH   8   9
BRANCH   8  11
ATOM     11  C   LIG d   1      -0.248  89.020 118.604  0.00  0.00     0.028 C 
ATOM     12  C   LIG d   1       0.420  90.128 117.775  0.00  0.00     0.006 C 
ENDBRANCH   8  11
ENDBRANCH   7   8
ENDBRANCH   1   7
BRANCH   6  13
ATOM     13  N   LIG d   1      -3.257  91.408 119.290  0.00  0.00    -0.311 N 
ATOM     14  C   LIG d   1      -2.213  92.212 119.478  0.00  0.00     0.210 C 
ATOM     15  C   LIG d   1      -1.736  92.323 120.930  0.00  0.00     0.109 C 
ATOM     16  O   LIG d   1      -1.656  92.870 118.586  0.00  0.00    -0.276 OA
ATOM     17  H   LIG d   1      -3.667  90.939 120.074  0.00  0.00     0.149 HD
ENDBRANCH   6  13
BRANCH   5  18
ATOM     18  N   LIG d   1      -5.641  92.925 118.128  0.00  0.00     0.381 N 
ATOM     19  H   LIG d   1      -6.126  93.299 117.337  0.00  0.00    -0.090 HD
ATOM     20  H   LIG d   1      -4.767  93.412 118.222  0.00  0.00    -0.090 HD
ATOM     21  H   LIG d   1      -6.188  93.049 118.952  0.00  0.00    -0.090 HD
ENDBRANCH   5  18
BRANCH   3  22
ATOM     22  C   LIG d   1      -6.507  89.132 115.335  0.00  0.00     0.382 C 
ATOM     23  O   LIG d   1      -7.658  88.854 115.749  0.00  0.00    -0.241 OA
ATOM     24  O   LIG d   1      -6.158  88.765 114.197  0.00  0.00    -0.241 OA
ENDBRANCH   3  22
TORSDOF 7
ENDMDL
MODEL 4
REMARK VINA RESULT:      -5.4      2.158      4.943
REMARK  7 active torsions:
REMARK  status: ('A' for Active; 'I' for Inactive)
REMARK    1  A    between atoms: C_2  and  C_3 
REMARK    2  A    between atoms: C_3  and  O_6 
REMARK    3  A    between atoms: C_3  and  C_4 
REMARK    4  A    between atoms: C_7  and  O_6 
REMARK    5  A    between atoms: C_9  and  C_10 
REMARK    6  A    between atoms: N_15  and  C_14 
REMARK    7  A    between atoms: N_20  and  C_19 
REMARK       I    between atoms: C_22  and  N_20 
ROOT
ATOM      1  C   LIG d   1      -3.292  89.897 117.818  0.00  0.00     0.161 C 
ATOM      2  C   LIG d   1      -4.172  89.280 116.914  0.00  0.00     0.016 C 
ATOM      3  C   LIG d   1      -5.396  89.856 116.503  0.00  0.00     0.038 C 
ATOM      4  C   LIG d   1      -5.754  91.166 116.856  0.00  0.00     0.028 C 
ATOM      5  C   LIG d   1      -5.136  91.630 118.170  0.00  0.00    -0.047 C 
ATOM      6  C   LIG d   1      -3.612  91.375 118.126  0.00  0.00     0.091 C 
ENDROOT
BRANCH   1   7
ATOM      7  O   LIG d   1      -1.936  89.767 117.346  0.00  0.00    -0.368 OA
BRANCH   7   8
ATOM      8  C   LIG d   1      -1.027  89.042 118.211  0.00  0.00     0.119 C 
BRANCH   8   9
ATOM      9  C   LIG d   1      -0.139  88.159 117.313  0.00  0.00     0.028 C 
ATOM     10  C   LIG d   1      -0.894  86.938 116.761  0.00  0.00     0.006 C 
ENDBRANCH   8   9
BRANCH   8  11
ATOM     11  C   LIG d   1      -1.781  88.067 119.120  0.00  0.00     0.028 C 
ATOM     12  C   LIG d   1      -1.466  88.277 120.610  0.00  0.00     0.006 C 
ENDBRANCH   8  11
ENDBRANCH   7   8
ENDBRANCH   1   7
BRANCH   6  13
ATOM     13  N   LIG d   1      -2.942  91.723 119.406  0.00  0.00    -0.311 N 
ATOM     14  C   LIG d   1      -2.060  92.713 119.526  0.00  0.00     0.210 C 
ATOM     15  C   LIG d   1      -1.473  92.890 120.930  0.00  0.00     0.109 C 
ATOM     16  O   LIG d   1      -1.732  93.483 118.611  0.00  0.00    -0.276 OA
ATOM     17  H   LIG d   1      -3.174  91.169 120.208  0.00  0.00     0.149 HD
ENDBRANCH   6  13
BRANCH   5  18
ATOM     18  N   LIG d   1      -5.479  93.054 118.346  0.00  0.00     0.381 N 
ATOM     19  H   LIG d   1      -4.891  93.618 117.766  0.00  0.00    -0.090 HD
ATOM     20  H   LIG d   1      -5.319  93.311 119.304  0.00  0.00    -0.090 HD
ATOM     21  H   LIG d   1      -6.435  93.206 118.109  0.00  0.00    -0.090 HD
ENDBRANCH   5  18
BRANCH   3  22
ATOM     22  C   LIG d   1      -6.296  89.104 115.764  0.00  0.00     0.382 C 
ATOM     23  O   LIG d   1      -7.358  88.697 116.294  0.00  0.00    -0.241 OA
ATOM     24  O   LIG d   1      -6.039  88.789 114.586  0.00  0.00    -0.241 OA
ENDBRANCH   3  22
TORSDOF 7
ENDMDL
MODEL 5
REMARK VINA RESULT:      -5.1      2.433      5.363
REMARK  7 active torsions:
REMARK  status: ('A' for Active; 'I' for Inactive)
REMARK    1  A    between atoms: C_2  and  C_3 
REMARK    2  A    between atoms: C_3  and  O_6 
REMARK    3  A    between atoms: C_3  and  C_4 
REMARK    4  A    between atoms: C_7  and  O_6 
REMARK    5  A    between atoms: C_9  and  C_10 
REMARK    6  A    between atoms: N_15  and  C_14 
REMARK    7  A    between atoms: N_20  and  C_19 
REMARK       I    between atoms: C_22  and  N_20 
ROOT
ATOM      1  C   LIG d   1      -2.672  89.704 117.934  0.00  0.00     0.161 C 
ATOM      2  C   LIG d   1      -3.804  89.341 117.185  0.00  0.00     0.016 C 
ATOM      3  C   LIG d   1      -4.933  90.177 117.027  0.00  0.00     0.038 C 
ATOM      4  C   LIG d   1      -4.944  91.502 117.485  0.00  0.00     0.028 C 
ATOM      5  C   LIG d   1      -4.027  91.737 118.681  0.00  0.00    -0.047 C 
ATOM      6  C   LIG d   1      -2.620  91.189 118.349  0.00  0.00     0.091 C 
ENDROOT
BRANCH   1   7
ATOM      7  O   LIG d   1      -1.475  89.342 117.217  0.00  0.00    -0.368 OA
BRANCH   7   8
ATOM      8  C   LIG d   1      -0.721  88.228 117.757  0.00  0.00     0.119 C 
BRANCH   8   9
ATOM      9  C   LIG d   1       0.768  88.625 117.739  0.00  0.00     0.028 C 
ATOM     10  C   LIG d   1       0.978  90.096 117.342  0.00  0.00     0.006 C 
ENDBRANCH   8   9
BRANCH   8  11
ATOM     11  C   LIG d   1      -0.824  86.996 116.854  0.00  0.00     0.028 C 
ATOM     12  C   LIG d   1       0.532  86.306 116.631  0.00  0.00     0.006 C 
ENDBRANCH   8  11
ENDBRANCH   7   8
ENDBRANCH   1   7
BRANCH   6  13
ATOM     13  N   LIG d   1      -1.682  91.303 119.496  0.00  0.00    -0.311 N 
ATOM     14  C   LIG d   1      -0.876  92.346 119.683  0.00  0.00     0.210 C 
ATOM     15  C   LIG d   1       0.025  92.254 120.919  0.00  0.00     0.109 C 
ATOM     16  O   LIG d   1      -0.845  93.354 118.961  0.00  0.00    -0.276 OA
ATOM     17  H   LIG d   1      -1.665  90.543 120.148  0.00  0.00     0.149 HD
ENDBRANCH   6  13
BRANCH   5  18
ATOM     18  N   LIG d   1      -4.031  93.184 118.967  0.00  0.00     0.381 N 
ATOM     19  H   LIG d   1      -4.039  93.334 119.957  0.00  0.00    -0.090 HD
ATOM     20  H   LIG d   1      -4.864  93.590 118.580  0.00  0.00    -0.090 HD
ATOM     21  H   LIG d   1      -3.226  93.613 118.566  0.00  0.00    -0.090 HD
ENDBRANCH   5  18
BRANCH   3  22
ATOM     22  C   LIG d   1      -6.083  89.674 116.438  0.00  0.00     0.382 C 
ATOM     23  O   LIG d   1      -7.082  90.416 116.279  0.00  0.00    -0.241 OA
ATOM     24  O   LIG d   1      -6.150  88.475 116.104  0.00  0.00    -0.241 OA
ENDBRANCH   3  22
TORSDOF 7
ENDMDL
MODEL 6
REMARK VINA RESULT:      -5.0      2.234      5.660
REMARK  7 active torsions:
REMARK  status: ('A' for Active; 'I' for Inactive)
REMARK    1  A    between atoms: C_2  and  C_3 
REMARK    2  A    between atoms: C_3  and  O_6 
REMARK    3  A    between atoms: C_3  and  C_4 
REMARK    4  A    between atoms: C_7  and  O_6 
REMARK    5  A    between atoms: C_9  and  C_10 
REMARK    6  A    between atoms: N_15  and  C_14 
REMARK    7  A    between atoms: N_20  and  C_19 
REMARK       I    between atoms: C_22  and  N_20 
ROOT
ATOM      1  C   LIG d   1      -4.233  91.517 118.398  0.00  0.00     0.161 C 
ATOM      2  C   LIG d   1      -5.273  91.718 117.475  0.00  0.00     0.016 C 
ATOM      3  C   LIG d   1      -5.588  90.801 116.446  0.00  0.00     0.038 C 
ATOM      4  C   LIG d   1      -4.976  89.541 116.362  0.00  0.00     0.028 C 
ATOM      5  C   LIG d   1      -3.575  89.507 116.964  0.00  0.00    -0.047 C 
ATOM      6  C   LIG d   1      -3.628  90.097 118.391  0.00  0.00     0.091 C 
ENDROOT
BRANCH   1   7
ATOM      7  O   LIG d   1      -4.681  91.864 119.723  0.00  0.00    -0.368 OA
BRANCH   7   8
ATOM      8  C   LIG d   1      -4.182  93.115 120.257  0.00  0.00     0.119 C 
BRANCH   8   9
ATOM      9  C   LIG d   1      -5.258  94.189 120.004  0.00  0.00     0.028 C 
ATOM     10  C   LIG d   1      -6.665  93.716 120.405  0.00  0.00     0.006 C 
ENDBRANCH   8   9
BRANCH   8  11
ATOM     11  C   LIG d   1      -2.944  93.593 119.493  0.00  0.00     0.028 C 
ATOM     12  C   LIG d   1      -2.757  95.117 119.556  0.00  0.00     0.006 C 
ENDBRANCH   8  11
ENDBRANCH   7   8
ENDBRANCH   1   7
BRANCH   6  13
ATOM     13  N   LIG d   1      -2.284  90.179 119.021  0.00  0.00    -0.311 N 
ATOM     14  C   LIG d   1      -1.778  89.220 119.795  0.00  0.00     0.210 C 
ATOM     15  C   LIG d   1      -0.384  89.514 120.360  0.00  0.00     0.109 C 
ATOM     16  O   LIG d   1      -2.337  88.142 120.042  0.00  0.00    -0.276 OA
ATOM     17  H   LIG d   1      -1.748  91.007 118.847  0.00  0.00     0.149 HD
ENDBRANCH   6  13
BRANCH   5  18
ATOM     18  N   LIG d   1      -3.112  88.107 116.934  0.00  0.00     0.381 N 
ATOM     19  H   LIG d   1      -3.640  87.561 117.586  0.00  0.00    -0.090 HD
ATOM     20  H   LIG d   1      -2.146  88.078 117.209  0.00  0.00    -0.090 HD
ATOM     21  H   LIG d   1      -3.215  87.733 116.017  0.00  0.00    -0.090 HD
ENDBRANCH   5  18
BRANCH   3  22
ATOM     22  C   LIG d   1      -6.496  91.159 115.461  0.00  0.00     0.382 C 
ATOM     23  O   LIG d   1      -7.694  90.794 115.551  0.00  0.00    -0.241 OA
ATOM     24  O   LIG d   1      -6.125  91.803 114.463  0.00  0.00    -0.241 OA
ENDBRANCH   3  22
TORSDOF 7
ENDMDL
MODEL 7
REMARK VINA RESULT:      -5.0      2.077      5.452
REMARK  7 active torsions:
REMARK  status: ('A' for Active; 'I' for Inactive)
REMARK    1  A    between atoms: C_2  and  C_3 
REMARK    2  A    between atoms: C_3  and  O_6 
REMARK    3  A    between atoms: C_3  and  C_4 
REMARK    4  A    between atoms: C_7  and  O_6 
REMARK    5  A    between atoms: C_9  and  C_10 
REMARK    6  A    between atoms: N_15  and  C_14 
REMARK    7  A    between atoms: N_20  and  C_19 
REMARK       I    between atoms: C_22  and  N_20 
ROOT
ATOM      1  C   LIG d   1      -3.488  90.532 118.052  0.00  0.00     0.161 C 
ATOM      2  C   LIG d   1      -3.169  91.385 119.122  0.00  0.00     0.016 C 
ATOM      3  C   LIG d   1      -4.008  92.437 119.555  0.00  0.00     0.038 C 
ATOM      4  C   LIG d   1      -5.301  92.613 119.042  0.00  0.00     0.028 C 
ATOM      5  C   LIG d   1      -5.464  92.093 117.617  0.00  0.00    -0.047 C 
ATOM      6  C   LIG d   1      -4.944  90.639 117.552  0.00  0.00     0.091 C 
ENDROOT
BRANCH   1   7
ATOM      7  O   LIG d   1      -3.178  89.169 118.404  0.00  0.00    -0.368 OA
BRANCH   7   8
ATOM      8  C   LIG d   1      -1.837  88.719 118.093  0.00  0.00     0.119 C 
BRANCH   8   9
ATOM      9  C   LIG d   1      -1.962  87.487 117.177  0.00  0.00     0.028 C 
ATOM     10  C   LIG d   1      -0.603  86.822 116.898  0.00  0.00     0.006 C 
ENDBRANCH   8   9
BRANCH   8  11
ATOM     11  C   LIG d   1      -1.112  88.220 119.347  0.00  0.00     0.028 C 
ATOM     12  C   LIG d   1      -2.059  88.009 120.538  0.00  0.00     0.006 C 
ENDBRANCH   8  11
ENDBRANCH   7   8
ENDBRANCH   1   7
BRANCH   6  13
ATOM     13  N   LIG d   1      -4.989  90.082 116.175  0.00  0.00    -0.311 N 
ATOM     14  C   LIG d   1      -5.953  89.271 115.743  0.00  0.00     0.210 C 
ATOM     15  C   LIG d   1      -5.797  88.796 114.295  0.00  0.00     0.109 C 
ATOM     16  O   LIG d   1      -6.939  88.926 116.411  0.00  0.00    -0.276 OA
ATOM     17  H   LIG d   1      -4.244  90.336 115.556  0.00  0.00     0.149 HD
ENDBRANCH   6  13
BRANCH   5  18
ATOM     18  N   LIG d   1      -6.889  92.214 117.258  0.00  0.00     0.381 N 
ATOM     19  H   LIG d   1      -7.355  92.806 117.917  0.00  0.00    -0.090 HD
ATOM     20  H   LIG d   1      -7.313  91.304 117.297  0.00  0.00    -0.090 HD
ATOM     21  H   LIG d   1      -6.979  92.592 116.341  0.00  0.00    -0.090 HD
ENDBRANCH   5  18
BRANCH   3  22
ATOM     22  C   LIG d   1      -3.538  93.351 120.486  0.00  0.00     0.382 C 
ATOM     23  O   LIG d   1      -2.369  93.250 120.930  0.00  0.00    -0.241 OA
ATOM     24  O   LIG d   1      -4.283  94.250 120.920  0.00  0.00    -0.241 OA
ENDBRANCH   3  22
TORSDOF 7
ENDMDL
MODEL 8
REMARK VINA RESULT:      -4.8      2.190      4.711
REMARK  7 active torsions:
REMARK  status: ('A' for Active; 'I' for Inactive)
REMARK    1  A    between atoms: C_2  and  C_3 
REMARK    2  A    between atoms: C_3  and  O_6 
REMARK    3  A    between atoms: C_3  and  C_4 
REMARK    4  A    between atoms: C_7  and  O_6 
REMARK    5  A    between atoms: C_9  and  C_10 
REMARK    6  A    between atoms: N_15  and  C_14 
REMARK    7  A    between atoms: N_20  and  C_19 
REMARK       I    between atoms: C_22  and  N_20 
ROOT
ATOM      1  C   LIG d   1      -3.667  91.424 119.016  0.00  0.00     0.161 C 
ATOM      2  C   LIG d   1      -2.494  90.784 119.448  0.00  0.00     0.016 C 
ATOM      3  C   LIG d   1      -1.950  89.644 118.811  0.00  0.00     0.038 C 
ATOM      4  C   LIG d   1      -2.465  89.154 117.602  0.00  0.00     0.028 C 
ATOM      5  C   LIG d   1      -3.946  89.461 117.405  0.00  0.00    -0.047 C 
ATOM      6  C   LIG d   1      -4.180  90.972 117.633  0.00  0.00     0.091 C 
ENDROOT
BRANCH   1   7
ATOM      7  O   LIG d   1      -3.480  92.853 119.039  0.00  0.00    -0.368 OA
BRANCH   7   8
ATOM      8  C   LIG d   1      -3.995  93.545 120.202  0.00  0.00     0.119 C 
BRANCH   8   9
ATOM      9  C   LIG d   1      -5.262  94.306 119.766  0.00  0.00     0.028 C 
ATOM     10  C   LIG d   1      -6.554  93.604 120.219  0.00  0.00     0.006 C 
ENDBRANCH   8   9
BRANCH   8  11
ATOM     11  C   LIG d   1      -3.021  94.624 120.686  0.00  0.00     0.028 C 
ATOM     12  C   LIG d   1      -2.964  95.839 119.747  0.00  0.00     0.006 C 
ENDBRANCH   8  11
ENDBRANCH   7   8
ENDBRANCH   1   7
BRANCH   6  13
ATOM     13  N   LIG d   1      -5.617  91.342 117.543  0.00  0.00    -0.311 N 
ATOM     14  C   LIG d   1      -6.207  91.716 116.409  0.00  0.00     0.210 C 
ATOM     15  C   LIG d   1      -7.691  92.075 116.541  0.00  0.00     0.109 C 
ATOM     16  O   LIG d   1      -5.651  91.754 115.301  0.00  0.00    -0.276 OA
ATOM     17  H   LIG d   1      -6.150  91.309 118.389  0.00  0.00     0.149 HD
ENDBRANCH   6  13
BRANCH   5  18
ATOM     18  N   LIG d   1      -4.316  89.017 116.048  0.00  0.00     0.381 N 
ATOM     19  H   LIG d   1      -4.911  88.214 116.105  0.00  0.00    -0.090 HD
ATOM     20  H   LIG d   1      -3.482  88.757 115.552  0.00  0.00    -0.090 HD
ATOM     21  H   LIG d   1      -4.784  89.752 115.564  0.00  0.00    -0.090 HD
ENDBRANCH   5  18
BRANCH   3  22
ATOM     22  C   LIG d   1      -0.904  88.957 119.408  0.00  0.00     0.382 C 
ATOM     23  O   LIG d   1      -1.124  87.877 120.008  0.00  0.00    -0.241 OA
ATOM     24  O   LIG d   1       0.250  89.426 119.392  0.00  0.00    -0.241 OA
ENDBRANCH   3  22
TORSDOF 7
ENDMDL
MODEL 9
REMARK VINA RESULT:      -4.7      2.615      6.273
REMARK  7 active torsions:
REMARK  status: ('A' for Active; 'I' for Inactive)
REMARK    1  A    between atoms: C_2  and  C_3 
REMARK    2  A    between atoms: C_3  and  O_6 
REMARK    3  A    between atoms: C_3  and  C_4 
REMARK    4  A    between atoms: C_7  and  O_6 
REMARK    5  A    between atoms: C_9  and  C_10 
REMARK    6  A    between atoms: N_15  and  C_14 
REMARK    7  A    between atoms: N_20  and  C_19 
REMARK       I    between atoms: C_22  and  N_20 
ROOT
ATOM      1  C   LIG d   1      -3.699  90.935 117.990  0.00  0.00     0.161 C 
ATOM      2  C   LIG d   1      -4.844  91.748 117.959  0.00  0.00     0.016 C 
ATOM      3  C   LIG d   1      -5.966  91.481 117.140  0.00  0.00     0.038 C 
ATOM      4  C   LIG d   1      -6.080  90.293 116.404  0.00  0.00     0.028 C 
ATOM      5  C   LIG d   1      -4.735  89.690 116.014  0.00  0.00    -0.047 C 
ATOM      6  C   LIG d   1      -3.852  89.575 117.278  0.00  0.00     0.091 C 
ENDROOT
BRANCH   1   7
ATOM      7  O   LIG d   1      -3.275  90.741 119.354  0.00  0.00    -0.368 OA
BRANCH   7   8
ATOM      8  C   LIG d   1      -2.145  91.537 119.790  0.00  0.00     0.119 C 
BRANCH   8   9
ATOM      9  C   LIG d   1      -1.620  92.306 118.562  0.00  0.00     0.028 C 
ATOM     10  C   LIG d   1      -1.630  93.829 118.774  0.00  0.00     0.006 C 
ENDBRANCH   8   9
BRANCH   8  11
ATOM     11  C   LIG d   1      -0.981  90.652 120.243  0.00  0.00     0.028 C 
ATOM     12  C   LIG d   1       0.238  90.748 119.311  0.00  0.00     0.006 C 
ENDBRANCH   8  11
ENDBRANCH   7   8
ENDBRANCH   1   7
BRANCH   6  13
ATOM     13  N   LIG d   1      -2.487  89.072 116.972  0.00  0.00    -0.311 N 
ATOM     14  C   LIG d   1      -1.887  88.108 117.668  0.00  0.00     0.210 C 
ATOM     15  C   LIG d   1      -0.473  87.754 117.198  0.00  0.00     0.109 C 
ATOM     16  O   LIG d   1      -2.405  87.491 118.611  0.00  0.00    -0.276 OA
ATOM     17  H   LIG d   1      -2.006  89.496 116.202  0.00  0.00     0.149 HD
ENDBRANCH   6  13
BRANCH   5  18
ATOM     18  N   LIG d   1      -4.999  88.388 115.373  0.00  0.00     0.381 N 
ATOM     19  H   LIG d   1      -4.513  87.664 115.864  0.00  0.00    -0.090 HD
ATOM     20  H   LIG d   1      -4.656  88.414 114.429  0.00  0.00    -0.090 HD
ATOM     21  H   LIG d   1      -5.977  88.200 115.374  0.00  0.00    -0.090 HD
ENDBRANCH   5  18
BRANCH   3  22
ATOM     22  C   LIG d   1      -6.971  92.429 117.021  0.00  0.00     0.382 C 
ATOM     23  O   LIG d   1      -7.053  93.363 117.855  0.00  0.00    -0.241 OA
ATOM     24  O   LIG d   1      -7.822  92.337 116.117  0.00  0.00    -0.241 OA
ENDBRANCH   3  22
TORSDOF 7
ENDMDL
