MODEL 1
REMARK VINA RESULT:      -5.6      0.000      0.000
REMARK  7 active torsions:
REMARK  status: ('A' for Active; 'I' for Inactive)
REMARK    1  A    between atoms: C_2  and  C_3 
REMARK    2  A    between atoms: C_3  and  O_6 
REMARK    3  A    between atoms: C_3  and  C_4 
REMARK    4  A    between atoms: C_7  and  O_6 
REMARK    5  A    between atoms: C_9  and  C_10 
REMARK    6  A    between atoms: N_15  and  C_14 
REMARK    7  A    between atoms: N_20  and  C_19 
REMARK       I    between atoms: C_22  and  N_20 
ROOT
ATOM      1  C   LIG d   1      -6.147  92.320 117.272  0.00  0.00     0.161 C 
ATOM      2  C   LIG d   1      -7.177  91.492 116.794  0.00  0.00     0.016 C 
ATOM      3  C   LIG d   1      -6.966  90.168 116.346  0.00  0.00     0.038 C 
ATOM      4  C   LIG d   1      -5.727  89.525 116.489  0.00  0.00     0.028 C 
ATOM      5  C   LIG d   1      -4.543  90.487 116.499  0.00  0.00    -0.047 C 
ATOM      6  C   LIG d   1      -4.809  91.599 117.539  0.00  0.00     0.091 C 
ENDROOT
BRANCH   1   7
ATOM      7  O   LIG d   1      -6.588  93.013 118.457  0.00  0.00    -0.368 OA
BRANCH   7   8
ATOM      8  C   LIG d   1      -6.869  94.426 118.301  0.00  0.00     0.119 C 
BRANCH   8   9
ATOM      9  C   LIG d   1      -6.074  95.177 119.387  0.00  0.00     0.028 C 
ATOM     10  C   LIG d   1      -5.958  96.683 119.093  0.00  0.00     0.006 C 
ENDBRANCH   8   9
BRANCH   8  11
ATOM     11  C   LIG d   1      -8.341  94.737 118.588  0.00  0.00     0.028 C 
ATOM     12  C   LIG d   1      -8.847  94.079 119.881  0.00  0.00     0.006 C 
ENDBRANCH   8  11
ENDBRANCH   7   8
ENDBRANCH   1   7
BRANCH   6  13
ATOM     13  N   LIG d   1      -3.739  92.630 117.554  0.00  0.00    -0.311 N 
ATOM     14  C   LIG d   1      -3.106  93.014 118.661  0.00  0.00     0.210 C 
ATOM     15  C   LIG d   1      -2.050  94.105 118.457  0.00  0.00     0.109 C 
ATOM     16  O   LIG d   1      -3.298  92.534 119.788  0.00  0.00    -0.276 OA
ATOM     17  H   LIG d   1      -3.498  93.050 116.677  0.00  0.00     0.149 HD
ENDBRANCH   6  13
BRANCH   5  18
ATOM     18  N   LIG d   1      -3.331  89.699 116.791  0.00  0.00     0.381 N 
ATOM     19  H   LIG d   1      -2.735  89.684 115.988  0.00  0.00    -0.090 HD
ATOM     20  H   LIG d   1      -3.601  88.755 117.003  0.00  0.00    -0.090 HD
ATOM     21  H   LIG d   1      -2.846  90.095 117.566  0.00  0.00    -0.090 HD
ENDBRANCH   5  18
BRANCH   3  22
ATOM     22  C   LIG d   1      -7.992  89.485 115.711  0.00  0.00     0.382 C 
ATOM     23  O   LIG d   1      -8.438  89.902 114.615  0.00  0.00    -0.241 OA
ATOM     24  O   LIG d   1      -8.508  88.484 116.242  0.00  0.00    -0.241 OA
ENDBRANCH   3  22
TORSDOF 7
ENDMDL
MODEL 2
REMARK VINA RESULT:      -5.6      2.460      4.616
REMARK  7 active torsions:
REMARK  status: ('A' for Active; 'I' for Inactive)
REMARK    1  A    between atoms: C_2  and  C_3 
REMARK    2  A    between atoms: C_3  and  O_6 
REMARK    3  A    between atoms: C_3  and  C_4 
REMARK    4  A    between atoms: C_7  and  O_6 
REMARK    5  A    between atoms: C_9  and  C_10 
REMARK    6  A    between atoms: N_15  and  C_14 
REMARK    7  A    between atoms: N_20  and  C_19 
REMARK       I    between atoms: C_22  and  N_20 
ROOT
ATOM      1  C   LIG d   1      -4.289  90.914 117.879  0.00  0.00     0.161 C 
ATOM      2  C   LIG d   1      -5.155  90.246 116.996  0.00  0.00     0.016 C 
ATOM      3  C   LIG d   1      -6.391  90.781 116.566  0.00  0.00     0.038 C 
ATOM      4  C   LIG d   1      -6.778  92.094 116.872  0.00  0.00     0.028 C 
ATOM      5  C   LIG d   1      -6.171  92.617 118.169  0.00  0.00    -0.047 C 
ATOM      6  C   LIG d   1      -4.642  92.394 118.135  0.00  0.00     0.091 C 
ENDROOT
BRANCH   1   7
ATOM      7  O   LIG d   1      -2.930  90.797 117.412  0.00  0.00    -0.368 OA
BRANCH   7   8
ATOM      8  C   LIG d   1      -1.995  90.169 118.324  0.00  0.00     0.119 C 
BRANCH   8   9
ATOM      9  C   LIG d   1      -1.152  89.171 117.507  0.00  0.00     0.028 C 
ATOM     10  C   LIG d   1       0.354  89.308 117.788  0.00  0.00     0.006 C 
ENDBRANCH   8   9
BRANCH   8  11
ATOM     11  C   LIG d   1      -2.723  89.322 119.372  0.00  0.00     0.028 C 
ATOM     12  C   LIG d   1      -2.309  89.670 120.811  0.00  0.00     0.006 C 
ENDBRANCH   8  11
ENDBRANCH   7   8
ENDBRANCH   1   7
BRANCH   6  13
ATOM     13  N   LIG d   1      -3.981  92.801 119.402  0.00  0.00    -0.311 N 
ATOM     14  C   LIG d   1      -2.884  93.556 119.447  0.00  0.00     0.210 C 
ATOM     15  C   LIG d   1      -2.354  93.843 120.855  0.00  0.00     0.109 C 
ATOM     16  O   LIG d   1      -2.319  94.042 118.456  0.00  0.00    -0.276 OA
ATOM     17  H   LIG d   1      -4.392  92.477 120.255  0.00  0.00     0.149 HD
ENDBRANCH   6  13
BRANCH   5  18
ATOM     18  N   LIG d   1      -6.545  94.039 118.295  0.00  0.00     0.381 N 
ATOM     19  H   LIG d   1      -7.537  94.120 118.398  0.00  0.00    -0.090 HD
ATOM     20  H   LIG d   1      -6.275  94.521 117.455  0.00  0.00    -0.090 HD
ATOM     21  H   LIG d   1      -6.088  94.444 119.081  0.00  0.00    -0.090 HD
ENDBRANCH   5  18
BRANCH   3  22
ATOM     22  C   LIG d   1      -7.273  89.983 115.853  0.00  0.00     0.382 C 
ATOM     23  O   LIG d   1      -7.922  90.468 114.895  0.00  0.00    -0.241 OA
ATOM     24  O   LIG d   1      -7.461  88.797 116.184  0.00  0.00    -0.241 OA
ENDBRANCH   3  22
TORSDOF 7
ENDMDL
MODEL 3
REMARK VINA RESULT:      -5.5      2.070      4.910
REMARK  7 active torsions:
REMARK  status: ('A' for Active; 'I' for Inactive)
REMARK    1  A    between atoms: C_2  and  C_3 
REMARK    2  A    between atoms: C_3  and  O_6 
REMARK    3  A    between atoms: C_3  and  C_4 
REMARK    4  A    between atoms: C_7  and  O_6 
REMARK    5  A    between atoms: C_9  and  C_10 
REMARK    6  A    between atoms: N_15  and  C_14 
REMARK    7  A    between atoms: N_20  and  C_19 
REMARK       I    between atoms: C_22  and  N_20 
ROOT
ATOM      1  C   LIG d   1      -6.318  91.811 117.334  0.00  0.00     0.161 C 
ATOM      2  C   LIG d   1      -7.259  92.849 117.432  0.00  0.00     0.016 C 
ATOM      3  C   LIG d   1      -7.116  93.949 118.308  0.00  0.00     0.038 C 
ATOM      4  C   LIG d   1      -5.940  94.164 119.042  0.00  0.00     0.028 C 
ATOM      5  C   LIG d   1      -5.178  92.881 119.355  0.00  0.00    -0.047 C 
ATOM      6  C   LIG d   1      -4.977  92.085 118.046  0.00  0.00     0.091 C 
ENDROOT
BRANCH   1   7
ATOM      7  O   LIG d   1      -6.093  91.484 115.949  0.00  0.00    -0.368 OA
BRANCH   7   8
ATOM      8  C   LIG d   1      -6.493  90.155 115.534  0.00  0.00     0.119 C 
BRANCH   8   9
ATOM      9  C   LIG d   1      -7.254  90.295 114.202  0.00  0.00     0.028 C 
ATOM     10  C   LIG d   1      -7.512  91.764 113.825  0.00  0.00     0.006 C 
ENDBRANCH   8   9
BRANCH   8  11
ATOM     11  C   LIG d   1      -7.500  89.545 116.514  0.00  0.00     0.028 C 
ATOM     12  C   LIG d   1      -8.661  88.828 115.806  0.00  0.00     0.006 C 
ENDBRANCH   8  11
ENDBRANCH   7   8
ENDBRANCH   1   7
BRANCH   6  13
ATOM     13  N   LIG d   1      -4.313  90.775 118.275  0.00  0.00    -0.311 N 
ATOM     14  C   LIG d   1      -2.996  90.597 118.200  0.00  0.00     0.210 C 
ATOM     15  C   LIG d   1      -2.521  89.163 118.452  0.00  0.00     0.109 C 
ATOM     16  O   LIG d   1      -2.172  91.498 117.980  0.00  0.00    -0.276 OA
ATOM     17  H   LIG d   1      -4.904  89.996 118.490  0.00  0.00     0.149 HD
ENDBRANCH   6  13
BRANCH   5  18
ATOM     18  N   LIG d   1      -3.908  93.263 120.001  0.00  0.00     0.381 N 
ATOM     19  H   LIG d   1      -3.871  92.883 120.926  0.00  0.00    -0.090 HD
ATOM     20  H   LIG d   1      -3.867  94.265 120.070  0.00  0.00    -0.090 HD
ATOM     21  H   LIG d   1      -3.139  92.928 119.465  0.00  0.00    -0.090 HD
ENDBRANCH   5  18
BRANCH   3  22
ATOM     22  C   LIG d   1      -8.174  94.828 118.487  0.00  0.00     0.382 C 
ATOM     23  O   LIG d   1      -9.226  94.437 119.047  0.00  0.00    -0.241 OA
ATOM     24  O   LIG d   1      -8.106  95.994 118.054  0.00  0.00    -0.241 OA
ENDBRANCH   3  22
TORSDOF 7
ENDMDL
MODEL 4
REMARK VINA RESULT:      -5.5      2.070      5.176
REMARK  7 active torsions:
REMARK  status: ('A' for Active; 'I' for Inactive)
REMARK    1  A    between atoms: C_2  and  C_3 
REMARK    2  A    between atoms: C_3  and  O_6 
REMARK    3  A    between atoms: C_3  and  C_4 
REMARK    4  A    between atoms: C_7  and  O_6 
REMARK    5  A    between atoms: C_9  and  C_10 
REMARK    6  A    between atoms: N_15  and  C_14 
REMARK    7  A    between atoms: N_20  and  C_19 
REMARK       I    between atoms: C_22  and  N_20 
ROOT
ATOM      1  C   LIG d   1      -6.464  91.928 117.256  0.00  0.00     0.161 C 
ATOM      2  C   LIG d   1      -7.366  92.990 117.432  0.00  0.00     0.016 C 
ATOM      3  C   LIG d   1      -7.166  94.034 118.365  0.00  0.00     0.038 C 
ATOM      4  C   LIG d   1      -5.968  94.168 119.083  0.00  0.00     0.028 C 
ATOM      5  C   LIG d   1      -5.246  92.844 119.307  0.00  0.00    -0.047 C 
ATOM      6  C   LIG d   1      -5.099  92.116 117.951  0.00  0.00     0.091 C 
ENDROOT
BRANCH   1   7
ATOM      7  O   LIG d   1      -6.278  91.673 115.850  0.00  0.00    -0.368 OA
BRANCH   7   8
ATOM      8  C   LIG d   1      -7.086  90.612 115.283  0.00  0.00     0.119 C 
BRANCH   8   9
ATOM      9  C   LIG d   1      -7.499  89.677 116.436  0.00  0.00     0.028 C 
ATOM     10  C   LIG d   1      -8.701  88.790 116.072  0.00  0.00     0.006 C 
ENDBRANCH   8   9
BRANCH   8  11
ATOM     11  C   LIG d   1      -6.268  89.739 114.327  0.00  0.00     0.028 C 
ATOM     12  C   LIG d   1      -5.078  89.053 115.017  0.00  0.00     0.006 C 
ENDBRANCH   8  11
ENDBRANCH   7   8
ENDBRANCH   1   7
BRANCH   6  13
ATOM     13  N   LIG d   1      -4.477  90.774 118.092  0.00  0.00    -0.311 N 
ATOM     14  C   LIG d   1      -3.164  90.563 118.023  0.00  0.00     0.210 C 
ATOM     15  C   LIG d   1      -2.735  89.101 118.175  0.00  0.00     0.109 C 
ATOM     16  O   LIG d   1      -2.311  91.453 117.882  0.00  0.00    -0.276 OA
ATOM     17  H   LIG d   1      -5.094  89.999 118.241  0.00  0.00     0.149 HD
ENDBRANCH   6  13
BRANCH   5  18
ATOM     18  N   LIG d   1      -3.950  93.146 119.945  0.00  0.00     0.381 N 
ATOM     19  H   LIG d   1      -3.888  94.125 120.139  0.00  0.00    -0.090 HD
ATOM     20  H   LIG d   1      -3.211  92.903 119.309  0.00  0.00    -0.090 HD
ATOM     21  H   LIG d   1      -3.856  92.625 120.789  0.00  0.00    -0.090 HD
ENDBRANCH   5  18
BRANCH   3  22
ATOM     22  C   LIG d   1      -8.189  94.936 118.616  0.00  0.00     0.382 C 
ATOM     23  O   LIG d   1      -9.249  94.546 119.161  0.00  0.00    -0.241 OA
ATOM     24  O   LIG d   1      -8.081  96.126 118.264  0.00  0.00    -0.241 OA
ENDBRANCH   3  22
TORSDOF 7
ENDMDL
MODEL 5
REMARK VINA RESULT:      -5.4      2.253      4.261
REMARK  7 active torsions:
REMARK  status: ('A' for Active; 'I' for Inactive)
REMARK    1  A    between atoms: C_2  and  C_3 
REMARK    2  A    between atoms: C_3  and  O_6 
REMARK    3  A    between atoms: C_3  and  C_4 
REMARK    4  A    between atoms: C_7  and  O_6 
REMARK    5  A    between atoms: C_9  and  C_10 
REMARK    6  A    between atoms: N_15  and  C_14 
REMARK    7  A    between atoms: N_20  and  C_19 
REMARK       I    between atoms: C_22  and  N_20 
ROOT
ATOM      1  C   LIG d   1      -4.578  92.207 118.307  0.00  0.00     0.161 C 
ATOM      2  C   LIG d   1      -5.757  92.969 118.344  0.00  0.00     0.016 C 
ATOM      3  C   LIG d   1      -6.904  92.666 117.575  0.00  0.00     0.038 C 
ATOM      4  C   LIG d   1      -7.003  91.485 116.824  0.00  0.00     0.028 C 
ATOM      5  C   LIG d   1      -5.653  90.948 116.361  0.00  0.00    -0.047 C 
ATOM      6  C   LIG d   1      -4.706  90.853 117.579  0.00  0.00     0.091 C 
ENDROOT
BRANCH   1   7
ATOM      7  O   LIG d   1      -4.080  92.011 119.646  0.00  0.00    -0.368 OA
BRANCH   7   8
ATOM      8  C   LIG d   1      -3.019  92.903 120.068  0.00  0.00     0.119 C 
BRANCH   8   9
ATOM      9  C   LIG d   1      -2.257  93.346 118.805  0.00  0.00     0.028 C 
ATOM     10  C   LIG d   1      -2.045  94.868 118.751  0.00  0.00     0.006 C 
ENDBRANCH   8   9
BRANCH   8  11
ATOM     11  C   LIG d   1      -1.986  92.170 120.929  0.00  0.00     0.028 C 
ATOM     12  C   LIG d   1      -0.797  91.641 120.112  0.00  0.00     0.006 C 
ENDBRANCH   8  11
ENDBRANCH   7   8
ENDBRANCH   1   7
BRANCH   6  13
ATOM     13  N   LIG d   1      -3.337  90.415 117.200  0.00  0.00    -0.311 N 
ATOM     14  C   LIG d   1      -2.663  89.469 117.852  0.00  0.00     0.210 C 
ATOM     15  C   LIG d   1      -1.259  89.184 117.308  0.00  0.00     0.109 C 
ATOM     16  O   LIG d   1      -3.107  88.815 118.808  0.00  0.00    -0.276 OA
ATOM     17  H   LIG d   1      -2.913  90.871 116.416  0.00  0.00     0.149 HD
ENDBRANCH   6  13
BRANCH   5  18
ATOM     18  N   LIG d   1      -5.891  89.645 115.711  0.00  0.00     0.381 N 
ATOM     19  H   LIG d   1      -6.531  89.758 114.950  0.00  0.00    -0.090 HD
ATOM     20  H   LIG d   1      -6.304  89.019 116.380  0.00  0.00    -0.090 HD
ATOM     21  H   LIG d   1      -5.031  89.268 115.378  0.00  0.00    -0.090 HD
ENDBRANCH   5  18
BRANCH   3  22
ATOM     22  C   LIG d   1      -7.954  93.571 117.520  0.00  0.00     0.382 C 
ATOM     23  O   LIG d   1      -8.175  94.334 118.491  0.00  0.00    -0.241 OA
ATOM     24  O   LIG d   1      -8.709  93.602 116.530  0.00  0.00    -0.241 OA
ENDBRANCH   3  22
TORSDOF 7
ENDMDL
MODEL 6
REMARK VINA RESULT:      -5.4      2.278      4.408
REMARK  7 active torsions:
REMARK  status: ('A' for Active; 'I' for Inactive)
REMARK    1  A    between atoms: C_2  and  C_3 
REMARK    2  A    between atoms: C_3  and  O_6 
REMARK    3  A    between atoms: C_3  and  C_4 
REMARK    4  A    between atoms: C_7  and  O_6 
REMARK    5  A    between atoms: C_9  and  C_10 
REMARK    6  A    between atoms: N_15  and  C_14 
REMARK    7  A    between atoms: N_20  and  C_19 
REMARK       I    between atoms: C_22  and  N_20 
ROOT
ATOM      1  C   LIG d   1      -4.966  90.710 117.702  0.00  0.00     0.161 C 
ATOM      2  C   LIG d   1      -5.001  89.934 116.531  0.00  0.00     0.016 C 
ATOM      3  C   LIG d   1      -5.930  90.144 115.486  0.00  0.00     0.038 C 
ATOM      4  C   LIG d   1      -6.797  91.247 115.475  0.00  0.00     0.028 C 
ATOM      5  C   LIG d   1      -7.141  91.761 116.869  0.00  0.00    -0.047 C 
ATOM      6  C   LIG d   1      -5.831  91.987 117.658  0.00  0.00     0.091 C 
ENDROOT
BRANCH   1   7
ATOM      7  O   LIG d   1      -3.602  91.039 118.030  0.00  0.00    -0.368 OA
BRANCH   7   8
ATOM      8  C   LIG d   1      -3.102  90.512 119.283  0.00  0.00     0.119 C 
BRANCH   8   9
ATOM      9  C   LIG d   1      -2.643  91.708 120.139  0.00  0.00     0.028 C 
ATOM     10  C   LIG d   1      -2.446  92.985 119.305  0.00  0.00     0.006 C 
ENDBRANCH   8   9
BRANCH   8  11
ATOM     11  C   LIG d   1      -1.847  89.661 119.069  0.00  0.00     0.028 C 
ATOM     12  C   LIG d   1      -1.404  89.613 117.598  0.00  0.00     0.006 C 
ENDBRANCH   8  11
ENDBRANCH   7   8
ENDBRANCH   1   7
BRANCH   6  13
ATOM     13  N   LIG d   1      -6.080  92.410 119.061  0.00  0.00    -0.311 N 
ATOM     14  C   LIG d   1      -6.199  93.684 119.432  0.00  0.00     0.210 C 
ATOM     15  C   LIG d   1      -6.434  93.901 120.930  0.00  0.00     0.109 C 
ATOM     16  O   LIG d   1      -6.165  94.652 118.658  0.00  0.00    -0.276 OA
ATOM     17  H   LIG d   1      -6.153  91.687 119.749  0.00  0.00     0.149 HD
ENDBRANCH   6  13
BRANCH   5  18
ATOM     18  N   LIG d   1      -7.937  92.992 116.705  0.00  0.00     0.381 N 
ATOM     19  H   LIG d   1      -8.185  93.110 115.743  0.00  0.00    -0.090 HD
ATOM     20  H   LIG d   1      -7.379  93.780 116.986  0.00  0.00    -0.090 HD
ATOM     21  H   LIG d   1      -8.760  92.943 117.265  0.00  0.00    -0.090 HD
ENDBRANCH   5  18
BRANCH   3  22
ATOM     22  C   LIG d   1      -6.026  89.220 114.457  0.00  0.00     0.382 C 
ATOM     23  O   LIG d   1      -5.072  88.438 114.225  0.00  0.00    -0.241 OA
ATOM     24  O   LIG d   1      -7.035  89.189 113.727  0.00  0.00    -0.241 OA
ENDBRANCH   3  22
TORSDOF 7
ENDMDL
MODEL 7
REMARK VINA RESULT:      -5.2      2.330      4.927
REMARK  7 active torsions:
REMARK  status: ('A' for Active; 'I' for Inactive)
REMARK    1  A    between atoms: C_2  and  C_3 
REMARK    2  A    between atoms: C_3  and  O_6 
REMARK    3  A    between atoms: C_3  and  C_4 
REMARK    4  A    between atoms: C_7  and  O_6 
REMARK    5  A    between atoms: C_9  and  C_10 
REMARK    6  A    between atoms: N_15  and  C_14 
REMARK    7  A    between atoms: N_20  and  C_19 
REMARK       I    between atoms: C_22  and  N_20 
ROOT
ATOM      1  C   LIG d   1      -5.164  92.171 118.456  0.00  0.00     0.161 C 
ATOM      2  C   LIG d   1      -6.454  92.556 118.054  0.00  0.00     0.016 C 
ATOM      3  C   LIG d   1      -7.037  93.797 118.398  0.00  0.00     0.038 C 
ATOM      4  C   LIG d   1      -6.308  94.806 119.045  0.00  0.00     0.028 C 
ATOM      5  C   LIG d   1      -5.172  94.271 119.911  0.00  0.00    -0.047 C 
ATOM      6  C   LIG d   1      -4.312  93.302 119.068  0.00  0.00     0.091 C 
ENDROOT
BRANCH   1   7
ATOM      7  O   LIG d   1      -4.469  91.562 117.350  0.00  0.00    -0.368 OA
BRANCH   7   8
ATOM      8  C   LIG d   1      -4.597  90.124 117.230  0.00  0.00     0.119 C 
BRANCH   8   9
ATOM      9  C   LIG d   1      -3.185  89.521 117.365  0.00  0.00     0.028 C 
ATOM     10  C   LIG d   1      -2.830  89.180 118.822  0.00  0.00     0.006 C 
ENDBRANCH   8   9
BRANCH   8  11
ATOM     11  C   LIG d   1      -5.078  89.722 115.833  0.00  0.00     0.028 C 
ATOM     12  C   LIG d   1      -6.607  89.600 115.741  0.00  0.00     0.006 C 
ENDBRANCH   8  11
ENDBRANCH   7   8
ENDBRANCH   1   7
BRANCH   6  13
ATOM     13  N   LIG d   1      -3.228  92.669 119.863  0.00  0.00    -0.311 N 
ATOM     14  C   LIG d   1      -1.972  93.113 119.874  0.00  0.00     0.210 C 
ATOM     15  C   LIG d   1      -1.007  92.302 120.746  0.00  0.00     0.109 C 
ATOM     16  O   LIG d   1      -1.572  94.119 119.270  0.00  0.00    -0.276 OA
ATOM     17  H   LIG d   1      -3.471  91.865 120.408  0.00  0.00     0.149 HD
ENDBRANCH   6  13
BRANCH   5  18
ATOM     18  N   LIG d   1      -4.412  95.431 120.414  0.00  0.00     0.381 N 
ATOM     19  H   LIG d   1      -4.191  95.297 121.381  0.00  0.00    -0.090 HD
ATOM     20  H   LIG d   1      -4.982  96.254 120.332  0.00  0.00    -0.090 HD
ATOM     21  H   LIG d   1      -3.574  95.544 119.887  0.00  0.00    -0.090 HD
ENDBRANCH   5  18
BRANCH   3  22
ATOM     22  C   LIG d   1      -8.379  94.024 118.129  0.00  0.00     0.382 C 
ATOM     23  O   LIG d   1      -9.156  94.360 119.055  0.00  0.00    -0.241 OA
ATOM     24  O   LIG d   1      -8.830  93.854 116.981  0.00  0.00    -0.241 OA
ENDBRANCH   3  22
TORSDOF 7
ENDMDL
MODEL 8
REMARK VINA RESULT:      -5.2      2.329      4.729
REMARK  7 active torsions:
REMARK  status: ('A' for Active; 'I' for Inactive)
REMARK    1  A    between atoms: C_2  and  C_3 
REMARK    2  A    between atoms: C_3  and  O_6 
REMARK    3  A    between atoms: C_3  and  C_4 
REMARK    4  A    between atoms: C_7  and  O_6 
REMARK    5  A    between atoms: C_9  and  C_10 
REMARK    6  A    between atoms: N_15  and  C_14 
REMARK    7  A    between atoms: N_20  and  C_19 
REMARK       I    between atoms: C_22  and  N_20 
ROOT
ATOM      1  C   LIG d   1      -5.299  91.908 118.493  0.00  0.00     0.161 C 
ATOM      2  C   LIG d   1      -5.207  90.858 117.564  0.00  0.00     0.016 C 
ATOM      3  C   LIG d   1      -6.080  90.716 116.461  0.00  0.00     0.038 C 
ATOM      4  C   LIG d   1      -7.015  91.706 116.124  0.00  0.00     0.028 C 
ATOM      5  C   LIG d   1      -7.481  92.531 117.319  0.00  0.00    -0.047 C 
ATOM      6  C   LIG d   1      -6.242  93.057 118.079  0.00  0.00     0.091 C 
ENDROOT
BRANCH   1   7
ATOM      7  O   LIG d   1      -3.983  92.420 118.783  0.00  0.00    -0.368 OA
BRANCH   7   8
ATOM      8  C   LIG d   1      -2.883  91.495 118.596  0.00  0.00     0.119 C 
BRANCH   8   9
ATOM      9  C   LIG d   1      -2.388  91.076 119.994  0.00  0.00     0.028 C 
ATOM     10  C   LIG d   1      -2.455  89.555 120.210  0.00  0.00     0.006 C 
ENDBRANCH   8   9
BRANCH   8  11
ATOM     11  C   LIG d   1      -1.686  92.179 117.929  0.00  0.00     0.028 C 
ATOM     12  C   LIG d   1      -0.496  91.229 117.724  0.00  0.00     0.006 C 
ENDBRANCH   8  11
ENDBRANCH   7   8
ENDBRANCH   1   7
BRANCH   6  13
ATOM     13  N   LIG d   1      -6.607  93.804 119.310  0.00  0.00    -0.311 N 
ATOM     14  C   LIG d   1      -6.851  95.114 119.327  0.00  0.00     0.210 C 
ATOM     15  C   LIG d   1      -7.191  95.690 120.706  0.00  0.00     0.109 C 
ATOM     16  O   LIG d   1      -6.850  95.847 118.327  0.00  0.00    -0.276 OA
ATOM     17  H   LIG d   1      -6.662  93.281 120.162  0.00  0.00     0.149 HD
ENDBRANCH   6  13
BRANCH   5  18
ATOM     18  N   LIG d   1      -8.345  93.611 116.805  0.00  0.00     0.381 N 
ATOM     19  H   LIG d   1      -8.320  94.391 117.431  0.00  0.00    -0.090 HD
ATOM     20  H   LIG d   1      -9.291  93.275 116.757  0.00  0.00    -0.090 HD
ATOM     21  H   LIG d   1      -8.038  93.892 115.900  0.00  0.00    -0.090 HD
ENDBRANCH   5  18
BRANCH   3  22
ATOM     22  C   LIG d   1      -6.048  89.555 115.704  0.00  0.00     0.382 C 
ATOM     23  O   LIG d   1      -5.011  88.848 115.683  0.00  0.00    -0.241 OA
ATOM     24  O   LIG d   1      -7.028  89.227 115.008  0.00  0.00    -0.241 OA
ENDBRANCH   3  22
TORSDOF 7
ENDMDL
MODEL 9
REMARK VINA RESULT:      -5.1      1.726      2.359
REMARK  7 active torsions:
REMARK  status: ('A' for Active; 'I' for Inactive)
REMARK    1  A    between atoms: C_2  and  C_3 
REMARK    2  A    between atoms: C_3  and  O_6 
REMARK    3  A    between atoms: C_3  and  C_4 
REMARK    4  A    between atoms: C_7  and  O_6 
REMARK    5  A    between atoms: C_9  and  C_10 
REMARK    6  A    between atoms: N_15  and  C_14 
REMARK    7  A    between atoms: N_20  and  C_19 
REMARK       I    between atoms: C_22  and  N_20 
ROOT
ATOM      1  C   LIG d   1      -5.560  92.172 118.190  0.00  0.00     0.161 C 
ATOM      2  C   LIG d   1      -6.473  92.084 117.125  0.00  0.00     0.016 C 
ATOM      3  C   LIG d   1      -6.327  91.179 116.049  0.00  0.00     0.038 C 
ATOM      4  C   LIG d   1      -5.332  90.190 116.041  0.00  0.00     0.028 C 
ATOM      5  C   LIG d   1      -4.093  90.571 116.844  0.00  0.00    -0.047 C 
ATOM      6  C   LIG d   1      -4.530  91.026 118.255  0.00  0.00     0.091 C 
ENDROOT
BRANCH   1   7
ATOM      7  O   LIG d   1      -6.274  92.276 119.438  0.00  0.00    -0.368 OA
BRANCH   7   8
ATOM      8  C   LIG d   1      -6.324  93.594 120.037  0.00  0.00     0.119 C 
BRANCH   8   9
ATOM      9  C   LIG d   1      -7.654  94.245 119.614  0.00  0.00     0.028 C 
ATOM     10  C   LIG d   1      -7.451  95.413 118.634  0.00  0.00     0.006 C 
ENDBRANCH   8   9
BRANCH   8  11
ATOM     11  C   LIG d   1      -5.229  94.504 119.472  0.00  0.00     0.028 C 
ATOM     12  C   LIG d   1      -4.098  94.771 120.478  0.00  0.00     0.006 C 
ENDBRANCH   8  11
ENDBRANCH   7   8
ENDBRANCH   1   7
BRANCH   6  13
ATOM     13  N   LIG d   1      -3.385  91.496 119.079  0.00  0.00    -0.311 N 
ATOM     14  C   LIG d   1      -2.632  90.684 119.818  0.00  0.00     0.210 C 
ATOM     15  C   LIG d   1      -1.516  91.377 120.607  0.00  0.00     0.109 C 
ATOM     16  O   LIG d   1      -2.761  89.452 119.871  0.00  0.00    -0.276 OA
ATOM     17  H   LIG d   1      -3.190  92.478 119.070  0.00  0.00     0.149 HD
ENDBRANCH   6  13
BRANCH   5  18
ATOM     18  N   LIG d   1      -3.198  89.399 116.865  0.00  0.00     0.381 N 
ATOM     19  H   LIG d   1      -2.324  89.647 117.285  0.00  0.00    -0.090 HD
ATOM     20  H   LIG d   1      -3.021  89.107 115.920  0.00  0.00    -0.090 HD
ATOM     21  H   LIG d   1      -3.621  88.656 117.376  0.00  0.00    -0.090 HD
ENDBRANCH   5  18
BRANCH   3  22
ATOM     22  C   LIG d   1      -7.159  91.285 114.945  0.00  0.00     0.382 C 
ATOM     23  O   LIG d   1      -7.978  90.371 114.687  0.00  0.00    -0.241 OA
ATOM     24  O   LIG d   1      -7.070  92.263 114.178  0.00  0.00    -0.241 OA
ENDBRANCH   3  22
TORSDOF 7
ENDMDL
