MODEL 1
REMARK VINA RESULT:      -5.6      0.000      0.000
REMARK  7 active torsions:
REMARK  status: ('A' for Active; 'I' for Inactive)
REMARK    1  A    between atoms: C_2  and  C_3 
REMARK    2  A    between atoms: C_3  and  O_6 
REMARK    3  A    between atoms: C_3  and  C_4 
REMARK    4  A    between atoms: C_7  and  O_6 
REMARK    5  A    between atoms: C_9  and  C_10 
REMARK    6  A    between atoms: N_15  and  C_14 
REMARK    7  A    between atoms: N_20  and  C_19 
REMARK       I    between atoms: C_22  and  N_20 
ROOT
ATOM      1  C   LIG d   1      -6.185  93.310 118.003  0.00  0.00     0.161 C 
ATOM      2  C   LIG d   1      -6.934  92.444 117.188  0.00  0.00     0.016 C 
ATOM      3  C   LIG d   1      -6.372  91.345 116.499  0.00  0.00     0.038 C 
ATOM      4  C   LIG d   1      -5.043  90.944 116.699  0.00  0.00     0.028 C 
ATOM      5  C   LIG d   1      -4.123  92.085 117.119  0.00  0.00    -0.047 C 
ATOM      6  C   LIG d   1      -4.756  92.823 118.322  0.00  0.00     0.091 C 
ENDROOT
BRANCH   1   7
ATOM      7  O   LIG d   1      -6.906  93.580 119.221  0.00  0.00    -0.368 OA
BRANCH   7   8
ATOM      8  C   LIG d   1      -7.457  94.913 119.354  0.00  0.00     0.119 C 
BRANCH   8   9
ATOM      9  C   LIG d   1      -8.972  94.816 119.085  0.00  0.00     0.028 C 
ATOM     10  C   LIG d   1      -9.790  94.681 120.380  0.00  0.00     0.006 C 
ENDBRANCH   8   9
BRANCH   8  11
ATOM     11  C   LIG d   1      -6.913  95.851 118.272  0.00  0.00     0.028 C 
ATOM     12  C   LIG d   1      -7.945  96.893 117.814  0.00  0.00     0.006 C 
ENDBRANCH   8  11
ENDBRANCH   7   8
ENDBRANCH   1   7
BRANCH   6  13
ATOM     13  N   LIG d   1      -3.961  94.006 118.743  0.00  0.00    -0.311 N 
ATOM     14  C   LIG d   1      -3.041  93.967 119.706  0.00  0.00     0.210 C 
ATOM     15  C   LIG d   1      -2.352  95.303 119.996  0.00  0.00     0.109 C 
ATOM     16  O   LIG d   1      -2.709  92.945 120.324  0.00  0.00    -0.276 OA
ATOM     17  H   LIG d   1      -4.145  94.870 118.272  0.00  0.00     0.149 HD
ENDBRANCH   6  13
BRANCH   5  18
ATOM     18  N   LIG d   1      -2.803  91.504 117.427  0.00  0.00     0.381 N 
ATOM     19  H   LIG d   1      -2.150  91.749 116.711  0.00  0.00    -0.090 HD
ATOM     20  H   LIG d   1      -2.886  90.502 117.449  0.00  0.00    -0.090 HD
ATOM     21  H   LIG d   1      -2.481  91.837 118.309  0.00  0.00    -0.090 HD
ENDBRANCH   5  18
BRANCH   3  22
ATOM     22  C   LIG d   1      -7.134  90.657 115.566  0.00  0.00     0.382 C 
ATOM     23  O   LIG d   1      -7.779  91.289 114.695  0.00  0.00    -0.241 OA
ATOM     24  O   LIG d   1      -7.220  89.415 115.613  0.00  0.00    -0.241 OA
ENDBRANCH   3  22
TORSDOF 7
ENDMDL
MODEL 2
REMARK VINA RESULT:      -5.5      2.069      4.546
REMARK  7 active torsions:
REMARK  status: ('A' for Active; 'I' for Inactive)
REMARK    1  A    between atoms: C_2  and  C_3 
REMARK    2  A    between atoms: C_3  and  O_6 
REMARK    3  A    between atoms: C_3  and  C_4 
REMARK    4  A    between atoms: C_7  and  O_6 
REMARK    5  A    between atoms: C_9  and  C_10 
REMARK    6  A    between atoms: N_15  and  C_14 
REMARK    7  A    between atoms: N_20  and  C_19 
REMARK       I    between atoms: C_22  and  N_20 
ROOT
ATOM      1  C   LIG d   1      -4.496  92.138 117.783  0.00  0.00     0.161 C 
ATOM      2  C   LIG d   1      -4.624  91.182 116.762  0.00  0.00     0.016 C 
ATOM      3  C   LIG d   1      -5.808  90.999 116.012  0.00  0.00     0.038 C 
ATOM      4  C   LIG d   1      -6.903  91.867 116.131  0.00  0.00     0.028 C 
ATOM      5  C   LIG d   1      -7.006  92.528 117.501  0.00  0.00    -0.047 C 
ATOM      6  C   LIG d   1      -5.643  93.168 117.852  0.00  0.00     0.091 C 
ENDROOT
BRANCH   1   7
ATOM      7  O   LIG d   1      -3.226  92.810 117.668  0.00  0.00    -0.368 OA
BRANCH   7   8
ATOM      8  C   LIG d   1      -2.346  92.710 118.815  0.00  0.00     0.119 C 
BRANCH   8   9
ATOM      9  C   LIG d   1      -2.131  94.135 119.360  0.00  0.00     0.028 C 
ATOM     10  C   LIG d   1      -2.031  95.183 118.238  0.00  0.00     0.006 C 
ENDBRANCH   8   9
BRANCH   8  11
ATOM     11  C   LIG d   1      -0.954  92.218 118.408  0.00  0.00     0.028 C 
ATOM     12  C   LIG d   1      -0.993  90.880 117.652  0.00  0.00     0.006 C 
ENDBRANCH   8  11
ENDBRANCH   7   8
ENDBRANCH   1   7
BRANCH   6  13
ATOM     13  N   LIG d   1      -5.631  93.765 119.213  0.00  0.00    -0.311 N 
ATOM     14  C   LIG d   1      -5.919  95.042 119.457  0.00  0.00     0.210 C 
ATOM     15  C   LIG d   1      -5.828  95.457 120.929  0.00  0.00     0.109 C 
ATOM     16  O   LIG d   1      -6.274  95.863 118.597  0.00  0.00    -0.276 OA
ATOM     17  H   LIG d   1      -5.385  93.161 119.974  0.00  0.00     0.149 HD
ENDBRANCH   6  13
BRANCH   5  18
ATOM     18  N   LIG d   1      -8.107  93.508 117.442  0.00  0.00     0.381 N 
ATOM     19  H   LIG d   1      -7.771  94.372 117.066  0.00  0.00    -0.090 HD
ATOM     20  H   LIG d   1      -8.441  93.678 118.374  0.00  0.00    -0.090 HD
ATOM     21  H   LIG d   1      -8.846  93.156 116.875  0.00  0.00    -0.090 HD
ENDBRANCH   5  18
BRANCH   3  22
ATOM     22  C   LIG d   1      -5.919  89.911 115.158  0.00  0.00     0.382 C 
ATOM     23  O   LIG d   1      -7.038  89.595 114.689  0.00  0.00    -0.241 OA
ATOM     24  O   LIG d   1      -4.921  89.217 114.887  0.00  0.00    -0.241 OA
ENDBRANCH   3  22
TORSDOF 7
ENDMDL
MODEL 3
REMARK VINA RESULT:      -5.0      2.571      6.478
REMARK  7 active torsions:
REMARK  status: ('A' for Active; 'I' for Inactive)
REMARK    1  A    between atoms: C_2  and  C_3 
REMARK    2  A    between atoms: C_3  and  O_6 
REMARK    3  A    between atoms: C_3  and  C_4 
REMARK    4  A    between atoms: C_7  and  O_6 
REMARK    5  A    between atoms: C_9  and  C_10 
REMARK    6  A    between atoms: N_15  and  C_14 
REMARK    7  A    between atoms: N_20  and  C_19 
REMARK       I    between atoms: C_22  and  N_20 
ROOT
ATOM      1  C   LIG d   1      -4.403  92.145 117.769  0.00  0.00     0.161 C 
ATOM      2  C   LIG d   1      -4.112  93.086 118.771  0.00  0.00     0.016 C 
ATOM      3  C   LIG d   1      -5.055  94.019 119.260  0.00  0.00     0.038 C 
ATOM      4  C   LIG d   1      -6.406  93.974 118.885  0.00  0.00     0.028 C 
ATOM      5  C   LIG d   1      -6.631  93.368 117.503  0.00  0.00    -0.047 C 
ATOM      6  C   LIG d   1      -5.902  92.007 117.428  0.00  0.00     0.091 C 
ENDROOT
BRANCH   1   7
ATOM      7  O   LIG d   1      -3.851  90.863 118.128  0.00  0.00    -0.368 OA
BRANCH   7   8
ATOM      8  C   LIG d   1      -2.570  90.533 117.537  0.00  0.00     0.119 C 
BRANCH   8   9
ATOM      9  C   LIG d   1      -2.432  88.998 117.560  0.00  0.00     0.028 C 
ATOM     10  C   LIG d   1      -2.304  88.441 118.987  0.00  0.00     0.006 C 
ENDBRANCH   8   9
BRANCH   8  11
ATOM     11  C   LIG d   1      -1.411  91.057 118.391  0.00  0.00     0.028 C 
ATOM     12  C   LIG d   1      -0.246  91.596 117.546  0.00  0.00     0.006 C 
ENDBRANCH   8  11
ENDBRANCH   7   8
ENDBRANCH   1   7
BRANCH   6  13
ATOM     13  N   LIG d   1      -6.000  91.385 116.081  0.00  0.00    -0.311 N 
ATOM     14  C   LIG d   1      -6.998  90.581 115.717  0.00  0.00     0.210 C 
ATOM     15  C   LIG d   1      -6.896  90.031 114.290  0.00  0.00     0.109 C 
ATOM     16  O   LIG d   1      -7.973  90.297 116.428  0.00  0.00    -0.276 OA
ATOM     17  H   LIG d   1      -5.267  91.588 115.430  0.00  0.00     0.149 HD
ENDBRANCH   6  13
BRANCH   5  18
ATOM     18  N   LIG d   1      -8.088  93.255 117.298  0.00  0.00     0.381 N 
ATOM     19  H   LIG d   1      -8.562  93.365 118.172  0.00  0.00    -0.090 HD
ATOM     20  H   LIG d   1      -8.296  92.340 116.939  0.00  0.00    -0.090 HD
ATOM     21  H   LIG d   1      -8.396  93.950 116.654  0.00  0.00    -0.090 HD
ENDBRANCH   5  18
BRANCH   3  22
ATOM     22  C   LIG d   1      -4.640  95.037 120.105  0.00  0.00     0.382 C 
ATOM     23  O   LIG d   1      -5.479  95.843 120.575  0.00  0.00    -0.241 OA
ATOM     24  O   LIG d   1      -3.432  95.187 120.368  0.00  0.00    -0.241 OA
ENDBRANCH   3  22
TORSDOF 7
ENDMDL
MODEL 4
REMARK VINA RESULT:      -5.0      1.519      4.626
REMARK  7 active torsions:
REMARK  status: ('A' for Active; 'I' for Inactive)
REMARK    1  A    between atoms: C_2  and  C_3 
REMARK    2  A    between atoms: C_3  and  O_6 
REMARK    3  A    between atoms: C_3  and  C_4 
REMARK    4  A    between atoms: C_7  and  O_6 
REMARK    5  A    between atoms: C_9  and  C_10 
REMARK    6  A    between atoms: N_15  and  C_14 
REMARK    7  A    between atoms: N_20  and  C_19 
REMARK       I    between atoms: C_22  and  N_20 
ROOT
ATOM      1  C   LIG d   1      -5.911  92.860 118.197  0.00  0.00     0.161 C 
ATOM      2  C   LIG d   1      -4.871  93.471 118.919  0.00  0.00     0.016 C 
ATOM      3  C   LIG d   1      -3.520  93.066 118.829  0.00  0.00     0.038 C 
ATOM      4  C   LIG d   1      -3.091  92.115 117.892  0.00  0.00     0.028 C 
ATOM      5  C   LIG d   1      -4.177  91.118 117.501  0.00  0.00    -0.047 C 
ATOM      6  C   LIG d   1      -5.447  91.895 117.087  0.00  0.00     0.091 C 
ENDROOT
BRANCH   1   7
ATOM      7  O   LIG d   1      -6.785  93.868 117.652  0.00  0.00    -0.368 OA
BRANCH   7   8
ATOM      8  C   LIG d   1      -7.145  94.951 118.546  0.00  0.00     0.119 C 
BRANCH   8   9
ATOM      9  C   LIG d   1      -8.682  94.966 118.658  0.00  0.00     0.028 C 
ATOM     10  C   LIG d   1      -9.168  94.707 120.094  0.00  0.00     0.006 C 
ENDBRANCH   8   9
BRANCH   8  11
ATOM     11  C   LIG d   1      -6.768  96.311 117.953  0.00  0.00     0.028 C 
ATOM     12  C   LIG d   1      -7.947  97.297 117.927  0.00  0.00     0.006 C 
ENDBRANCH   8  11
ENDBRANCH   7   8
ENDBRANCH   1   7
BRANCH   6  13
ATOM     13  N   LIG d   1      -6.585  90.993 116.770  0.00  0.00    -0.311 N 
ATOM     14  C   LIG d   1      -6.824  90.515 115.550  0.00  0.00     0.210 C 
ATOM     15  C   LIG d   1      -8.061  89.619 115.438  0.00  0.00     0.109 C 
ATOM     16  O   LIG d   1      -6.110  90.721 114.557  0.00  0.00    -0.276 OA
ATOM     17  H   LIG d   1      -7.197  90.750 117.524  0.00  0.00     0.149 HD
ENDBRANCH   6  13
BRANCH   5  18
ATOM     18  N   LIG d   1      -3.637  90.272 116.419  0.00  0.00     0.381 N 
ATOM     19  H   LIG d   1      -3.148  90.841 115.757  0.00  0.00    -0.090 HD
ATOM     20  H   LIG d   1      -4.402  89.824 115.945  0.00  0.00    -0.090 HD
ATOM     21  H   LIG d   1      -3.023  89.586 116.797  0.00  0.00    -0.090 HD
ENDBRANCH   5  18
BRANCH   3  22
ATOM     22  C   LIG d   1      -2.587  93.587 119.713  0.00  0.00     0.382 C 
ATOM     23  O   LIG d   1      -1.721  92.837 120.224  0.00  0.00    -0.241 OA
ATOM     24  O   LIG d   1      -2.627  94.789 120.038  0.00  0.00    -0.241 OA
ENDBRANCH   3  22
TORSDOF 7
ENDMDL
MODEL 5
REMARK VINA RESULT:      -4.9      2.494      4.905
REMARK  7 active torsions:
REMARK  status: ('A' for Active; 'I' for Inactive)
REMARK    1  A    between atoms: C_2  and  C_3 
REMARK    2  A    between atoms: C_3  and  O_6 
REMARK    3  A    between atoms: C_3  and  C_4 
REMARK    4  A    between atoms: C_7  and  O_6 
REMARK    5  A    between atoms: C_9  and  C_10 
REMARK    6  A    between atoms: N_15  and  C_14 
REMARK    7  A    between atoms: N_20  and  C_19 
REMARK       I    between atoms: C_22  and  N_20 
ROOT
ATOM      1  C   LIG d   1      -4.010  91.227 117.536  0.00  0.00     0.161 C 
ATOM      2  C   LIG d   1      -4.726  90.580 116.515  0.00  0.00     0.016 C 
ATOM      3  C   LIG d   1      -5.952  91.060 116.000  0.00  0.00     0.038 C 
ATOM      4  C   LIG d   1      -6.473  92.309 116.369  0.00  0.00     0.028 C 
ATOM      5  C   LIG d   1      -6.044  92.757 117.762  0.00  0.00    -0.047 C 
ATOM      6  C   LIG d   1      -4.506  92.649 117.873  0.00  0.00     0.091 C 
ENDROOT
BRANCH   1   7
ATOM      7  O   LIG d   1      -2.607  91.251 117.209  0.00  0.00    -0.368 OA
BRANCH   7   8
ATOM      8  C   LIG d   1      -1.805  90.177 117.761  0.00  0.00     0.119 C 
BRANCH   8   9
ATOM      9  C   LIG d   1      -2.384  89.833 119.147  0.00  0.00     0.028 C 
ATOM     10  C   LIG d   1      -1.525  90.389 120.296  0.00  0.00     0.006 C 
ENDBRANCH   8   9
BRANCH   8  11
ATOM     11  C   LIG d   1      -0.367  90.633 118.023  0.00  0.00     0.028 C 
ATOM     12  C   LIG d   1       0.467  90.743 116.737  0.00  0.00     0.006 C 
ENDBRANCH   8  11
ENDBRANCH   7   8
ENDBRANCH   1   7
BRANCH   6  13
ATOM     13  N   LIG d   1      -4.011  92.988 119.232  0.00  0.00    -0.311 N 
ATOM     14  C   LIG d   1      -2.979  93.802 119.454  0.00  0.00     0.210 C 
ATOM     15  C   LIG d   1      -2.620  94.001 120.930  0.00  0.00     0.109 C 
ATOM     16  O   LIG d   1      -2.349  94.402 118.571  0.00  0.00    -0.276 OA
ATOM     17  H   LIG d   1      -4.484  92.570 120.008  0.00  0.00     0.149 HD
ENDBRANCH   6  13
BRANCH   5  18
ATOM     18  N   LIG d   1      -6.543  94.130 117.962  0.00  0.00     0.381 N 
ATOM     19  H   LIG d   1      -5.775  94.750 118.125  0.00  0.00    -0.090 HD
ATOM     20  H   LIG d   1      -7.138  94.146 118.772  0.00  0.00    -0.090 HD
ATOM     21  H   LIG d   1      -7.055  94.428 117.160  0.00  0.00    -0.090 HD
ENDBRANCH   5  18
BRANCH   3  22
ATOM     22  C   LIG d   1      -6.691  90.267 115.135  0.00  0.00     0.382 C 
ATOM     23  O   LIG d   1      -7.915  90.490 114.971  0.00  0.00    -0.241 OA
ATOM     24  O   LIG d   1      -6.159  89.305 114.550  0.00  0.00    -0.241 OA
ENDBRANCH   3  22
TORSDOF 7
ENDMDL
MODEL 6
REMARK VINA RESULT:      -4.8      1.545      2.298
REMARK  7 active torsions:
REMARK  status: ('A' for Active; 'I' for Inactive)
REMARK    1  A    between atoms: C_2  and  C_3 
REMARK    2  A    between atoms: C_3  and  O_6 
REMARK    3  A    between atoms: C_3  and  C_4 
REMARK    4  A    between atoms: C_7  and  O_6 
REMARK    5  A    between atoms: C_9  and  C_10 
REMARK    6  A    between atoms: N_15  and  C_14 
REMARK    7  A    between atoms: N_20  and  C_19 
REMARK       I    between atoms: C_22  and  N_20 
ROOT
ATOM      1  C   LIG d   1      -5.399  92.616 117.835  0.00  0.00     0.161 C 
ATOM      2  C   LIG d   1      -6.327  92.345 116.815  0.00  0.00     0.016 C 
ATOM      3  C   LIG d   1      -6.161  91.310 115.867  0.00  0.00     0.038 C 
ATOM      4  C   LIG d   1      -5.123  90.371 115.968  0.00  0.00     0.028 C 
ATOM      5  C   LIG d   1      -3.887  90.909 116.682  0.00  0.00    -0.047 C 
ATOM      6  C   LIG d   1      -4.317  91.533 118.029  0.00  0.00     0.091 C 
ENDROOT
BRANCH   1   7
ATOM      7  O   LIG d   1      -6.093  92.858 119.075  0.00  0.00    -0.368 OA
BRANCH   7   8
ATOM      8  C   LIG d   1      -6.198  94.243 119.486  0.00  0.00     0.119 C 
BRANCH   8   9
ATOM      9  C   LIG d   1      -5.371  94.407 120.776  0.00  0.00     0.028 C 
ATOM     10  C   LIG d   1      -4.054  95.165 120.536  0.00  0.00     0.006 C 
ENDBRANCH   8   9
BRANCH   8  11
ATOM     11  C   LIG d   1      -7.635  94.601 119.878  0.00  0.00     0.028 C 
ATOM     12  C   LIG d   1      -8.568  94.734 118.664  0.00  0.00     0.006 C 
ENDBRANCH   8  11
ENDBRANCH   7   8
ENDBRANCH   1   7
BRANCH   6  13
ATOM     13  N   LIG d   1      -3.180  92.158 118.753  0.00  0.00    -0.311 N 
ATOM     14  C   LIG d   1      -2.436  91.510 119.648  0.00  0.00     0.210 C 
ATOM     15  C   LIG d   1      -1.326  92.347 120.292  0.00  0.00     0.109 C 
ATOM     16  O   LIG d   1      -2.570  90.314 119.946  0.00  0.00    -0.276 OA
ATOM     17  H   LIG d   1      -2.981  93.118 118.548  0.00  0.00     0.149 HD
ENDBRANCH   6  13
BRANCH   5  18
ATOM     18  N   LIG d   1      -2.941  89.788 116.839  0.00  0.00     0.381 N 
ATOM     19  H   LIG d   1      -2.005  90.140 116.887  0.00  0.00    -0.090 HD
ATOM     20  H   LIG d   1      -3.012  89.188 116.037  0.00  0.00    -0.090 HD
ATOM     21  H   LIG d   1      -3.153  89.276 117.667  0.00  0.00    -0.090 HD
ENDBRANCH   5  18
BRANCH   3  22
ATOM     22  C   LIG d   1      -7.018  91.229 114.780  0.00  0.00     0.382 C 
ATOM     23  O   LIG d   1      -6.818  91.947 113.770  0.00  0.00    -0.241 OA
ATOM     24  O   LIG d   1      -8.013  90.481 114.814  0.00  0.00    -0.241 OA
ENDBRANCH   3  22
TORSDOF 7
ENDMDL
MODEL 7
REMARK VINA RESULT:      -4.6      2.383      4.527
REMARK  7 active torsions:
REMARK  status: ('A' for Active; 'I' for Inactive)
REMARK    1  A    between atoms: C_2  and  C_3 
REMARK    2  A    between atoms: C_3  and  O_6 
REMARK    3  A    between atoms: C_3  and  C_4 
REMARK    4  A    between atoms: C_7  and  O_6 
REMARK    5  A    between atoms: C_9  and  C_10 
REMARK    6  A    between atoms: N_15  and  C_14 
REMARK    7  A    between atoms: N_20  and  C_19 
REMARK       I    between atoms: C_22  and  N_20 
ROOT
ATOM      1  C   LIG d   1      -5.118  93.157 119.637  0.00  0.00     0.161 C 
ATOM      2  C   LIG d   1      -4.121  92.344 119.073  0.00  0.00     0.016 C 
ATOM      3  C   LIG d   1      -4.240  91.733 117.804  0.00  0.00     0.038 C 
ATOM      4  C   LIG d   1      -5.309  92.018 116.941  0.00  0.00     0.028 C 
ATOM      5  C   LIG d   1      -6.582  92.434 117.671  0.00  0.00    -0.047 C 
ATOM      6  C   LIG d   1      -6.243  93.569 118.664  0.00  0.00     0.091 C 
ENDROOT
BRANCH   1   7
ATOM      7  O   LIG d   1      -4.518  94.325 120.232  0.00  0.00    -0.368 OA
BRANCH   7   8
ATOM      8  C   LIG d   1      -4.101  95.365 119.314  0.00  0.00     0.119 C 
BRANCH   8   9
ATOM      9  C   LIG d   1      -2.560  95.390 119.312  0.00  0.00     0.028 C 
ATOM     10  C   LIG d   1      -1.990  96.382 118.284  0.00  0.00     0.006 C 
ENDBRANCH   8   9
BRANCH   8  11
ATOM     11  C   LIG d   1      -4.527  96.750 119.810  0.00  0.00     0.028 C 
ATOM     12  C   LIG d   1      -5.556  97.423 118.887  0.00  0.00     0.006 C 
ENDBRANCH   8  11
ENDBRANCH   7   8
ENDBRANCH   1   7
BRANCH   6  13
ATOM     13  N   LIG d   1      -7.416  93.978 119.480  0.00  0.00    -0.311 N 
ATOM     14  C   LIG d   1      -8.292  94.904 119.093  0.00  0.00     0.210 C 
ATOM     15  C   LIG d   1      -9.416  95.189 120.093  0.00  0.00     0.109 C 
ATOM     16  O   LIG d   1      -8.262  95.493 118.002  0.00  0.00    -0.276 OA
ATOM     17  H   LIG d   1      -7.534  93.528 120.367  0.00  0.00     0.149 HD
ENDBRANCH   6  13
BRANCH   5  18
ATOM     18  N   LIG d   1      -7.570  92.833 116.652  0.00  0.00     0.381 N 
ATOM     19  H   LIG d   1      -7.890  92.026 116.155  0.00  0.00    -0.090 HD
ATOM     20  H   LIG d   1      -7.129  93.453 115.996  0.00  0.00    -0.090 HD
ATOM     21  H   LIG d   1      -8.341  93.291 117.085  0.00  0.00    -0.090 HD
ENDBRANCH   5  18
BRANCH   3  22
ATOM     22  C   LIG d   1      -3.302  90.794 117.402  0.00  0.00     0.382 C 
ATOM     23  O   LIG d   1      -3.653  89.822 116.691  0.00  0.00    -0.241 OA
ATOM     24  O   LIG d   1      -2.118  90.883 117.778  0.00  0.00    -0.241 OA
ENDBRANCH   3  22
TORSDOF 7
ENDMDL
MODEL 8
REMARK VINA RESULT:      -4.5      2.210      4.446
REMARK  7 active torsions:
REMARK  status: ('A' for Active; 'I' for Inactive)
REMARK    1  A    between atoms: C_2  and  C_3 
REMARK    2  A    between atoms: C_3  and  O_6 
REMARK    3  A    between atoms: C_3  and  C_4 
REMARK    4  A    between atoms: C_7  and  O_6 
REMARK    5  A    between atoms: C_9  and  C_10 
REMARK    6  A    between atoms: N_15  and  C_14 
REMARK    7  A    between atoms: N_20  and  C_19 
REMARK       I    between atoms: C_22  and  N_20 
ROOT
ATOM      1  C   LIG d   1      -4.845  93.494 118.946  0.00  0.00     0.161 C 
ATOM      2  C   LIG d   1      -4.421  92.416 118.150  0.00  0.00     0.016 C 
ATOM      3  C   LIG d   1      -5.242  91.794 117.182  0.00  0.00     0.038 C 
ATOM      4  C   LIG d   1      -6.500  92.309 116.835  0.00  0.00     0.028 C 
ATOM      5  C   LIG d   1      -7.169  93.086 117.964  0.00  0.00    -0.047 C 
ATOM      6  C   LIG d   1      -6.175  94.140 118.505  0.00  0.00     0.091 C 
ENDROOT
BRANCH   1   7
ATOM      7  O   LIG d   1      -3.805  94.488 119.016  0.00  0.00    -0.368 OA
BRANCH   7   8
ATOM      8  C   LIG d   1      -3.121  94.607 120.288  0.00  0.00     0.119 C 
BRANCH   8   9
ATOM      9  C   LIG d   1      -3.550  95.944 120.922  0.00  0.00     0.028 C 
ATOM     10  C   LIG d   1      -3.755  97.051 119.874  0.00  0.00     0.006 C 
ENDBRANCH   8   9
BRANCH   8  11
ATOM     11  C   LIG d   1      -1.605  94.716 120.098  0.00  0.00     0.028 C 
ATOM     12  C   LIG d   1      -1.193  94.775 118.619  0.00  0.00     0.006 C 
ENDBRANCH   8  11
ENDBRANCH   7   8
ENDBRANCH   1   7
BRANCH   6  13
ATOM     13  N   LIG d   1      -6.720  94.888 119.668  0.00  0.00    -0.311 N 
ATOM     14  C   LIG d   1      -7.366  96.047 119.556  0.00  0.00     0.210 C 
ATOM     15  C   LIG d   1      -7.827  96.660 120.882  0.00  0.00     0.109 C 
ATOM     16  O   LIG d   1      -7.630  96.609 118.483  0.00  0.00    -0.276 OA
ATOM     17  H   LIG d   1      -6.578  94.488 120.574  0.00  0.00     0.149 HD
ENDBRANCH   6  13
BRANCH   5  18
ATOM     18  N   LIG d   1      -8.406  93.681 117.424  0.00  0.00     0.381 N 
ATOM     19  H   LIG d   1      -8.410  93.605 116.426  0.00  0.00    -0.090 HD
ATOM     20  H   LIG d   1      -8.430  94.656 117.666  0.00  0.00    -0.090 HD
ATOM     21  H   LIG d   1      -9.201  93.217 117.803  0.00  0.00    -0.090 HD
ENDBRANCH   5  18
BRANCH   3  22
ATOM     22  C   LIG d   1      -4.821  90.620 116.577  0.00  0.00     0.382 C 
ATOM     23  O   LIG d   1      -3.718  90.112 116.893  0.00  0.00    -0.241 OA
ATOM     24  O   LIG d   1      -5.510  90.086 115.686  0.00  0.00    -0.241 OA
ENDBRANCH   3  22
TORSDOF 7
ENDMDL
MODEL 9
REMARK VINA RESULT:      -4.5      5.862      7.988
REMARK  7 active torsions:
REMARK  status: ('A' for Active; 'I' for Inactive)
REMARK    1  A    between atoms: C_2  and  C_3 
REMARK    2  A    between atoms: C_3  and  O_6 
REMARK    3  A    between atoms: C_3  and  C_4 
REMARK    4  A    between atoms: C_7  and  O_6 
REMARK    5  A    between atoms: C_9  and  C_10 
REMARK    6  A    between atoms: N_15  and  C_14 
REMARK    7  A    between atoms: N_20  and  C_19 
REMARK       I    between atoms: C_22  and  N_20 
ROOT
ATOM      1  C   LIG d   1       0.741  90.975 117.003  0.00  0.00     0.161 C 
ATOM      2  C   LIG d   1       1.290  90.005 116.149  0.00  0.00     0.016 C 
ATOM      3  C   LIG d   1       2.673  89.908 115.868  0.00  0.00     0.038 C 
ATOM      4  C   LIG d   1       3.623  90.686 116.545  0.00  0.00     0.028 C 
ATOM      5  C   LIG d   1       3.073  92.019 117.040  0.00  0.00    -0.047 C 
ATOM      6  C   LIG d   1       1.774  91.761 117.838  0.00  0.00     0.091 C 
ENDROOT
BRANCH   1   7
ATOM      7  O   LIG d   1      -0.241  90.368 117.865  0.00  0.00    -0.368 OA
BRANCH   7   8
ATOM      8  C   LIG d   1      -1.628  90.613 117.524  0.00  0.00     0.119 C 
BRANCH   8   9
ATOM      9  C   LIG d   1      -2.146  91.721 118.461  0.00  0.00     0.028 C 
ATOM     10  C   LIG d   1      -2.410  93.042 117.718  0.00  0.00     0.006 C 
ENDBRANCH   8   9
BRANCH   8  11
ATOM     11  C   LIG d   1      -2.500  89.390 117.821  0.00  0.00     0.028 C 
ATOM     12  C   LIG d   1      -1.799  88.365 118.727  0.00  0.00     0.006 C 
ENDBRANCH   8  11
ENDBRANCH   7   8
ENDBRANCH   1   7
BRANCH   6  13
ATOM     13  N   LIG d   1       1.125  93.021 118.287  0.00  0.00    -0.311 N 
ATOM     14  C   LIG d   1       1.310  93.550 119.495  0.00  0.00     0.210 C 
ATOM     15  C   LIG d   1       0.531  94.842 119.760  0.00  0.00     0.109 C 
ATOM     16  O   LIG d   1       2.070  93.090 120.360  0.00  0.00    -0.276 OA
ATOM     17  H   LIG d   1       0.516  93.477 117.636  0.00  0.00     0.149 HD
ENDBRANCH   6  13
BRANCH   5  18
ATOM     18  N   LIG d   1       4.127  92.665 117.846  0.00  0.00     0.381 N 
ATOM     19  H   LIG d   1       3.872  93.612 118.041  0.00  0.00    -0.090 HD
ATOM     20  H   LIG d   1       4.982  92.670 117.318  0.00  0.00    -0.090 HD
ATOM     21  H   LIG d   1       4.258  92.166 118.698  0.00  0.00    -0.090 HD
ENDBRANCH   5  18
BRANCH   3  22
ATOM     22  C   LIG d   1       3.113  89.052 114.869  0.00  0.00     0.382 C 
ATOM     23  O   LIG d   1       3.552  87.915 115.167  0.00  0.00    -0.241 OA
ATOM     24  O   LIG d   1       3.117  89.419 113.679  0.00  0.00    -0.241 OA
ENDBRANCH   3  22
TORSDOF 7
ENDMDL
