MODEL 1
REMARK VINA RESULT:      -4.8      0.000      0.000
REMARK  7 active torsions:
REMARK  status: ('A' for Active; 'I' for Inactive)
REMARK    1  A    between atoms: C_2  and  C_3 
REMARK    2  A    between atoms: C_3  and  O_6 
REMARK    3  A    between atoms: C_3  and  C_4 
REMARK    4  A    between atoms: C_7  and  O_6 
REMARK    5  A    between atoms: C_9  and  C_10 
REMARK    6  A    between atoms: N_15  and  C_14 
REMARK    7  A    between atoms: N_20  and  C_19 
REMARK       I    between atoms: C_22  and  N_20 
ROOT
ATOM      1  C   LIG d   1       3.493  90.344 116.817  0.00  0.00     0.161 C 
ATOM      2  C   LIG d   1       2.542  91.205 117.390  0.00  0.00     0.016 C 
ATOM      3  C   LIG d   1       2.823  92.057 118.482  0.00  0.00     0.038 C 
ATOM      4  C   LIG d   1       4.124  92.217 118.983  0.00  0.00     0.028 C 
ATOM      5  C   LIG d   1       5.011  90.996 118.766  0.00  0.00    -0.047 C 
ATOM      6  C   LIG d   1       4.946  90.586 117.277  0.00  0.00     0.091 C 
ENDROOT
BRANCH   1   7
ATOM      7  O   LIG d   1       3.406  90.407 115.379  0.00  0.00    -0.368 OA
BRANCH   7   8
ATOM      8  C   LIG d   1       2.955  89.201 114.715  0.00  0.00     0.119 C 
BRANCH   8   9
ATOM      9  C   LIG d   1       2.574  88.184 115.808  0.00  0.00     0.028 C 
ATOM     10  C   LIG d   1       1.261  87.448 115.494  0.00  0.00     0.006 C 
ENDBRANCH   8   9
BRANCH   8  11
ATOM     11  C   LIG d   1       4.089  88.542 113.925  0.00  0.00     0.028 C 
ATOM     12  C   LIG d   1       5.144  89.551 113.442  0.00  0.00     0.006 C 
ENDBRANCH   8  11
ENDBRANCH   7   8
ENDBRANCH   1   7
BRANCH   6  13
ATOM     13  N   LIG d   1       5.719  89.349 116.996  0.00  0.00    -0.311 N 
ATOM     14  C   LIG d   1       7.022  89.346 116.717  0.00  0.00     0.210 C 
ATOM     15  C   LIG d   1       7.620  87.964 116.438  0.00  0.00     0.109 C 
ATOM     16  O   LIG d   1       7.745  90.353 116.705  0.00  0.00    -0.276 OA
ATOM     17  H   LIG d   1       5.217  88.483 117.015  0.00  0.00     0.149 HD
ENDBRANCH   6  13
BRANCH   5  18
ATOM     18  N   LIG d   1       6.372  91.350 119.210  0.00  0.00     0.381 N 
ATOM     19  H   LIG d   1       6.644  90.762 119.972  0.00  0.00    -0.090 HD
ATOM     20  H   LIG d   1       6.373  92.302 119.531  0.00  0.00    -0.090 HD
ATOM     21  H   LIG d   1       7.015  91.246 118.455  0.00  0.00    -0.090 HD
ENDBRANCH   5  18
BRANCH   3  22
ATOM     22  C   LIG d   1       1.787  92.730 119.112  0.00  0.00     0.382 C 
ATOM     23  O   LIG d   1       0.599  92.506 118.778  0.00  0.00    -0.241 OA
ATOM     24  O   LIG d   1       2.029  93.592 119.979  0.00  0.00    -0.241 OA
ENDBRANCH   3  22
TORSDOF 7
ENDMDL
MODEL 2
REMARK VINA RESULT:      -4.3      2.200      4.961
REMARK  7 active torsions:
REMARK  status: ('A' for Active; 'I' for Inactive)
REMARK    1  A    between atoms: C_2  and  C_3 
REMARK    2  A    between atoms: C_3  and  O_6 
REMARK    3  A    between atoms: C_3  and  C_4 
REMARK    4  A    between atoms: C_7  and  O_6 
REMARK    5  A    between atoms: C_9  and  C_10 
REMARK    6  A    between atoms: N_15  and  C_14 
REMARK    7  A    between atoms: N_20  and  C_19 
REMARK       I    between atoms: C_22  and  N_20 
ROOT
ATOM      1  C   LIG d   1       3.138  90.986 117.351  0.00  0.00     0.161 C 
ATOM      2  C   LIG d   1       4.454  90.629 117.013  0.00  0.00     0.016 C 
ATOM      3  C   LIG d   1       5.595  91.161 117.657  0.00  0.00     0.038 C 
ATOM      4  C   LIG d   1       5.491  91.977 118.794  0.00  0.00     0.028 C 
ATOM      5  C   LIG d   1       4.186  92.764 118.857  0.00  0.00    -0.047 C 
ATOM      6  C   LIG d   1       3.002  91.790 118.661  0.00  0.00     0.091 C 
ENDROOT
BRANCH   1   7
ATOM      7  O   LIG d   1       2.309  89.808 117.398  0.00  0.00    -0.368 OA
BRANCH   7   8
ATOM      8  C   LIG d   1       2.728  88.700 116.562  0.00  0.00     0.119 C 
BRANCH   8   9
ATOM      9  C   LIG d   1       1.638  88.489 115.494  0.00  0.00     0.028 C 
ATOM     10  C   LIG d   1       1.054  87.066 115.524  0.00  0.00     0.006 C 
ENDBRANCH   8   9
BRANCH   8  11
ATOM     11  C   LIG d   1       2.777  87.392 117.356  0.00  0.00     0.028 C 
ATOM     12  C   LIG d   1       2.868  87.618 118.873  0.00  0.00     0.006 C 
ENDBRANCH   8  11
ENDBRANCH   7   8
ENDBRANCH   1   7
BRANCH   6  13
ATOM     13  N   LIG d   1       1.692  92.490 118.625  0.00  0.00    -0.311 N 
ATOM     14  C   LIG d   1       0.913  92.643 119.694  0.00  0.00     0.210 C 
ATOM     15  C   LIG d   1      -0.406  93.378 119.434  0.00  0.00     0.109 C 
ATOM     16  O   LIG d   1       1.203  92.268 120.840  0.00  0.00    -0.276 OA
ATOM     17  H   LIG d   1       1.393  92.854 117.741  0.00  0.00     0.149 HD
ENDBRANCH   6  13
BRANCH   5  18
ATOM     18  N   LIG d   1       4.150  93.464 120.155  0.00  0.00     0.381 N 
ATOM     19  H   LIG d   1       3.762  92.862 120.854  0.00  0.00    -0.090 HD
ATOM     20  H   LIG d   1       3.560  94.273 120.072  0.00  0.00    -0.090 HD
ATOM     21  H   LIG d   1       5.070  93.741 120.419  0.00  0.00    -0.090 HD
ENDBRANCH   5  18
BRANCH   3  22
ATOM     22  C   LIG d   1       6.856  90.909 117.141  0.00  0.00     0.382 C 
ATOM     23  O   LIG d   1       7.833  91.608 117.502  0.00  0.00    -0.241 OA
ATOM     24  O   LIG d   1       7.022  90.019 116.285  0.00  0.00    -0.241 OA
ENDBRANCH   3  22
TORSDOF 7
ENDMDL
MODEL 3
REMARK VINA RESULT:      -4.2      1.937      2.567
REMARK  7 active torsions:
REMARK  status: ('A' for Active; 'I' for Inactive)
REMARK    1  A    between atoms: C_2  and  C_3 
REMARK    2  A    between atoms: C_3  and  O_6 
REMARK    3  A    between atoms: C_3  and  C_4 
REMARK    4  A    between atoms: C_7  and  O_6 
REMARK    5  A    between atoms: C_9  and  C_10 
REMARK    6  A    between atoms: N_15  and  C_14 
REMARK    7  A    between atoms: N_20  and  C_19 
REMARK       I    between atoms: C_22  and  N_20 
ROOT
ATOM      1  C   LIG d   1       4.473  87.939 116.834  0.00  0.00     0.161 C 
ATOM      2  C   LIG d   1       3.627  89.060 116.811  0.00  0.00     0.016 C 
ATOM      3  C   LIG d   1       4.084  90.385 116.997  0.00  0.00     0.038 C 
ATOM      4  C   LIG d   1       5.450  90.694 117.068  0.00  0.00     0.028 C 
ATOM      5  C   LIG d   1       6.304  89.549 117.601  0.00  0.00    -0.047 C 
ATOM      6  C   LIG d   1       5.981  88.267 116.800  0.00  0.00     0.091 C 
ENDROOT
BRANCH   1   7
ATOM      7  O   LIG d   1       4.130  87.045 115.757  0.00  0.00    -0.368 OA
BRANCH   7   8
ATOM      8  C   LIG d   1       3.204  87.562 114.770  0.00  0.00     0.119 C 
BRANCH   8   9
ATOM      9  C   LIG d   1       2.167  86.458 114.485  0.00  0.00     0.028 C 
ATOM     10  C   LIG d   1       0.887  86.626 115.320  0.00  0.00     0.006 C 
ENDBRANCH   8   9
BRANCH   8  11
ATOM     11  C   LIG d   1       3.902  87.818 113.431  0.00  0.00     0.028 C 
ATOM     12  C   LIG d   1       4.733  89.111 113.430  0.00  0.00     0.006 C 
ENDBRANCH   8  11
ENDBRANCH   7   8
ENDBRANCH   1   7
BRANCH   6  13
ATOM     13  N   LIG d   1       6.711  87.079 117.313  0.00  0.00    -0.311 N 
ATOM     14  C   LIG d   1       7.908  86.703 116.864  0.00  0.00     0.210 C 
ATOM     15  C   LIG d   1       8.475  85.438 117.514  0.00  0.00     0.109 C 
ATOM     16  O   LIG d   1       8.568  87.317 116.011  0.00  0.00    -0.276 OA
ATOM     17  H   LIG d   1       6.262  86.541 118.028  0.00  0.00     0.149 HD
ENDBRANCH   6  13
BRANCH   5  18
ATOM     18  N   LIG d   1       7.717  89.958 117.492  0.00  0.00     0.381 N 
ATOM     19  H   LIG d   1       7.869  90.420 116.618  0.00  0.00    -0.090 HD
ATOM     20  H   LIG d   1       8.296  89.137 117.520  0.00  0.00    -0.090 HD
ATOM     21  H   LIG d   1       7.954  90.566 118.245  0.00  0.00    -0.090 HD
ENDBRANCH   5  18
BRANCH   3  22
ATOM     22  C   LIG d   1       3.167  91.413 117.153  0.00  0.00     0.382 C 
ATOM     23  O   LIG d   1       3.559  92.604 117.179  0.00  0.00    -0.241 OA
ATOM     24  O   LIG d   1       1.957  91.161 117.312  0.00  0.00    -0.241 OA
ENDBRANCH   3  22
TORSDOF 7
ENDMDL
MODEL 4
REMARK VINA RESULT:      -4.2      2.327      4.126
REMARK  7 active torsions:
REMARK  status: ('A' for Active; 'I' for Inactive)
REMARK    1  A    between atoms: C_2  and  C_3 
REMARK    2  A    between atoms: C_3  and  O_6 
REMARK    3  A    between atoms: C_3  and  C_4 
REMARK    4  A    between atoms: C_7  and  O_6 
REMARK    5  A    between atoms: C_9  and  C_10 
REMARK    6  A    between atoms: N_15  and  C_14 
REMARK    7  A    between atoms: N_20  and  C_19 
REMARK       I    between atoms: C_22  and  N_20 
ROOT
ATOM      1  C   LIG d   1       4.965  91.183 117.463  0.00  0.00     0.161 C 
ATOM      2  C   LIG d   1       5.621  92.188 118.192  0.00  0.00     0.016 C 
ATOM      3  C   LIG d   1       4.941  93.173 118.945  0.00  0.00     0.038 C 
ATOM      4  C   LIG d   1       3.553  93.127 119.143  0.00  0.00     0.028 C 
ATOM      5  C   LIG d   1       2.803  92.427 118.015  0.00  0.00    -0.047 C 
ATOM      6  C   LIG d   1       3.456  91.050 117.757  0.00  0.00     0.091 C 
ENDROOT
BRANCH   1   7
ATOM      7  O   LIG d   1       5.629  89.919 117.667  0.00  0.00    -0.368 OA
BRANCH   7   8
ATOM      8  C   LIG d   1       6.662  89.580 116.710  0.00  0.00     0.119 C 
BRANCH   8   9
ATOM      9  C   LIG d   1       6.000  88.758 115.587  0.00  0.00     0.028 C 
ATOM     10  C   LIG d   1       5.825  89.569 114.292  0.00  0.00     0.006 C 
ENDBRANCH   8   9
BRANCH   8  11
ATOM     11  C   LIG d   1       7.710  88.650 117.328  0.00  0.00     0.028 C 
ATOM     12  C   LIG d   1       8.219  87.586 116.343  0.00  0.00     0.006 C 
ENDBRANCH   8  11
ENDBRANCH   7   8
ENDBRANCH   1   7
BRANCH   6  13
ATOM     13  N   LIG d   1       2.836  90.334 116.612  0.00  0.00    -0.311 N 
ATOM     14  C   LIG d   1       2.426  89.068 116.674  0.00  0.00     0.210 C 
ATOM     15  C   LIG d   1       1.834  88.516 115.374  0.00  0.00     0.109 C 
ATOM     16  O   LIG d   1       2.467  88.361 117.691  0.00  0.00    -0.276 OA
ATOM     17  H   LIG d   1       2.736  90.843 115.756  0.00  0.00     0.149 HD
ENDBRANCH   6  13
BRANCH   5  18
ATOM     18  N   LIG d   1       1.386  92.329 118.415  0.00  0.00     0.381 N 
ATOM     19  H   LIG d   1       0.871  93.095 118.029  0.00  0.00    -0.090 HD
ATOM     20  H   LIG d   1       1.327  92.382 119.416  0.00  0.00    -0.090 HD
ATOM     21  H   LIG d   1       1.001  91.466 118.097  0.00  0.00    -0.090 HD
ENDBRANCH   5  18
BRANCH   3  22
ATOM     22  C   LIG d   1       5.647  94.241 119.477  0.00  0.00     0.382 C 
ATOM     23  O   LIG d   1       5.067  95.068 120.221  0.00  0.00    -0.241 OA
ATOM     24  O   LIG d   1       6.846  94.413 119.186  0.00  0.00    -0.241 OA
ENDBRANCH   3  22
TORSDOF 7
ENDMDL
MODEL 5
REMARK VINA RESULT:      -4.1      2.332      4.742
REMARK  7 active torsions:
REMARK  status: ('A' for Active; 'I' for Inactive)
REMARK    1  A    between atoms: C_2  and  C_3 
REMARK    2  A    between atoms: C_3  and  O_6 
REMARK    3  A    between atoms: C_3  and  C_4 
REMARK    4  A    between atoms: C_7  and  O_6 
REMARK    5  A    between atoms: C_9  and  C_10 
REMARK    6  A    between atoms: N_15  and  C_14 
REMARK    7  A    between atoms: N_20  and  C_19 
REMARK       I    between atoms: C_22  and  N_20 
ROOT
ATOM      1  C   LIG d   1       5.535  90.106 116.015  0.00  0.00     0.161 C 
ATOM      2  C   LIG d   1       4.226  89.882 115.556  0.00  0.00     0.016 C 
ATOM      3  C   LIG d   1       3.664  88.593 115.408  0.00  0.00     0.038 C 
ATOM      4  C   LIG d   1       4.325  87.440 115.855  0.00  0.00     0.028 C 
ATOM      5  C   LIG d   1       5.844  87.575 115.857  0.00  0.00    -0.047 C 
ATOM      6  C   LIG d   1       6.232  88.866 116.613  0.00  0.00     0.091 C 
ENDROOT
BRANCH   1   7
ATOM      7  O   LIG d   1       5.540  91.191 116.965  0.00  0.00    -0.368 OA
BRANCH   7   8
ATOM      8  C   LIG d   1       4.383  91.284 117.832  0.00  0.00     0.119 C 
BRANCH   8   9
ATOM      9  C   LIG d   1       3.986  92.771 117.916  0.00  0.00     0.028 C 
ATOM     10  C   LIG d   1       2.744  92.998 118.794  0.00  0.00     0.006 C 
ENDBRANCH   8   9
BRANCH   8  11
ATOM     11  C   LIG d   1       4.729  90.875 119.267  0.00  0.00     0.028 C 
ATOM     12  C   LIG d   1       4.154  89.503 119.651  0.00  0.00     0.006 C 
ENDBRANCH   8  11
ENDBRANCH   7   8
ENDBRANCH   1   7
BRANCH   6  13
ATOM     13  N   LIG d   1       7.696  89.119 116.589  0.00  0.00    -0.311 N 
ATOM     14  C   LIG d   1       8.432  89.271 117.689  0.00  0.00     0.210 C 
ATOM     15  C   LIG d   1       9.919  89.543 117.439  0.00  0.00     0.109 C 
ATOM     16  O   LIG d   1       8.000  89.175 118.847  0.00  0.00    -0.276 OA
ATOM     17  H   LIG d   1       8.134  89.181 115.690  0.00  0.00     0.149 HD
ENDBRANCH   6  13
BRANCH   5  18
ATOM     18  N   LIG d   1       6.400  86.355 116.474  0.00  0.00     0.381 N 
ATOM     19  H   LIG d   1       6.971  86.602 117.258  0.00  0.00    -0.090 HD
ATOM     20  H   LIG d   1       6.976  85.884 115.800  0.00  0.00    -0.090 HD
ATOM     21  H   LIG d   1       5.661  85.755 116.768  0.00  0.00    -0.090 HD
ENDBRANCH   5  18
BRANCH   3  22
ATOM     22  C   LIG d   1       2.442  88.446 114.770  0.00  0.00     0.382 C 
ATOM     23  O   LIG d   1       2.318  87.618 113.836  0.00  0.00    -0.241 OA
ATOM     24  O   LIG d   1       1.473  89.161 115.088  0.00  0.00    -0.241 OA
ENDBRANCH   3  22
TORSDOF 7
ENDMDL
MODEL 6
REMARK VINA RESULT:      -4.0      2.002      4.815
REMARK  7 active torsions:
REMARK  status: ('A' for Active; 'I' for Inactive)
REMARK    1  A    between atoms: C_2  and  C_3 
REMARK    2  A    between atoms: C_3  and  O_6 
REMARK    3  A    between atoms: C_3  and  C_4 
REMARK    4  A    between atoms: C_7  and  O_6 
REMARK    5  A    between atoms: C_9  and  C_10 
REMARK    6  A    between atoms: N_15  and  C_14 
REMARK    7  A    between atoms: N_20  and  C_19 
REMARK       I    between atoms: C_22  and  N_20 
ROOT
ATOM      1  C   LIG d   1       4.525  90.678 117.341  0.00  0.00     0.161 C 
ATOM      2  C   LIG d   1       3.473  90.159 116.568  0.00  0.00     0.016 C 
ATOM      3  C   LIG d   1       3.664  89.232 115.518  0.00  0.00     0.038 C 
ATOM      4  C   LIG d   1       4.911  88.641 115.267  0.00  0.00     0.028 C 
ATOM      5  C   LIG d   1       6.089  89.512 115.691  0.00  0.00    -0.047 C 
ATOM      6  C   LIG d   1       5.879  89.962 117.155  0.00  0.00     0.091 C 
ENDROOT
BRANCH   1   7
ATOM      7  O   LIG d   1       4.151  90.688 118.733  0.00  0.00    -0.368 OA
BRANCH   7   8
ATOM      8  C   LIG d   1       4.196  91.975 119.397  0.00  0.00     0.119 C 
BRANCH   8   9
ATOM      9  C   LIG d   1       2.824  92.203 120.059  0.00  0.00     0.028 C 
ATOM     10  C   LIG d   1       1.798  92.812 119.088  0.00  0.00     0.006 C 
ENDBRANCH   8   9
BRANCH   8  11
ATOM     11  C   LIG d   1       4.355  93.117 118.388  0.00  0.00     0.028 C 
ATOM     12  C   LIG d   1       5.506  94.071 118.745  0.00  0.00     0.006 C 
ENDBRANCH   8  11
ENDBRANCH   7   8
ENDBRANCH   1   7
BRANCH   6  13
ATOM     13  N   LIG d   1       6.945  90.887 117.622  0.00  0.00    -0.311 N 
ATOM     14  C   LIG d   1       7.648  90.692 118.737  0.00  0.00     0.210 C 
ATOM     15  C   LIG d   1       8.685  91.777 119.045  0.00  0.00     0.109 C 
ATOM     16  O   LIG d   1       7.533  89.708 119.482  0.00  0.00    -0.276 OA
ATOM     17  H   LIG d   1       7.126  91.695 117.060  0.00  0.00     0.149 HD
ENDBRANCH   6  13
BRANCH   5  18
ATOM     18  N   LIG d   1       7.319  88.720 115.500  0.00  0.00     0.381 N 
ATOM     19  H   LIG d   1       7.112  87.746 115.590  0.00  0.00    -0.090 HD
ATOM     20  H   LIG d   1       7.980  88.969 116.215  0.00  0.00    -0.090 HD
ATOM     21  H   LIG d   1       7.707  88.904 114.601  0.00  0.00    -0.090 HD
ENDBRANCH   5  18
BRANCH   3  22
ATOM     22  C   LIG d   1       2.605  88.916 114.681  0.00  0.00     0.382 C 
ATOM     23  O   LIG d   1       1.475  88.667 115.165  0.00  0.00    -0.241 OA
ATOM     24  O   LIG d   1       2.776  88.833 113.450  0.00  0.00    -0.241 OA
ENDBRANCH   3  22
TORSDOF 7
ENDMDL
MODEL 7
REMARK VINA RESULT:      -4.0      2.174      3.621
REMARK  7 active torsions:
REMARK  status: ('A' for Active; 'I' for Inactive)
REMARK    1  A    between atoms: C_2  and  C_3 
REMARK    2  A    between atoms: C_3  and  O_6 
REMARK    3  A    between atoms: C_3  and  C_4 
REMARK    4  A    between atoms: C_7  and  O_6 
REMARK    5  A    between atoms: C_9  and  C_10 
REMARK    6  A    between atoms: N_15  and  C_14 
REMARK    7  A    between atoms: N_20  and  C_19 
REMARK       I    between atoms: C_22  and  N_20 
ROOT
ATOM      1  C   LIG d   1       3.124  90.464 116.587  0.00  0.00     0.161 C 
ATOM      2  C   LIG d   1       3.839  91.554 117.110  0.00  0.00     0.016 C 
ATOM      3  C   LIG d   1       4.508  91.519 118.356  0.00  0.00     0.038 C 
ATOM      4  C   LIG d   1       4.634  90.335 119.097  0.00  0.00     0.028 C 
ATOM      5  C   LIG d   1       3.502  89.344 118.852  0.00  0.00    -0.047 C 
ATOM      6  C   LIG d   1       3.343  89.129 117.329  0.00  0.00     0.091 C 
ENDROOT
BRANCH   1   7
ATOM      7  O   LIG d   1       3.422  90.312 115.185  0.00  0.00    -0.368 OA
BRANCH   7   8
ATOM      8  C   LIG d   1       4.357  89.259 114.842  0.00  0.00     0.119 C 
BRANCH   8   9
ATOM      9  C   LIG d   1       5.762  89.889 114.784  0.00  0.00     0.028 C 
ATOM     10  C   LIG d   1       6.669  89.407 115.928  0.00  0.00     0.006 C 
ENDBRANCH   8   9
BRANCH   8  11
ATOM     11  C   LIG d   1       4.095  88.719 113.433  0.00  0.00     0.028 C 
ATOM     12  C   LIG d   1       3.198  87.472 113.430  0.00  0.00     0.006 C 
ENDBRANCH   8  11
ENDBRANCH   7   8
ENDBRANCH   1   7
BRANCH   6  13
ATOM     13  N   LIG d   1       2.202  88.237 116.998  0.00  0.00    -0.311 N 
ATOM     14  C   LIG d   1       2.325  86.922 116.823  0.00  0.00     0.210 C 
ATOM     15  C   LIG d   1       1.026  86.192 116.468  0.00  0.00     0.109 C 
ATOM     16  O   LIG d   1       3.381  86.287 116.960  0.00  0.00    -0.276 OA
ATOM     17  H   LIG d   1       1.302  88.665 116.899  0.00  0.00     0.149 HD
ENDBRANCH   6  13
BRANCH   5  18
ATOM     18  N   LIG d   1       3.831  88.103 119.579  0.00  0.00     0.381 N 
ATOM     19  H   LIG d   1       4.035  88.315 120.535  0.00  0.00    -0.090 HD
ATOM     20  H   LIG d   1       4.649  87.691 119.166  0.00  0.00    -0.090 HD
ATOM     21  H   LIG d   1       3.067  87.466 119.529  0.00  0.00    -0.090 HD
ENDBRANCH   5  18
BRANCH   3  22
ATOM     22  C   LIG d   1       5.026  92.689 118.890  0.00  0.00     0.382 C 
ATOM     23  O   LIG d   1       4.254  93.618 119.231  0.00  0.00    -0.241 OA
ATOM     24  O   LIG d   1       6.257  92.846 118.994  0.00  0.00    -0.241 OA
ENDBRANCH   3  22
TORSDOF 7
ENDMDL
MODEL 8
REMARK VINA RESULT:      -4.0      2.538      4.499
REMARK  7 active torsions:
REMARK  status: ('A' for Active; 'I' for Inactive)
REMARK    1  A    between atoms: C_2  and  C_3 
REMARK    2  A    between atoms: C_3  and  O_6 
REMARK    3  A    between atoms: C_3  and  C_4 
REMARK    4  A    between atoms: C_7  and  O_6 
REMARK    5  A    between atoms: C_9  and  C_10 
REMARK    6  A    between atoms: N_15  and  C_14 
REMARK    7  A    between atoms: N_20  and  C_19 
REMARK       I    between atoms: C_22  and  N_20 
ROOT
ATOM      1  C   LIG d   1       4.330  88.466 118.050  0.00  0.00     0.161 C 
ATOM      2  C   LIG d   1       3.476  87.700 117.239  0.00  0.00     0.016 C 
ATOM      3  C   LIG d   1       2.422  88.254 116.477  0.00  0.00     0.038 C 
ATOM      4  C   LIG d   1       2.244  89.641 116.356  0.00  0.00     0.028 C 
ATOM      5  C   LIG d   1       2.766  90.425 117.555  0.00  0.00    -0.047 C 
ATOM      6  C   LIG d   1       4.221  89.992 117.844  0.00  0.00     0.091 C 
ENDROOT
BRANCH   1   7
ATOM      7  O   LIG d   1       5.693  88.033 117.872  0.00  0.00    -0.368 OA
BRANCH   7   8
ATOM      8  C   LIG d   1       6.051  87.588 116.540  0.00  0.00     0.119 C 
BRANCH   8   9
ATOM      9  C   LIG d   1       7.067  86.439 116.694  0.00  0.00     0.028 C 
ATOM     10  C   LIG d   1       8.512  86.895 116.429  0.00  0.00     0.006 C 
ENDBRANCH   8   9
BRANCH   8  11
ATOM     11  C   LIG d   1       6.791  88.683 115.767  0.00  0.00     0.028 C 
ATOM     12  C   LIG d   1       5.935  89.309 114.654  0.00  0.00     0.006 C 
ENDBRANCH   8  11
ENDBRANCH   7   8
ENDBRANCH   1   7
BRANCH   6  13
ATOM     13  N   LIG d   1       4.779  90.650 119.054  0.00  0.00    -0.311 N 
ATOM     14  C   LIG d   1       5.926  91.327 119.057  0.00  0.00     0.210 C 
ATOM     15  C   LIG d   1       6.329  91.910 120.415  0.00  0.00     0.109 C 
ATOM     16  O   LIG d   1       6.631  91.528 118.057  0.00  0.00    -0.276 OA
ATOM     17  H   LIG d   1       4.255  90.564 119.903  0.00  0.00     0.149 HD
ENDBRANCH   6  13
BRANCH   5  18
ATOM     18  N   LIG d   1       2.642  91.860 117.236  0.00  0.00     0.381 N 
ATOM     19  H   LIG d   1       1.833  92.239 117.686  0.00  0.00    -0.090 HD
ATOM     20  H   LIG d   1       2.529  91.964 116.243  0.00  0.00    -0.090 HD
ATOM     21  H   LIG d   1       3.457  92.348 117.538  0.00  0.00    -0.090 HD
ENDBRANCH   5  18
BRANCH   3  22
ATOM     22  C   LIG d   1       1.508  87.416 115.857  0.00  0.00     0.382 C 
ATOM     23  O   LIG d   1       0.912  86.537 116.524  0.00  0.00    -0.241 OA
ATOM     24  O   LIG d   1       1.304  87.500 114.631  0.00  0.00    -0.241 OA
ENDBRANCH   3  22
TORSDOF 7
ENDMDL
MODEL 9
REMARK VINA RESULT:      -3.9      3.045      5.889
REMARK  7 active torsions:
REMARK  status: ('A' for Active; 'I' for Inactive)
REMARK    1  A    between atoms: C_2  and  C_3 
REMARK    2  A    between atoms: C_3  and  O_6 
REMARK    3  A    between atoms: C_3  and  C_4 
REMARK    4  A    between atoms: C_7  and  O_6 
REMARK    5  A    between atoms: C_9  and  C_10 
REMARK    6  A    between atoms: N_15  and  C_14 
REMARK    7  A    between atoms: N_20  and  C_19 
REMARK       I    between atoms: C_22  and  N_20 
ROOT
ATOM      1  C   LIG d   1       2.661  88.350 117.186  0.00  0.00     0.161 C 
ATOM      2  C   LIG d   1       1.845  87.327 116.675  0.00  0.00     0.016 C 
ATOM      3  C   LIG d   1       1.674  87.084 115.293  0.00  0.00     0.038 C 
ATOM      4  C   LIG d   1       2.432  87.757 114.323  0.00  0.00     0.028 C 
ATOM      5  C   LIG d   1       2.893  89.141 114.767  0.00  0.00    -0.047 C 
ATOM      6  C   LIG d   1       3.582  89.022 116.146  0.00  0.00     0.091 C 
ENDROOT
BRANCH   1   7
ATOM      7  O   LIG d   1       3.437  87.850 118.293  0.00  0.00    -0.368 OA
BRANCH   7   8
ATOM      8  C   LIG d   1       3.104  88.384 119.597  0.00  0.00     0.119 C 
BRANCH   8   9
ATOM      9  C   LIG d   1       4.320  89.191 120.091  0.00  0.00     0.028 C 
ATOM     10  C   LIG d   1       5.642  88.689 119.487  0.00  0.00     0.006 C 
ENDBRANCH   8   9
BRANCH   8  11
ATOM     11  C   LIG d   1       2.915  87.265 120.626  0.00  0.00     0.028 C 
ATOM     12  C   LIG d   1       2.382  85.966 120.002  0.00  0.00     0.006 C 
ENDBRANCH   8  11
ENDBRANCH   7   8
ENDBRANCH   1   7
BRANCH   6  13
ATOM     13  N   LIG d   1       3.988  90.343 116.692  0.00  0.00    -0.311 N 
ATOM     14  C   LIG d   1       3.121  91.251 117.137  0.00  0.00     0.210 C 
ATOM     15  C   LIG d   1       3.750  92.554 117.640  0.00  0.00     0.109 C 
ATOM     16  O   LIG d   1       1.893  91.087 117.194  0.00  0.00    -0.276 OA
ATOM     17  H   LIG d   1       4.969  90.546 116.713  0.00  0.00     0.149 HD
ENDBRANCH   6  13
BRANCH   5  18
ATOM     18  N   LIG d   1       3.785  89.671 113.719  0.00  0.00     0.381 N 
ATOM     19  H   LIG d   1       4.231  88.915 113.238  0.00  0.00    -0.090 HD
ATOM     20  H   LIG d   1       4.497  90.233 114.151  0.00  0.00    -0.090 HD
ATOM     21  H   LIG d   1       3.264  90.223 113.074  0.00  0.00    -0.090 HD
ENDBRANCH   5  18
BRANCH   3  22
ATOM     22  C   LIG d   1       0.707  86.186 114.867  0.00  0.00     0.382 C 
ATOM     23  O   LIG d   1       0.440  86.086 113.645  0.00  0.00    -0.241 OA
ATOM     24  O   LIG d   1       0.068  85.507 115.693  0.00  0.00    -0.241 OA
ENDBRANCH   3  22
TORSDOF 7
ENDMDL
