MODEL 1
REMARK VINA RESULT:      -5.5      0.000      0.000
REMARK  7 active torsions:
REMARK  status: ('A' for Active; 'I' for Inactive)
REMARK    1  A    between atoms: C_2  and  C_3 
REMARK    2  A    between atoms: C_3  and  O_6 
REMARK    3  A    between atoms: C_3  and  C_4 
REMARK    4  A    between atoms: C_7  and  O_6 
REMARK    5  A    between atoms: C_9  and  C_10 
REMARK    6  A    between atoms: N_15  and  C_14 
REMARK    7  A    between atoms: N_20  and  C_19 
REMARK       I    between atoms: C_22  and  N_20 
ROOT
ATOM      1  C   LIG d   1      -5.386  92.571 117.876  0.00  0.00     0.161 C 
ATOM      2  C   LIG d   1      -6.370  91.739 117.317  0.00  0.00     0.016 C 
ATOM      3  C   LIG d   1      -6.075  90.655 116.458  0.00  0.00     0.038 C 
ATOM      4  C   LIG d   1      -4.758  90.234 116.220  0.00  0.00     0.028 C 
ATOM      5  C   LIG d   1      -3.731  91.352 116.359  0.00  0.00    -0.047 C 
ATOM      6  C   LIG d   1      -3.939  92.059 117.717  0.00  0.00     0.091 C 
ENDROOT
BRANCH   1   7
ATOM      7  O   LIG d   1      -5.683  92.811 119.266  0.00  0.00    -0.368 OA
BRANCH   7   8
ATOM      8  C   LIG d   1      -6.141  94.145 119.599  0.00  0.00     0.119 C 
BRANCH   8   9
ATOM      9  C   LIG d   1      -5.137  94.743 120.603  0.00  0.00     0.028 C 
ATOM     10  C   LIG d   1      -4.317  95.894 119.998  0.00  0.00     0.006 C 
ENDBRANCH   8   9
BRANCH   8  11
ATOM     11  C   LIG d   1      -7.481  94.105 120.340  0.00  0.00     0.028 C 
ATOM     12  C   LIG d   1      -8.689  94.155 119.390  0.00  0.00     0.006 C 
ENDBRANCH   8  11
ENDBRANCH   7   8
ENDBRANCH   1   7
BRANCH   6  13
ATOM     13  N   LIG d   1      -3.029  93.221 117.897  0.00  0.00    -0.311 N 
ATOM     14  C   LIG d   1      -1.857  93.143 118.525  0.00  0.00     0.210 C 
ATOM     15  C   LIG d   1      -1.085  94.463 118.618  0.00  0.00     0.109 C 
ATOM     16  O   LIG d   1      -1.370  92.101 118.987  0.00  0.00    -0.276 OA
ATOM     17  H   LIG d   1      -3.332  94.100 117.526  0.00  0.00     0.149 HD
ENDBRANCH   6  13
BRANCH   5  18
ATOM     18  N   LIG d   1      -2.392  90.747 116.221  0.00  0.00     0.381 N 
ATOM     19  H   LIG d   1      -1.873  90.877 117.066  0.00  0.00    -0.090 HD
ATOM     20  H   LIG d   1      -1.902  91.209 115.476  0.00  0.00    -0.090 HD
ATOM     21  H   LIG d   1      -2.477  89.775 116.020  0.00  0.00    -0.090 HD
ENDBRANCH   5  18
BRANCH   3  22
ATOM     22  C   LIG d   1      -7.104  90.004 115.795  0.00  0.00     0.382 C 
ATOM     23  O   LIG d   1      -7.966  89.367 116.448  0.00  0.00    -0.241 OA
ATOM     24  O   LIG d   1      -7.157  90.008 114.551  0.00  0.00    -0.241 OA
ENDBRANCH   3  22
TORSDOF 7
ENDMDL
MODEL 2
REMARK VINA RESULT:      -5.1      2.340      4.669
REMARK  7 active torsions:
REMARK  status: ('A' for Active; 'I' for Inactive)
REMARK    1  A    between atoms: C_2  and  C_3 
REMARK    2  A    between atoms: C_3  and  O_6 
REMARK    3  A    between atoms: C_3  and  C_4 
REMARK    4  A    between atoms: C_7  and  O_6 
REMARK    5  A    between atoms: C_9  and  C_10 
REMARK    6  A    between atoms: N_15  and  C_14 
REMARK    7  A    between atoms: N_20  and  C_19 
REMARK       I    between atoms: C_22  and  N_20 
ROOT
ATOM      1  C   LIG d   1      -4.087  90.795 117.502  0.00  0.00     0.161 C 
ATOM      2  C   LIG d   1      -5.038  90.164 116.683  0.00  0.00     0.016 C 
ATOM      3  C   LIG d   1      -6.273  90.754 116.327  0.00  0.00     0.038 C 
ATOM      4  C   LIG d   1      -6.577  92.086 116.646  0.00  0.00     0.028 C 
ATOM      5  C   LIG d   1      -5.865  92.587 117.898  0.00  0.00    -0.047 C 
ATOM      6  C   LIG d   1      -4.353  92.292 117.768  0.00  0.00     0.091 C 
ENDROOT
BRANCH   1   7
ATOM      7  O   LIG d   1      -2.768  90.611 116.951  0.00  0.00    -0.368 OA
BRANCH   7   8
ATOM      8  C   LIG d   1      -2.014  89.486 117.464  0.00  0.00     0.119 C 
BRANCH   8   9
ATOM      9  C   LIG d   1      -2.229  89.442 118.989  0.00  0.00     0.028 C 
ATOM     10  C   LIG d   1      -2.556  88.027 119.495  0.00  0.00     0.006 C 
ENDBRANCH   8   9
BRANCH   8  11
ATOM     11  C   LIG d   1      -0.508  89.690 117.272  0.00  0.00     0.028 C 
ATOM     12  C   LIG d   1       0.224  88.395 116.887  0.00  0.00     0.006 C 
ENDBRANCH   8  11
ENDBRANCH   7   8
ENDBRANCH   1   7
BRANCH   6  13
ATOM     13  N   LIG d   1      -3.594  92.674 118.986  0.00  0.00    -0.311 N 
ATOM     14  C   LIG d   1      -2.404  93.273 118.951  0.00  0.00     0.210 C 
ATOM     15  C   LIG d   1      -1.785  93.562 120.323  0.00  0.00     0.109 C 
ATOM     16  O   LIG d   1      -1.818  93.622 117.916  0.00  0.00    -0.276 OA
ATOM     17  H   LIG d   1      -4.010  92.457 119.871  0.00  0.00     0.149 HD
ENDBRANCH   6  13
BRANCH   5  18
ATOM     18  N   LIG d   1      -6.163  94.025 118.035  0.00  0.00     0.381 N 
ATOM     19  H   LIG d   1      -6.650  94.190 118.893  0.00  0.00    -0.090 HD
ATOM     20  H   LIG d   1      -6.758  94.308 117.276  0.00  0.00    -0.090 HD
ATOM     21  H   LIG d   1      -5.318  94.552 118.017  0.00  0.00    -0.090 HD
ENDBRANCH   5  18
BRANCH   3  22
ATOM     22  C   LIG d   1      -7.235  89.996 115.679  0.00  0.00     0.382 C 
ATOM     23  O   LIG d   1      -7.313  90.019 114.427  0.00  0.00    -0.241 OA
ATOM     24  O   LIG d   1      -8.055  89.323 116.332  0.00  0.00    -0.241 OA
ENDBRANCH   3  22
TORSDOF 7
ENDMDL
MODEL 3
REMARK VINA RESULT:      -5.1      2.358      4.156
REMARK  7 active torsions:
REMARK  status: ('A' for Active; 'I' for Inactive)
REMARK    1  A    between atoms: C_2  and  C_3 
REMARK    2  A    between atoms: C_3  and  O_6 
REMARK    3  A    between atoms: C_3  and  C_4 
REMARK    4  A    between atoms: C_7  and  O_6 
REMARK    5  A    between atoms: C_9  and  C_10 
REMARK    6  A    between atoms: N_15  and  C_14 
REMARK    7  A    between atoms: N_20  and  C_19 
REMARK       I    between atoms: C_22  and  N_20 
ROOT
ATOM      1  C   LIG d   1      -5.479  91.487 118.972  0.00  0.00     0.161 C 
ATOM      2  C   LIG d   1      -4.622  90.681 118.206  0.00  0.00     0.016 C 
ATOM      3  C   LIG d   1      -4.745  90.525 116.806  0.00  0.00     0.038 C 
ATOM      4  C   LIG d   1      -5.648  91.289 116.051  0.00  0.00     0.028 C 
ATOM      5  C   LIG d   1      -6.870  91.739 116.844  0.00  0.00    -0.047 C 
ATOM      6  C   LIG d   1      -6.400  92.415 118.152  0.00  0.00     0.091 C 
ENDROOT
BRANCH   1   7
ATOM      7  O   LIG d   1      -4.711  92.254 119.920  0.00  0.00    -0.368 OA
BRANCH   7   8
ATOM      8  C   LIG d   1      -4.206  93.528 119.450  0.00  0.00     0.119 C 
BRANCH   8   9
ATOM      9  C   LIG d   1      -2.668  93.468 119.513  0.00  0.00     0.028 C 
ATOM     10  C   LIG d   1      -2.031  93.266 118.128  0.00  0.00     0.006 C 
ENDBRANCH   8   9
BRANCH   8  11
ATOM     11  C   LIG d   1      -4.607  94.668 120.390  0.00  0.00     0.028 C 
ATOM     12  C   LIG d   1      -4.849  95.993 119.651  0.00  0.00     0.006 C 
ENDBRANCH   8  11
ENDBRANCH   7   8
ENDBRANCH   1   7
BRANCH   6  13
ATOM     13  N   LIG d   1      -7.535  92.809 119.026  0.00  0.00    -0.311 N 
ATOM     14  C   LIG d   1      -8.129  94.000 118.964  0.00  0.00     0.210 C 
ATOM     15  C   LIG d   1      -9.266  94.209 119.969  0.00  0.00     0.109 C 
ATOM     16  O   LIG d   1      -7.843  94.891 118.150  0.00  0.00    -0.276 OA
ATOM     17  H   LIG d   1      -7.852  92.135 119.695  0.00  0.00     0.149 HD
ENDBRANCH   6  13
BRANCH   5  18
ATOM     18  N   LIG d   1      -7.656  92.639 115.978  0.00  0.00     0.381 N 
ATOM     19  H   LIG d   1      -8.104  93.339 116.536  0.00  0.00    -0.090 HD
ATOM     20  H   LIG d   1      -8.367  92.103 115.513  0.00  0.00    -0.090 HD
ATOM     21  H   LIG d   1      -7.061  93.070 115.306  0.00  0.00    -0.090 HD
ENDBRANCH   5  18
BRANCH   3  22
ATOM     22  C   LIG d   1      -3.986  89.566 116.152  0.00  0.00     0.382 C 
ATOM     23  O   LIG d   1      -4.383  89.090 115.061  0.00  0.00    -0.241 OA
ATOM     24  O   LIG d   1      -2.932  89.140 116.660  0.00  0.00    -0.241 OA
ENDBRANCH   3  22
TORSDOF 7
ENDMDL
MODEL 4
REMARK VINA RESULT:      -5.1      1.854      4.829
REMARK  7 active torsions:
REMARK  status: ('A' for Active; 'I' for Inactive)
REMARK    1  A    between atoms: C_2  and  C_3 
REMARK    2  A    between atoms: C_3  and  O_6 
REMARK    3  A    between atoms: C_3  and  C_4 
REMARK    4  A    between atoms: C_7  and  O_6 
REMARK    5  A    between atoms: C_9  and  C_10 
REMARK    6  A    between atoms: N_15  and  C_14 
REMARK    7  A    between atoms: N_20  and  C_19 
REMARK       I    between atoms: C_22  and  N_20 
ROOT
ATOM      1  C   LIG d   1      -5.648  91.783 118.789  0.00  0.00     0.161 C 
ATOM      2  C   LIG d   1      -6.920  92.352 118.964  0.00  0.00     0.016 C 
ATOM      3  C   LIG d   1      -7.127  93.719 119.261  0.00  0.00     0.038 C 
ATOM      4  C   LIG d   1      -6.074  94.646 119.255  0.00  0.00     0.028 C 
ATOM      5  C   LIG d   1      -4.720  94.027 119.582  0.00  0.00    -0.047 C 
ATOM      6  C   LIG d   1      -4.495  92.801 118.669  0.00  0.00     0.091 C 
ENDROOT
BRANCH   1   7
ATOM      7  O   LIG d   1      -5.659  90.901 117.649  0.00  0.00    -0.368 OA
BRANCH   7   8
ATOM      8  C   LIG d   1      -5.292  91.496 116.380  0.00  0.00     0.119 C 
BRANCH   8   9
ATOM      9  C   LIG d   1      -6.568  91.573 115.518  0.00  0.00     0.028 C 
ATOM     10  C   LIG d   1      -7.353  90.251 115.513  0.00  0.00     0.006 C 
ENDBRANCH   8   9
BRANCH   8  11
ATOM     11  C   LIG d   1      -4.330  90.596 115.600  0.00  0.00     0.028 C 
ATOM     12  C   LIG d   1      -3.709  89.492 116.471  0.00  0.00     0.006 C 
ENDBRANCH   8  11
ENDBRANCH   7   8
ENDBRANCH   1   7
BRANCH   6  13
ATOM     13  N   LIG d   1      -3.230  92.086 118.981  0.00  0.00    -0.311 N 
ATOM     14  C   LIG d   1      -2.098  92.267 118.302  0.00  0.00     0.210 C 
ATOM     15  C   LIG d   1      -0.916  91.416 118.775  0.00  0.00     0.109 C 
ATOM     16  O   LIG d   1      -1.953  93.076 117.373  0.00  0.00    -0.276 OA
ATOM     17  H   LIG d   1      -3.250  91.434 119.741  0.00  0.00     0.149 HD
ENDBRANCH   6  13
BRANCH   5  18
ATOM     18  N   LIG d   1      -3.697  95.075 119.406  0.00  0.00     0.381 N 
ATOM     19  H   LIG d   1      -3.396  95.098 118.451  0.00  0.00    -0.090 HD
ATOM     20  H   LIG d   1      -2.903  94.854 119.981  0.00  0.00    -0.090 HD
ATOM     21  H   LIG d   1      -4.068  95.962 119.666  0.00  0.00    -0.090 HD
ENDBRANCH   5  18
BRANCH   3  22
ATOM     22  C   LIG d   1      -8.394  94.163 119.608  0.00  0.00     0.382 C 
ATOM     23  O   LIG d   1      -9.405  93.503 119.266  0.00  0.00    -0.241 OA
ATOM     24  O   LIG d   1      -8.541  95.237 120.222  0.00  0.00    -0.241 OA
ENDBRANCH   3  22
TORSDOF 7
ENDMDL
MODEL 5
REMARK VINA RESULT:      -4.8      2.473      5.845
REMARK  7 active torsions:
REMARK  status: ('A' for Active; 'I' for Inactive)
REMARK    1  A    between atoms: C_2  and  C_3 
REMARK    2  A    between atoms: C_3  and  O_6 
REMARK    3  A    between atoms: C_3  and  C_4 
REMARK    4  A    between atoms: C_7  and  O_6 
REMARK    5  A    between atoms: C_9  and  C_10 
REMARK    6  A    between atoms: N_15  and  C_14 
REMARK    7  A    between atoms: N_20  and  C_19 
REMARK       I    between atoms: C_22  and  N_20 
ROOT
ATOM      1  C   LIG d   1      -3.231  92.037 117.042  0.00  0.00     0.161 C 
ATOM      2  C   LIG d   1      -1.990  91.433 117.306  0.00  0.00     0.016 C 
ATOM      3  C   LIG d   1      -1.584  91.019 118.595  0.00  0.00     0.038 C 
ATOM      4  C   LIG d   1      -2.460  91.042 119.691  0.00  0.00     0.028 C 
ATOM      5  C   LIG d   1      -3.544  92.108 119.577  0.00  0.00    -0.047 C 
ATOM      6  C   LIG d   1      -4.243  91.969 118.205  0.00  0.00     0.091 C 
ENDROOT
BRANCH   1   7
ATOM      7  O   LIG d   1      -3.804  91.473 115.846  0.00  0.00    -0.368 OA
BRANCH   7   8
ATOM      8  C   LIG d   1      -4.681  90.336 116.034  0.00  0.00     0.119 C 
BRANCH   8   9
ATOM      9  C   LIG d   1      -3.910  89.078 115.589  0.00  0.00     0.028 C 
ATOM     10  C   LIG d   1      -4.323  88.602 114.186  0.00  0.00     0.006 C 
ENDBRANCH   8   9
BRANCH   8  11
ATOM     11  C   LIG d   1      -5.900  90.413 115.109  0.00  0.00     0.028 C 
ATOM     12  C   LIG d   1      -6.144  91.828 114.562  0.00  0.00     0.006 C 
ENDBRANCH   8  11
ENDBRANCH   7   8
ENDBRANCH   1   7
BRANCH   6  13
ATOM     13  N   LIG d   1      -5.261  93.027 117.978  0.00  0.00    -0.311 N 
ATOM     14  C   LIG d   1      -6.573  92.806 118.031  0.00  0.00     0.210 C 
ATOM     15  C   LIG d   1      -7.448  94.031 117.746  0.00  0.00     0.109 C 
ATOM     16  O   LIG d   1      -7.096  91.719 118.320  0.00  0.00    -0.276 OA
ATOM     17  H   LIG d   1      -4.924  93.947 117.768  0.00  0.00     0.149 HD
ENDBRANCH   6  13
BRANCH   5  18
ATOM     18  N   LIG d   1      -4.465  91.930 120.715  0.00  0.00     0.381 N 
ATOM     19  H   LIG d   1      -4.304  92.645 121.397  0.00  0.00    -0.090 HD
ATOM     20  H   LIG d   1      -4.284  91.039 121.144  0.00  0.00    -0.090 HD
ATOM     21  H   LIG d   1      -5.409  91.969 120.400  0.00  0.00    -0.090 HD
ENDBRANCH   5  18
BRANCH   3  22
ATOM     22  C   LIG d   1      -0.276  90.611 118.806  0.00  0.00     0.382 C 
ATOM     23  O   LIG d   1      -0.012  89.804 119.730  0.00  0.00    -0.241 OA
ATOM     24  O   LIG d   1       0.650  91.074 118.113  0.00  0.00    -0.241 OA
ENDBRANCH   3  22
TORSDOF 7
ENDMDL
MODEL 6
REMARK VINA RESULT:      -4.7      3.734      5.960
REMARK  7 active torsions:
REMARK  status: ('A' for Active; 'I' for Inactive)
REMARK    1  A    between atoms: C_2  and  C_3 
REMARK    2  A    between atoms: C_3  and  O_6 
REMARK    3  A    between atoms: C_3  and  C_4 
REMARK    4  A    between atoms: C_7  and  O_6 
REMARK    5  A    between atoms: C_9  and  C_10 
REMARK    6  A    between atoms: N_15  and  C_14 
REMARK    7  A    between atoms: N_20  and  C_19 
REMARK       I    between atoms: C_22  and  N_20 
ROOT
ATOM      1  C   LIG d   1      -1.750  89.619 117.548  0.00  0.00     0.161 C 
ATOM      2  C   LIG d   1      -2.966  89.341 116.901  0.00  0.00     0.016 C 
ATOM      3  C   LIG d   1      -3.853  90.344 116.447  0.00  0.00     0.038 C 
ATOM      4  C   LIG d   1      -3.510  91.704 116.473  0.00  0.00     0.028 C 
ATOM      5  C   LIG d   1      -2.516  92.057 117.574  0.00  0.00    -0.047 C 
ATOM      6  C   LIG d   1      -1.308  91.096 117.486  0.00  0.00     0.091 C 
ENDROOT
BRANCH   1   7
ATOM      7  O   LIG d   1      -0.714  88.763 117.028  0.00  0.00    -0.368 OA
BRANCH   7   8
ATOM      8  C   LIG d   1       0.162  88.154 118.009  0.00  0.00     0.119 C 
BRANCH   8   9
ATOM      9  C   LIG d   1       1.037  87.123 117.271  0.00  0.00     0.028 C 
ATOM     10  C   LIG d   1       1.063  87.355 115.751  0.00  0.00     0.006 C 
ENDBRANCH   8   9
BRANCH   8  11
ATOM     11  C   LIG d   1      -0.633  87.348 119.040  0.00  0.00     0.028 C 
ATOM     12  C   LIG d   1      -0.010  85.973 119.330  0.00  0.00     0.006 C 
ENDBRANCH   8  11
ENDBRANCH   7   8
ENDBRANCH   1   7
BRANCH   6  13
ATOM     13  N   LIG d   1      -0.327  91.318 118.580  0.00  0.00    -0.311 N 
ATOM     14  C   LIG d   1       0.745  92.099 118.456  0.00  0.00     0.210 C 
ATOM     15  C   LIG d   1       1.638  92.173 119.699  0.00  0.00     0.109 C 
ATOM     16  O   LIG d   1       1.023  92.764 117.447  0.00  0.00    -0.276 OA
ATOM     17  H   LIG d   1      -0.492  90.841 119.445  0.00  0.00     0.149 HD
ENDBRANCH   6  13
BRANCH   5  18
ATOM     18  N   LIG d   1      -2.142  93.473 117.400  0.00  0.00     0.381 N 
ATOM     19  H   LIG d   1      -2.238  93.958 118.270  0.00  0.00    -0.090 HD
ATOM     20  H   LIG d   1      -2.765  93.894 116.734  0.00  0.00    -0.090 HD
ATOM     21  H   LIG d   1      -1.203  93.540 117.076  0.00  0.00    -0.090 HD
ENDBRANCH   5  18
BRANCH   3  22
ATOM     22  C   LIG d   1      -5.116  89.991 115.995  0.00  0.00     0.382 C 
ATOM     23  O   LIG d   1      -6.120  90.194 116.719  0.00  0.00    -0.241 OA
ATOM     24  O   LIG d   1      -5.258  89.434 114.890  0.00  0.00    -0.241 OA
ENDBRANCH   3  22
TORSDOF 7
ENDMDL
MODEL 7
REMARK VINA RESULT:      -4.5      1.909      4.880
REMARK  7 active torsions:
REMARK  status: ('A' for Active; 'I' for Inactive)
REMARK    1  A    between atoms: C_2  and  C_3 
REMARK    2  A    between atoms: C_3  and  O_6 
REMARK    3  A    between atoms: C_3  and  C_4 
REMARK    4  A    between atoms: C_7  and  O_6 
REMARK    5  A    between atoms: C_9  and  C_10 
REMARK    6  A    between atoms: N_15  and  C_14 
REMARK    7  A    between atoms: N_20  and  C_19 
REMARK       I    between atoms: C_22  and  N_20 
ROOT
ATOM      1  C   LIG d   1      -5.486  92.634 118.237  0.00  0.00     0.161 C 
ATOM      2  C   LIG d   1      -4.654  93.194 119.221  0.00  0.00     0.016 C 
ATOM      3  C   LIG d   1      -3.243  93.103 119.190  0.00  0.00     0.038 C 
ATOM      4  C   LIG d   1      -2.558  92.573 118.086  0.00  0.00     0.028 C 
ATOM      5  C   LIG d   1      -3.371  91.545 117.305  0.00  0.00    -0.047 C 
ATOM      6  C   LIG d   1      -4.754  92.149 116.969  0.00  0.00     0.091 C 
ENDROOT
BRANCH   1   7
ATOM      7  O   LIG d   1      -6.526  93.569 117.888  0.00  0.00    -0.368 OA
BRANCH   7   8
ATOM      8  C   LIG d   1      -7.091  94.332 118.983  0.00  0.00     0.119 C 
BRANCH   8   9
ATOM      9  C   LIG d   1      -8.470  93.726 119.307  0.00  0.00     0.028 C 
ATOM     10  C   LIG d   1      -9.185  94.469 120.448  0.00  0.00     0.006 C 
ENDBRANCH   8   9
BRANCH   8  11
ATOM     11  C   LIG d   1      -7.371  95.779 118.567  0.00  0.00     0.028 C 
ATOM     12  C   LIG d   1      -6.162  96.704 118.777  0.00  0.00     0.006 C 
ENDBRANCH   8  11
ENDBRANCH   7   8
ENDBRANCH   1   7
BRANCH   6  13
ATOM     13  N   LIG d   1      -5.643  91.179 116.279  0.00  0.00    -0.311 N 
ATOM     14  C   LIG d   1      -6.214  91.418 115.100  0.00  0.00     0.210 C 
ATOM     15  C   LIG d   1      -7.111  90.292 114.575  0.00  0.00     0.109 C 
ATOM     16  O   LIG d   1      -6.038  92.443 114.423  0.00  0.00    -0.276 OA
ATOM     17  H   LIG d   1      -5.816  90.308 116.743  0.00  0.00     0.149 HD
ENDBRANCH   6  13
BRANCH   5  18
ATOM     18  N   LIG d   1      -2.593  91.178 116.107  0.00  0.00     0.381 N 
ATOM     19  H   LIG d   1      -2.481  90.185 116.066  0.00  0.00    -0.090 HD
ATOM     20  H   LIG d   1      -1.681  91.596 116.171  0.00  0.00    -0.090 HD
ATOM     21  H   LIG d   1      -3.058  91.501 115.287  0.00  0.00    -0.090 HD
ENDBRANCH   5  18
BRANCH   3  22
ATOM     22  C   LIG d   1      -2.504  93.510 120.290  0.00  0.00     0.382 C 
ATOM     23  O   LIG d   1      -2.485  94.720 120.620  0.00  0.00    -0.241 OA
ATOM     24  O   LIG d   1      -1.820  92.689 120.930  0.00  0.00    -0.241 OA
ENDBRANCH   3  22
TORSDOF 7
ENDMDL
MODEL 8
REMARK VINA RESULT:      -4.4      2.104      4.844
REMARK  7 active torsions:
REMARK  status: ('A' for Active; 'I' for Inactive)
REMARK    1  A    between atoms: C_2  and  C_3 
REMARK    2  A    between atoms: C_3  and  O_6 
REMARK    3  A    between atoms: C_3  and  C_4 
REMARK    4  A    between atoms: C_7  and  O_6 
REMARK    5  A    between atoms: C_9  and  C_10 
REMARK    6  A    between atoms: N_15  and  C_14 
REMARK    7  A    between atoms: N_20  and  C_19 
REMARK       I    between atoms: C_22  and  N_20 
ROOT
ATOM      1  C   LIG d   1      -4.530  91.348 118.458  0.00  0.00     0.161 C 
ATOM      2  C   LIG d   1      -3.468  91.359 119.377  0.00  0.00     0.016 C 
ATOM      3  C   LIG d   1      -2.295  90.587 119.221  0.00  0.00     0.038 C 
ATOM      4  C   LIG d   1      -2.037  89.860 118.049  0.00  0.00     0.028 C 
ATOM      5  C   LIG d   1      -3.301  89.419 117.319  0.00  0.00    -0.047 C 
ATOM      6  C   LIG d   1      -4.219  90.646 117.119  0.00  0.00     0.091 C 
ENDROOT
BRANCH   1   7
ATOM      7  O   LIG d   1      -4.989  92.694 118.223  0.00  0.00    -0.368 OA
BRANCH   7   8
ATOM      8  C   LIG d   1      -6.314  93.011 118.715  0.00  0.00     0.119 C 
BRANCH   8   9
ATOM      9  C   LIG d   1      -7.120  93.587 117.535  0.00  0.00     0.028 C 
ATOM     10  C   LIG d   1      -8.172  94.614 117.989  0.00  0.00     0.006 C 
ENDBRANCH   8   9
BRANCH   8  11
ATOM     11  C   LIG d   1      -6.268  94.130 119.760  0.00  0.00     0.028 C 
ATOM     12  C   LIG d   1      -4.908  94.846 119.807  0.00  0.00     0.006 C 
ENDBRANCH   8  11
ENDBRANCH   7   8
ENDBRANCH   1   7
BRANCH   6  13
ATOM     13  N   LIG d   1      -5.515  90.287 116.487  0.00  0.00    -0.311 N 
ATOM     14  C   LIG d   1      -5.969  90.855 115.371  0.00  0.00     0.210 C 
ATOM     15  C   LIG d   1      -7.338  90.354 114.900  0.00  0.00     0.109 C 
ATOM     16  O   LIG d   1      -5.353  91.704 114.709  0.00  0.00    -0.276 OA
ATOM     17  H   LIG d   1      -6.066  89.585 116.942  0.00  0.00     0.149 HD
ENDBRANCH   6  13
BRANCH   5  18
ATOM     18  N   LIG d   1      -2.887  88.793 116.049  0.00  0.00     0.381 N 
ATOM     19  H   LIG d   1      -2.297  89.420 115.539  0.00  0.00    -0.090 HD
ATOM     20  H   LIG d   1      -3.705  88.610 115.495  0.00  0.00    -0.090 HD
ATOM     21  H   LIG d   1      -2.402  87.942 116.230  0.00  0.00    -0.090 HD
ENDBRANCH   5  18
BRANCH   3  22
ATOM     22  C   LIG d   1      -1.382  90.505 120.261  0.00  0.00     0.382 C 
ATOM     23  O   LIG d   1      -1.099  91.528 120.929  0.00  0.00    -0.241 OA
ATOM     24  O   LIG d   1      -0.804  89.430 120.511  0.00  0.00    -0.241 OA
ENDBRANCH   3  22
TORSDOF 7
ENDMDL
MODEL 9
REMARK VINA RESULT:      -4.2      3.073      6.715
REMARK  7 active torsions:
REMARK  status: ('A' for Active; 'I' for Inactive)
REMARK    1  A    between atoms: C_2  and  C_3 
REMARK    2  A    between atoms: C_3  and  O_6 
REMARK    3  A    between atoms: C_3  and  C_4 
REMARK    4  A    between atoms: C_7  and  O_6 
REMARK    5  A    between atoms: C_9  and  C_10 
REMARK    6  A    between atoms: N_15  and  C_14 
REMARK    7  A    between atoms: N_20  and  C_19 
REMARK       I    between atoms: C_22  and  N_20 
ROOT
ATOM      1  C   LIG d   1      -1.444  92.811 116.839  0.00  0.00     0.161 C 
ATOM      2  C   LIG d   1      -1.068  93.902 117.640  0.00  0.00     0.016 C 
ATOM      3  C   LIG d   1      -1.765  94.286 118.809  0.00  0.00     0.038 C 
ATOM      4  C   LIG d   1      -2.804  93.508 119.342  0.00  0.00     0.028 C 
ATOM      5  C   LIG d   1      -3.541  92.682 118.293  0.00  0.00    -0.047 C 
ATOM      6  C   LIG d   1      -2.507  91.885 117.465  0.00  0.00     0.091 C 
ENDROOT
BRANCH   1   7
ATOM      7  O   LIG d   1      -0.276  92.053 116.466  0.00  0.00    -0.368 OA
BRANCH   7   8
ATOM      8  C   LIG d   1       0.214  91.112 117.452  0.00  0.00     0.119 C 
BRANCH   8   9
ATOM      9  C   LIG d   1       1.580  91.628 117.946  0.00  0.00     0.028 C 
ATOM     10  C   LIG d   1       1.567  91.981 119.442  0.00  0.00     0.006 C 
ENDBRANCH   8   9
BRANCH   8  11
ATOM     11  C   LIG d   1       0.501  89.745 116.824  0.00  0.00     0.028 C 
ATOM     12  C   LIG d   1      -0.254  88.600 117.518  0.00  0.00     0.006 C 
ENDBRANCH   8  11
ENDBRANCH   7   8
ENDBRANCH   1   7
BRANCH   6  13
ATOM     13  N   LIG d   1      -3.138  91.114 116.362  0.00  0.00    -0.311 N 
ATOM     14  C   LIG d   1      -3.645  89.892 116.518  0.00  0.00     0.210 C 
ATOM     15  C   LIG d   1      -4.231  89.268 115.247  0.00  0.00     0.109 C 
ATOM     16  O   LIG d   1      -3.695  89.279 117.594  0.00  0.00    -0.276 OA
ATOM     17  H   LIG d   1      -3.169  91.549 115.461  0.00  0.00     0.149 HD
ENDBRANCH   6  13
BRANCH   5  18
ATOM     18  N   LIG d   1      -4.504  91.818 119.002  0.00  0.00     0.381 N 
ATOM     19  H   LIG d   1      -4.040  91.332 119.744  0.00  0.00    -0.090 HD
ATOM     20  H   LIG d   1      -4.866  91.138 118.358  0.00  0.00    -0.090 HD
ATOM     21  H   LIG d   1      -5.248  92.368 119.371  0.00  0.00    -0.090 HD
ENDBRANCH   5  18
BRANCH   3  22
ATOM     22  C   LIG d   1      -1.450  95.482 119.435  0.00  0.00     0.382 C 
ATOM     23  O   LIG d   1      -1.848  96.568 118.949  0.00  0.00    -0.241 OA
ATOM     24  O   LIG d   1      -0.734  95.492 120.455  0.00  0.00    -0.241 OA
ENDBRANCH   3  22
TORSDOF 7
ENDMDL
