MODEL 1
REMARK VINA RESULT:      -5.3      0.000      0.000
REMARK  7 active torsions:
REMARK  status: ('A' for Active; 'I' for Inactive)
REMARK    1  A    between atoms: C_2  and  C_3 
REMARK    2  A    between atoms: C_3  and  O_6 
REMARK    3  A    between atoms: C_3  and  C_4 
REMARK    4  A    between atoms: C_7  and  O_6 
REMARK    5  A    between atoms: C_9  and  C_10 
REMARK    6  A    between atoms: N_15  and  C_14 
REMARK    7  A    between atoms: N_20  and  C_19 
REMARK       I    between atoms: C_22  and  N_20 
ROOT
ATOM      1  C   LIG d   1      -4.453  91.780 117.646  0.00  0.00     0.161 C 
ATOM      2  C   LIG d   1      -3.999  92.508 118.759  0.00  0.00     0.016 C 
ATOM      3  C   LIG d   1      -4.813  93.407 119.485  0.00  0.00     0.038 C 
ATOM      4  C   LIG d   1      -6.189  93.527 119.238  0.00  0.00     0.028 C 
ATOM      5  C   LIG d   1      -6.578  93.190 117.802  0.00  0.00    -0.047 C 
ATOM      6  C   LIG d   1      -5.980  91.814 117.430  0.00  0.00     0.091 C 
ENDROOT
BRANCH   1   7
ATOM      7  O   LIG d   1      -3.989  90.418 117.731  0.00  0.00    -0.368 OA
BRANCH   7   8
ATOM      8  C   LIG d   1      -2.927  90.164 118.683  0.00  0.00     0.119 C 
BRANCH   8   9
ATOM      9  C   LIG d   1      -1.635  89.918 117.881  0.00  0.00     0.028 C 
ATOM     10  C   LIG d   1      -0.610  91.051 118.055  0.00  0.00     0.006 C 
ENDBRANCH   8   9
BRANCH   8  11
ATOM     11  C   LIG d   1      -3.174  88.869 119.462  0.00  0.00     0.028 C 
ATOM     12  C   LIG d   1      -1.924  87.979 119.549  0.00  0.00     0.006 C 
ENDBRANCH   8  11
ENDBRANCH   7   8
ENDBRANCH   1   7
BRANCH   6  13
ATOM     13  N   LIG d   1      -6.242  91.446 116.014  0.00  0.00    -0.311 N 
ATOM     14  C   LIG d   1      -7.307  90.748 115.623  0.00  0.00     0.210 C 
ATOM     15  C   LIG d   1      -7.375  90.460 114.120  0.00  0.00     0.109 C 
ATOM     16  O   LIG d   1      -8.218  90.367 116.374  0.00  0.00    -0.276 OA
ATOM     17  H   LIG d   1      -5.570  91.742 115.334  0.00  0.00     0.149 HD
ENDBRANCH   6  13
BRANCH   5  18
ATOM     18  N   LIG d   1      -8.050  93.222 117.720  0.00  0.00     0.381 N 
ATOM     19  H   LIG d   1      -8.415  93.839 118.419  0.00  0.00    -0.090 HD
ATOM     20  H   LIG d   1      -8.406  92.299 117.897  0.00  0.00    -0.090 HD
ATOM     21  H   LIG d   1      -8.335  93.528 116.816  0.00  0.00    -0.090 HD
ENDBRANCH   5  18
BRANCH   3  22
ATOM     22  C   LIG d   1      -4.243  94.228 120.446  0.00  0.00     0.382 C 
ATOM     23  O   LIG d   1      -3.087  93.986 120.871  0.00  0.00    -0.241 OA
ATOM     24  O   LIG d   1      -4.885  95.182 120.924  0.00  0.00    -0.241 OA
ENDBRANCH   3  22
TORSDOF 7
ENDMDL
MODEL 2
REMARK VINA RESULT:      -5.0      1.970      4.829
REMARK  7 active torsions:
REMARK  status: ('A' for Active; 'I' for Inactive)
REMARK    1  A    between atoms: C_2  and  C_3 
REMARK    2  A    between atoms: C_3  and  O_6 
REMARK    3  A    between atoms: C_3  and  C_4 
REMARK    4  A    between atoms: C_7  and  O_6 
REMARK    5  A    between atoms: C_9  and  C_10 
REMARK    6  A    between atoms: N_15  and  C_14 
REMARK    7  A    between atoms: N_20  and  C_19 
REMARK       I    between atoms: C_22  and  N_20 
ROOT
ATOM      1  C   LIG d   1      -5.180  92.548 118.094  0.00  0.00     0.161 C 
ATOM      2  C   LIG d   1      -5.482  91.550 117.153  0.00  0.00     0.016 C 
ATOM      3  C   LIG d   1      -6.672  91.535 116.389  0.00  0.00     0.038 C 
ATOM      4  C   LIG d   1      -7.578  92.607 116.407  0.00  0.00     0.028 C 
ATOM      5  C   LIG d   1      -7.562  93.392 117.714  0.00  0.00    -0.047 C 
ATOM      6  C   LIG d   1      -6.104  93.783 118.046  0.00  0.00     0.091 C 
ENDROOT
BRANCH   1   7
ATOM      7  O   LIG d   1      -3.802  92.948 117.957  0.00  0.00    -0.368 OA
BRANCH   7   8
ATOM      8  C   LIG d   1      -2.923  92.592 119.052  0.00  0.00     0.119 C 
BRANCH   8   9
ATOM      9  C   LIG d   1      -1.787  93.633 119.090  0.00  0.00     0.028 C 
ATOM     10  C   LIG d   1      -2.299  95.051 119.389  0.00  0.00     0.006 C 
ENDBRANCH   8   9
BRANCH   8  11
ATOM     11  C   LIG d   1      -2.234  91.248 118.800  0.00  0.00     0.028 C 
ATOM     12  C   LIG d   1      -2.575  90.194 119.865  0.00  0.00     0.006 C 
ENDBRANCH   8  11
ENDBRANCH   7   8
ENDBRANCH   1   7
BRANCH   6  13
ATOM     13  N   LIG d   1      -5.988  94.482 119.353  0.00  0.00    -0.311 N 
ATOM     14  C   LIG d   1      -6.165  95.794 119.501  0.00  0.00     0.210 C 
ATOM     15  C   LIG d   1      -5.980  96.314 120.930  0.00  0.00     0.109 C 
ATOM     16  O   LIG d   1      -6.490  96.571 118.591  0.00  0.00    -0.276 OA
ATOM     17  H   LIG d   1      -5.758  93.922 120.151  0.00  0.00     0.149 HD
ENDBRANCH   6  13
BRANCH   5  18
ATOM     18  N   LIG d   1      -8.449  94.558 117.544  0.00  0.00     0.381 N 
ATOM     19  H   LIG d   1      -8.031  95.365 117.961  0.00  0.00    -0.090 HD
ATOM     20  H   LIG d   1      -9.319  94.376 118.013  0.00  0.00    -0.090 HD
ATOM     21  H   LIG d   1      -8.614  94.723 116.576  0.00  0.00    -0.090 HD
ENDBRANCH   5  18
BRANCH   3  22
ATOM     22  C   LIG d   1      -6.986  90.421 115.627  0.00  0.00     0.382 C 
ATOM     23  O   LIG d   1      -6.114  89.901 114.888  0.00  0.00    -0.241 OA
ATOM     24  O   LIG d   1      -8.141  89.954 115.634  0.00  0.00    -0.241 OA
ENDBRANCH   3  22
TORSDOF 7
ENDMDL
MODEL 3
REMARK VINA RESULT:      -5.0      1.090      1.738
REMARK  7 active torsions:
REMARK  status: ('A' for Active; 'I' for Inactive)
REMARK    1  A    between atoms: C_2  and  C_3 
REMARK    2  A    between atoms: C_3  and  O_6 
REMARK    3  A    between atoms: C_3  and  C_4 
REMARK    4  A    between atoms: C_7  and  O_6 
REMARK    5  A    between atoms: C_9  and  C_10 
REMARK    6  A    between atoms: N_15  and  C_14 
REMARK    7  A    between atoms: N_20  and  C_19 
REMARK       I    between atoms: C_22  and  N_20 
ROOT
ATOM      1  C   LIG d   1      -4.690  92.582 118.264  0.00  0.00     0.161 C 
ATOM      2  C   LIG d   1      -4.513  93.547 119.270  0.00  0.00     0.016 C 
ATOM      3  C   LIG d   1      -5.496  94.504 119.612  0.00  0.00     0.038 C 
ATOM      4  C   LIG d   1      -6.789  94.464 119.070  0.00  0.00     0.028 C 
ATOM      5  C   LIG d   1      -6.848  93.824 117.688  0.00  0.00    -0.047 C 
ATOM      6  C   LIG d   1      -6.135  92.453 117.739  0.00  0.00     0.091 C 
ENDROOT
BRANCH   1   7
ATOM      7  O   LIG d   1      -4.208  91.304 118.723  0.00  0.00    -0.368 OA
BRANCH   7   8
ATOM      8  C   LIG d   1      -2.821  91.003 118.430  0.00  0.00     0.119 C 
BRANCH   8   9
ATOM      9  C   LIG d   1      -2.741  89.513 118.047  0.00  0.00     0.028 C 
ATOM     10  C   LIG d   1      -2.758  88.589 119.277  0.00  0.00     0.006 C 
ENDBRANCH   8   9
BRANCH   8  11
ATOM     11  C   LIG d   1      -1.943  91.150 119.677  0.00  0.00     0.028 C 
ATOM     12  C   LIG d   1      -1.012  92.370 119.610  0.00  0.00     0.006 C 
ENDBRANCH   8  11
ENDBRANCH   7   8
ENDBRANCH   1   7
BRANCH   6  13
ATOM     13  N   LIG d   1      -6.073  91.796 116.408  0.00  0.00    -0.311 N 
ATOM     14  C   LIG d   1      -7.030  90.997 115.939  0.00  0.00     0.210 C 
ATOM     15  C   LIG d   1      -6.758  90.407 114.552  0.00  0.00     0.109 C 
ATOM     16  O   LIG d   1      -8.094  90.747 116.526  0.00  0.00    -0.276 OA
ATOM     17  H   LIG d   1      -5.259  91.969 115.851  0.00  0.00     0.149 HD
ENDBRANCH   6  13
BRANCH   5  18
ATOM     18  N   LIG d   1      -8.268  93.723 117.303  0.00  0.00     0.381 N 
ATOM     19  H   LIG d   1      -8.545  94.549 116.811  0.00  0.00    -0.090 HD
ATOM     20  H   LIG d   1      -8.826  93.649 118.135  0.00  0.00    -0.090 HD
ATOM     21  H   LIG d   1      -8.409  92.922 116.727  0.00  0.00    -0.090 HD
ENDBRANCH   5  18
BRANCH   3  22
ATOM     22  C   LIG d   1      -5.175  95.539 120.477  0.00  0.00     0.382 C 
ATOM     23  O   LIG d   1      -4.003  95.655 120.909  0.00  0.00    -0.241 OA
ATOM     24  O   LIG d   1      -6.053  96.333 120.865  0.00  0.00    -0.241 OA
ENDBRANCH   3  22
TORSDOF 7
ENDMDL
MODEL 4
REMARK VINA RESULT:      -4.8      2.772      6.728
REMARK  7 active torsions:
REMARK  status: ('A' for Active; 'I' for Inactive)
REMARK    1  A    between atoms: C_2  and  C_3 
REMARK    2  A    between atoms: C_3  and  O_6 
REMARK    3  A    between atoms: C_3  and  C_4 
REMARK    4  A    between atoms: C_7  and  O_6 
REMARK    5  A    between atoms: C_9  and  C_10 
REMARK    6  A    between atoms: N_15  and  C_14 
REMARK    7  A    between atoms: N_20  and  C_19 
REMARK       I    between atoms: C_22  and  N_20 
ROOT
ATOM      1  C   LIG d   1      -6.140  93.819 118.930  0.00  0.00     0.161 C 
ATOM      2  C   LIG d   1      -6.802  93.167 117.876  0.00  0.00     0.016 C 
ATOM      3  C   LIG d   1      -6.255  92.068 117.176  0.00  0.00     0.038 C 
ATOM      4  C   LIG d   1      -5.066  91.446 117.584  0.00  0.00     0.028 C 
ATOM      5  C   LIG d   1      -4.116  92.381 118.325  0.00  0.00    -0.047 C 
ATOM      6  C   LIG d   1      -4.891  93.085 119.462  0.00  0.00     0.091 C 
ENDROOT
BRANCH   1   7
ATOM      7  O   LIG d   1      -7.066  94.076 120.004  0.00  0.00    -0.368 OA
BRANCH   7   8
ATOM      8  C   LIG d   1      -7.598  95.422 120.079  0.00  0.00     0.119 C 
BRANCH   8   9
ATOM      9  C   LIG d   1      -9.001  95.400 119.444  0.00  0.00     0.028 C 
ATOM     10  C   LIG d   1     -10.092  94.983 120.444  0.00  0.00     0.006 C 
ENDBRANCH   8   9
BRANCH   8  11
ATOM     11  C   LIG d   1      -6.780  96.393 119.223  0.00  0.00     0.028 C 
ATOM     12  C   LIG d   1      -7.607  97.041 118.102  0.00  0.00     0.006 C 
ENDBRANCH   8  11
ENDBRANCH   7   8
ENDBRANCH   1   7
BRANCH   6  13
ATOM     13  N   LIG d   1      -4.057  94.081 120.184  0.00  0.00    -0.311 N 
ATOM     14  C   LIG d   1      -3.055  94.749 119.615  0.00  0.00     0.210 C 
ATOM     15  C   LIG d   1      -2.311  95.714 120.543  0.00  0.00     0.109 C 
ATOM     16  O   LIG d   1      -2.732  94.657 118.421  0.00  0.00    -0.276 OA
ATOM     17  H   LIG d   1      -4.270  94.241 121.149  0.00  0.00     0.149 HD
ENDBRANCH   6  13
BRANCH   5  18
ATOM     18  N   LIG d   1      -2.983  91.572 118.812  0.00  0.00     0.381 N 
ATOM     19  H   LIG d   1      -3.099  90.620 118.526  0.00  0.00    -0.090 HD
ATOM     20  H   LIG d   1      -2.971  91.600 119.816  0.00  0.00    -0.090 HD
ATOM     21  H   LIG d   1      -2.127  91.932 118.452  0.00  0.00    -0.090 HD
ENDBRANCH   5  18
BRANCH   3  22
ATOM     22  C   LIG d   1      -6.881  91.604 116.028  0.00  0.00     0.382 C 
ATOM     23  O   LIG d   1      -7.675  90.635 116.095  0.00  0.00    -0.241 OA
ATOM     24  O   LIG d   1      -6.627  92.114 114.921  0.00  0.00    -0.241 OA
ENDBRANCH   3  22
TORSDOF 7
ENDMDL
MODEL 5
REMARK VINA RESULT:      -4.7      2.704      5.253
REMARK  7 active torsions:
REMARK  status: ('A' for Active; 'I' for Inactive)
REMARK    1  A    between atoms: C_2  and  C_3 
REMARK    2  A    between atoms: C_3  and  O_6 
REMARK    3  A    between atoms: C_3  and  C_4 
REMARK    4  A    between atoms: C_7  and  O_6 
REMARK    5  A    between atoms: C_9  and  C_10 
REMARK    6  A    between atoms: N_15  and  C_14 
REMARK    7  A    between atoms: N_20  and  C_19 
REMARK       I    between atoms: C_22  and  N_20 
ROOT
ATOM      1  C   LIG d   1      -3.356  93.054 120.105  0.00  0.00     0.161 C 
ATOM      2  C   LIG d   1      -3.162  94.444 120.051  0.00  0.00     0.016 C 
ATOM      3  C   LIG d   1      -2.192  95.063 119.230  0.00  0.00     0.038 C 
ATOM      4  C   LIG d   1      -1.447  94.339 118.288  0.00  0.00     0.028 C 
ATOM      5  C   LIG d   1      -1.253  92.875 118.665  0.00  0.00    -0.047 C 
ATOM      6  C   LIG d   1      -2.629  92.256 119.002  0.00  0.00     0.091 C 
ENDROOT
BRANCH   1   7
ATOM      7  O   LIG d   1      -4.766  92.756 120.091  0.00  0.00    -0.368 OA
BRANCH   7   8
ATOM      8  C   LIG d   1      -5.569  93.518 119.156  0.00  0.00     0.119 C 
BRANCH   8   9
ATOM      9  C   LIG d   1      -6.767  94.094 119.936  0.00  0.00     0.028 C 
ATOM     10  C   LIG d   1      -6.647  95.610 120.161  0.00  0.00     0.006 C 
ENDBRANCH   8   9
BRANCH   8  11
ATOM     11  C   LIG d   1      -6.182  92.614 118.082  0.00  0.00     0.028 C 
ATOM     12  C   LIG d   1      -7.387  93.257 117.378  0.00  0.00     0.006 C 
ENDBRANCH   8  11
ENDBRANCH   7   8
ENDBRANCH   1   7
BRANCH   6  13
ATOM     13  N   LIG d   1      -2.520  90.848 119.462  0.00  0.00    -0.311 N 
ATOM     14  C   LIG d   1      -3.076  89.821 118.820  0.00  0.00     0.210 C 
ATOM     15  C   LIG d   1      -2.859  88.454 119.477  0.00  0.00     0.109 C 
ATOM     16  O   LIG d   1      -3.701  89.910 117.753  0.00  0.00    -0.276 OA
ATOM     17  H   LIG d   1      -2.004  90.682 120.304  0.00  0.00     0.149 HD
ENDBRANCH   6  13
BRANCH   5  18
ATOM     18  N   LIG d   1      -0.581  92.208 117.533  0.00  0.00     0.381 N 
ATOM     19  H   LIG d   1      -0.974  92.528 116.670  0.00  0.00    -0.090 HD
ATOM     20  H   LIG d   1      -0.735  91.218 117.601  0.00  0.00    -0.090 HD
ATOM     21  H   LIG d   1       0.396  92.402 117.554  0.00  0.00    -0.090 HD
ENDBRANCH   5  18
BRANCH   3  22
ATOM     22  C   LIG d   1      -1.931  96.417 119.376  0.00  0.00     0.382 C 
ATOM     23  O   LIG d   1      -2.782  97.165 119.916  0.00  0.00    -0.241 OA
ATOM     24  O   LIG d   1      -0.874  96.908 118.936  0.00  0.00    -0.241 OA
ENDBRANCH   3  22
TORSDOF 7
ENDMDL
MODEL 6
REMARK VINA RESULT:      -4.6      2.070      4.216
REMARK  7 active torsions:
REMARK  status: ('A' for Active; 'I' for Inactive)
REMARK    1  A    between atoms: C_2  and  C_3 
REMARK    2  A    between atoms: C_3  and  O_6 
REMARK    3  A    between atoms: C_3  and  C_4 
REMARK    4  A    between atoms: C_7  and  O_6 
REMARK    5  A    between atoms: C_9  and  C_10 
REMARK    6  A    between atoms: N_15  and  C_14 
REMARK    7  A    between atoms: N_20  and  C_19 
REMARK       I    between atoms: C_22  and  N_20 
ROOT
ATOM      1  C   LIG d   1      -4.702  93.026 119.020  0.00  0.00     0.161 C 
ATOM      2  C   LIG d   1      -5.846  93.841 119.034  0.00  0.00     0.016 C 
ATOM      3  C   LIG d   1      -6.938  93.666 118.153  0.00  0.00     0.038 C 
ATOM      4  C   LIG d   1      -7.026  92.563 117.291  0.00  0.00     0.028 C 
ATOM      5  C   LIG d   1      -5.667  92.000 116.888  0.00  0.00    -0.047 C 
ATOM      6  C   LIG d   1      -4.829  91.749 118.162  0.00  0.00     0.091 C 
ENDROOT
BRANCH   1   7
ATOM      7  O   LIG d   1      -4.326  92.688 120.369  0.00  0.00    -0.368 OA
BRANCH   7   8
ATOM      8  C   LIG d   1      -3.107  93.296 120.863  0.00  0.00     0.119 C 
BRANCH   8   9
ATOM      9  C   LIG d   1      -2.660  94.343 119.825  0.00  0.00     0.028 C 
ATOM     10  C   LIG d   1      -2.968  95.782 120.274  0.00  0.00     0.006 C 
ENDBRANCH   8   9
BRANCH   8  11
ATOM     11  C   LIG d   1      -1.965  92.278 120.930  0.00  0.00     0.028 C 
ATOM     12  C   LIG d   1      -0.797  92.630 119.994  0.00  0.00     0.006 C 
ENDBRANCH   8  11
ENDBRANCH   7   8
ENDBRANCH   1   7
BRANCH   6  13
ATOM     13  N   LIG d   1      -3.454  91.277 117.853  0.00  0.00    -0.311 N 
ATOM     14  C   LIG d   1      -2.980  90.095 118.242  0.00  0.00     0.210 C 
ATOM     15  C   LIG d   1      -1.531  89.813 117.834  0.00  0.00     0.109 C 
ATOM     16  O   LIG d   1      -3.633  89.239 118.858  0.00  0.00    -0.276 OA
ATOM     17  H   LIG d   1      -2.866  91.896 117.330  0.00  0.00     0.149 HD
ENDBRANCH   6  13
BRANCH   5  18
ATOM     18  N   LIG d   1      -5.908  90.773 116.104  0.00  0.00     0.381 N 
ATOM     19  H   LIG d   1      -6.725  90.308 116.445  0.00  0.00    -0.090 HD
ATOM     20  H   LIG d   1      -5.123  90.156 116.217  0.00  0.00    -0.090 HD
ATOM     21  H   LIG d   1      -6.024  91.001 115.141  0.00  0.00    -0.090 HD
ENDBRANCH   5  18
BRANCH   3  22
ATOM     22  C   LIG d   1      -7.938  94.625 118.099  0.00  0.00     0.382 C 
ATOM     23  O   LIG d   1      -9.143  94.277 118.152  0.00  0.00    -0.241 OA
ATOM     24  O   LIG d   1      -7.653  95.829 117.955  0.00  0.00    -0.241 OA
ENDBRANCH   3  22
TORSDOF 7
ENDMDL
MODEL 7
REMARK VINA RESULT:      -4.5      7.480     10.123
REMARK  7 active torsions:
REMARK  status: ('A' for Active; 'I' for Inactive)
REMARK    1  A    between atoms: C_2  and  C_3 
REMARK    2  A    between atoms: C_3  and  O_6 
REMARK    3  A    between atoms: C_3  and  C_4 
REMARK    4  A    between atoms: C_7  and  O_6 
REMARK    5  A    between atoms: C_9  and  C_10 
REMARK    6  A    between atoms: N_15  and  C_14 
REMARK    7  A    between atoms: N_20  and  C_19 
REMARK       I    between atoms: C_22  and  N_20 
ROOT
ATOM      1  C   LIG d   1       3.921  89.879 117.776  0.00  0.00     0.161 C 
ATOM      2  C   LIG d   1       4.389  90.635 118.863  0.00  0.00     0.016 C 
ATOM      3  C   LIG d   1       5.761  90.847 119.130  0.00  0.00     0.038 C 
ATOM      4  C   LIG d   1       6.762  90.440 118.236  0.00  0.00     0.028 C 
ATOM      5  C   LIG d   1       6.363  89.237 117.387  0.00  0.00    -0.047 C 
ATOM      6  C   LIG d   1       4.994  89.520 116.728  0.00  0.00     0.091 C 
ENDROOT
BRANCH   1   7
ATOM      7  O   LIG d   1       2.815  90.557 117.149  0.00  0.00    -0.368 OA
BRANCH   7   8
ATOM      8  C   LIG d   1       1.515  89.935 117.302  0.00  0.00     0.119 C 
BRANCH   8   9
ATOM      9  C   LIG d   1       0.648  90.879 118.157  0.00  0.00     0.028 C 
ATOM     10  C   LIG d   1       0.562  90.429 119.625  0.00  0.00     0.006 C 
ENDBRANCH   8   9
BRANCH   8  11
ATOM     11  C   LIG d   1       1.611  88.634 118.105  0.00  0.00     0.028 C 
ATOM     12  C   LIG d   1       1.128  87.408 117.314  0.00  0.00     0.006 C 
ENDBRANCH   8  11
ENDBRANCH   7   8
ENDBRANCH   1   7
BRANCH   6  13
ATOM     13  N   LIG d   1       4.491  88.360 115.947  0.00  0.00    -0.311 N 
ATOM     14  C   LIG d   1       4.226  88.414 114.643  0.00  0.00     0.210 C 
ATOM     15  C   LIG d   1       3.697  87.110 114.036  0.00  0.00     0.109 C 
ATOM     16  O   LIG d   1       4.408  89.408 113.924  0.00  0.00    -0.276 OA
ATOM     17  H   LIG d   1       4.344  87.504 116.445  0.00  0.00     0.149 HD
ENDBRANCH   6  13
BRANCH   5  18
ATOM     18  N   LIG d   1       7.441  89.007 116.407  0.00  0.00     0.381 N 
ATOM     19  H   LIG d   1       8.286  88.762 116.884  0.00  0.00    -0.090 HD
ATOM     20  H   LIG d   1       7.603  89.857 115.896  0.00  0.00    -0.090 HD
ATOM     21  H   LIG d   1       7.182  88.278 115.780  0.00  0.00    -0.090 HD
ENDBRANCH   5  18
BRANCH   3  22
ATOM     22  C   LIG d   1       6.145  91.439 120.324  0.00  0.00     0.382 C 
ATOM     23  O   LIG d   1       5.353  92.200 120.930  0.00  0.00    -0.241 OA
ATOM     24  O   LIG d   1       7.290  91.256 120.780  0.00  0.00    -0.241 OA
ENDBRANCH   3  22
TORSDOF 7
ENDMDL
MODEL 8
REMARK VINA RESULT:      -4.4      6.565      9.233
REMARK  7 active torsions:
REMARK  status: ('A' for Active; 'I' for Inactive)
REMARK    1  A    between atoms: C_2  and  C_3 
REMARK    2  A    between atoms: C_3  and  O_6 
REMARK    3  A    between atoms: C_3  and  C_4 
REMARK    4  A    between atoms: C_7  and  O_6 
REMARK    5  A    between atoms: C_9  and  C_10 
REMARK    6  A    between atoms: N_15  and  C_14 
REMARK    7  A    between atoms: N_20  and  C_19 
REMARK       I    between atoms: C_22  and  N_20 
ROOT
ATOM      1  C   LIG d   1       2.566  88.614 117.418  0.00  0.00     0.161 C 
ATOM      2  C   LIG d   1       2.845  89.428 118.528  0.00  0.00     0.016 C 
ATOM      3  C   LIG d   1       4.072  90.107 118.706  0.00  0.00     0.038 C 
ATOM      4  C   LIG d   1       5.055  90.137 117.705  0.00  0.00     0.028 C 
ATOM      5  C   LIG d   1       5.023  88.919 116.788  0.00  0.00    -0.047 C 
ATOM      6  C   LIG d   1       3.583  88.724 116.263  0.00  0.00     0.091 C 
ENDROOT
BRANCH   1   7
ATOM      7  O   LIG d   1       1.233  88.880 116.939  0.00  0.00    -0.368 OA
BRANCH   7   8
ATOM      8  C   LIG d   1       0.238  89.173 117.952  0.00  0.00     0.119 C 
BRANCH   8   9
ATOM      9  C   LIG d   1      -0.819  88.053 117.900  0.00  0.00     0.028 C 
ATOM     10  C   LIG d   1      -1.042  87.393 119.271  0.00  0.00     0.006 C 
ENDBRANCH   8   9
BRANCH   8  11
ATOM     11  C   LIG d   1      -0.521  90.463 117.630  0.00  0.00     0.028 C 
ATOM     12  C   LIG d   1      -0.270  91.576 118.660  0.00  0.00     0.006 C 
ENDBRANCH   8  11
ENDBRANCH   7   8
ENDBRANCH   1   7
BRANCH   6  13
ATOM     13  N   LIG d   1       3.445  87.504 115.425  0.00  0.00    -0.311 N 
ATOM     14  C   LIG d   1       3.615  87.500 114.104  0.00  0.00     0.210 C 
ATOM     15  C   LIG d   1       3.407  86.140 113.430  0.00  0.00     0.109 C 
ATOM     16  O   LIG d   1       3.948  88.486 113.430  0.00  0.00    -0.276 OA
ATOM     17  H   LIG d   1       3.207  86.653 115.894  0.00  0.00     0.149 HD
ENDBRANCH   6  13
BRANCH   5  18
ATOM     18  N   LIG d   1       6.006  89.146 115.712  0.00  0.00     0.381 N 
ATOM     19  H   LIG d   1       5.529  89.332 114.852  0.00  0.00    -0.090 HD
ATOM     20  H   LIG d   1       6.556  88.314 115.593  0.00  0.00    -0.090 HD
ATOM     21  H   LIG d   1       6.596  89.914 115.945  0.00  0.00    -0.090 HD
ENDBRANCH   5  18
BRANCH   3  22
ATOM     22  C   LIG d   1       4.343  90.732 119.914  0.00  0.00     0.382 C 
ATOM     23  O   LIG d   1       5.531  90.936 120.262  0.00  0.00    -0.241 OA
ATOM     24  O   LIG d   1       3.415  91.055 120.680  0.00  0.00    -0.241 OA
ENDBRANCH   3  22
TORSDOF 7
ENDMDL
MODEL 9
REMARK VINA RESULT:      -4.2      2.554      5.830
REMARK  7 active torsions:
REMARK  status: ('A' for Active; 'I' for Inactive)
REMARK    1  A    between atoms: C_2  and  C_3 
REMARK    2  A    between atoms: C_3  and  O_6 
REMARK    3  A    between atoms: C_3  and  C_4 
REMARK    4  A    between atoms: C_7  and  O_6 
REMARK    5  A    between atoms: C_9  and  C_10 
REMARK    6  A    between atoms: N_15  and  C_14 
REMARK    7  A    between atoms: N_20  and  C_19 
REMARK       I    between atoms: C_22  and  N_20 
ROOT
ATOM      1  C   LIG d   1      -4.508  92.730 118.453  0.00  0.00     0.161 C 
ATOM      2  C   LIG d   1      -3.927  91.463 118.275  0.00  0.00     0.016 C 
ATOM      3  C   LIG d   1      -2.612  91.146 118.685  0.00  0.00     0.038 C 
ATOM      4  C   LIG d   1      -1.836  92.036 119.442  0.00  0.00     0.028 C 
ATOM      5  C   LIG d   1      -2.191  93.500 119.205  0.00  0.00    -0.047 C 
ATOM      6  C   LIG d   1      -3.716  93.680 119.375  0.00  0.00     0.091 C 
ENDROOT
BRANCH   1   7
ATOM      7  O   LIG d   1      -5.862  92.585 118.925  0.00  0.00    -0.368 OA
BRANCH   7   8
ATOM      8  C   LIG d   1      -6.890  92.531 117.906  0.00  0.00     0.119 C 
BRANCH   8   9
ATOM      9  C   LIG d   1      -6.246  91.961 116.628  0.00  0.00     0.028 C 
ATOM     10  C   LIG d   1      -7.186  92.036 115.413  0.00  0.00     0.006 C 
ENDBRANCH   8   9
BRANCH   8  11
ATOM     11  C   LIG d   1      -7.372  93.935 117.526  0.00  0.00     0.028 C 
ATOM     12  C   LIG d   1      -8.396  94.503 118.521  0.00  0.00     0.006 C 
ENDBRANCH   8  11
ENDBRANCH   7   8
ENDBRANCH   1   7
BRANCH   6  13
ATOM     13  N   LIG d   1      -4.160  95.068 119.079  0.00  0.00    -0.311 N 
ATOM     14  C   LIG d   1      -4.997  95.752 119.857  0.00  0.00     0.210 C 
ATOM     15  C   LIG d   1      -5.340  97.159 119.357  0.00  0.00     0.109 C 
ATOM     16  O   LIG d   1      -5.462  95.340 120.930  0.00  0.00    -0.276 OA
ATOM     17  H   LIG d   1      -3.806  95.491 118.243  0.00  0.00     0.149 HD
ENDBRANCH   6  13
BRANCH   5  18
ATOM     18  N   LIG d   1      -1.404  94.309 120.156  0.00  0.00     0.381 N 
ATOM     19  H   LIG d   1      -1.967  95.053 120.516  0.00  0.00    -0.090 HD
ATOM     20  H   LIG d   1      -0.622  94.712 119.670  0.00  0.00    -0.090 HD
ATOM     21  H   LIG d   1      -1.079  93.736 120.904  0.00  0.00    -0.090 HD
ENDBRANCH   5  18
BRANCH   3  22
ATOM     22  C   LIG d   1      -2.045  89.939 118.303  0.00  0.00     0.382 C 
ATOM     23  O   LIG d   1      -2.636  88.861 118.556  0.00  0.00    -0.241 OA
ATOM     24  O   LIG d   1      -0.931  89.912 117.749  0.00  0.00    -0.241 OA
ENDBRANCH   3  22
TORSDOF 7
ENDMDL
