MODEL 1
REMARK VINA RESULT:      -5.6      0.000      0.000
REMARK  7 active torsions:
REMARK  status: ('A' for Active; 'I' for Inactive)
REMARK    1  A    between atoms: C_2  and  C_3 
REMARK    2  A    between atoms: C_3  and  O_6 
REMARK    3  A    between atoms: C_3  and  C_4 
REMARK    4  A    between atoms: C_7  and  O_6 
REMARK    5  A    between atoms: C_9  and  C_10 
REMARK    6  A    between atoms: N_15  and  C_14 
REMARK    7  A    between atoms: N_20  and  C_19 
REMARK       I    between atoms: C_22  and  N_20 
ROOT
ATOM      1  C   LIG d   1      -4.305  90.432 117.386  0.00  0.00     0.161 C 
ATOM      2  C   LIG d   1      -5.205  89.818 116.498  0.00  0.00     0.016 C 
ATOM      3  C   LIG d   1      -6.435  90.397 116.113  0.00  0.00     0.038 C 
ATOM      4  C   LIG d   1      -6.784  91.707 116.474  0.00  0.00     0.028 C 
ATOM      5  C   LIG d   1      -6.139  92.168 117.777  0.00  0.00    -0.047 C 
ATOM      6  C   LIG d   1      -4.617  91.910 117.702  0.00  0.00     0.091 C 
ENDROOT
BRANCH   1   7
ATOM      7  O   LIG d   1      -2.959  90.299 116.887  0.00  0.00    -0.368 OA
BRANCH   7   8
ATOM      8  C   LIG d   1      -2.038  89.562 117.727  0.00  0.00     0.119 C 
BRANCH   8   9
ATOM      9  C   LIG d   1      -0.612  89.859 117.223  0.00  0.00     0.028 C 
ATOM     10  C   LIG d   1       0.165  90.784 118.175  0.00  0.00     0.006 C 
ENDBRANCH   8   9
BRANCH   8  11
ATOM     11  C   LIG d   1      -2.220  88.050 117.561  0.00  0.00     0.028 C 
ATOM     12  C   LIG d   1      -0.904  87.323 117.243  0.00  0.00     0.006 C 
ENDBRANCH   8  11
ENDBRANCH   7   8
ENDBRANCH   1   7
BRANCH   6  13
ATOM     13  N   LIG d   1      -3.921  92.255 118.969  0.00  0.00    -0.311 N 
ATOM     14  C   LIG d   1      -2.794  92.964 119.017  0.00  0.00     0.210 C 
ATOM     15  C   LIG d   1      -2.232  93.189 120.424  0.00  0.00     0.109 C 
ATOM     16  O   LIG d   1      -2.225  93.455 118.031  0.00  0.00    -0.276 OA
ATOM     17  H   LIG d   1      -4.331  91.922 119.820  0.00  0.00     0.149 HD
ENDBRANCH   6  13
BRANCH   5  18
ATOM     18  N   LIG d   1      -6.475  93.592 117.961  0.00  0.00     0.381 N 
ATOM     19  H   LIG d   1      -6.949  93.719 118.833  0.00  0.00    -0.090 HD
ATOM     20  H   LIG d   1      -7.093  93.879 117.222  0.00  0.00    -0.090 HD
ATOM     21  H   LIG d   1      -5.646  94.144 117.943  0.00  0.00    -0.090 HD
ENDBRANCH   5  18
BRANCH   3  22
ATOM     22  C   LIG d   1      -7.351  89.648 115.390  0.00  0.00     0.382 C 
ATOM     23  O   LIG d   1      -8.166  88.905 115.989  0.00  0.00    -0.241 OA
ATOM     24  O   LIG d   1      -7.344  89.671 114.145  0.00  0.00    -0.241 OA
ENDBRANCH   3  22
TORSDOF 7
ENDMDL
MODEL 2
REMARK VINA RESULT:      -5.2      2.169      4.573
REMARK  7 active torsions:
REMARK  status: ('A' for Active; 'I' for Inactive)
REMARK    1  A    between atoms: C_2  and  C_3 
REMARK    2  A    between atoms: C_3  and  O_6 
REMARK    3  A    between atoms: C_3  and  C_4 
REMARK    4  A    between atoms: C_7  and  O_6 
REMARK    5  A    between atoms: C_9  and  C_10 
REMARK    6  A    between atoms: N_15  and  C_14 
REMARK    7  A    between atoms: N_20  and  C_19 
REMARK       I    between atoms: C_22  and  N_20 
ROOT
ATOM      1  C   LIG d   1      -5.484  92.176 117.805  0.00  0.00     0.161 C 
ATOM      2  C   LIG d   1      -6.540  91.482 117.190  0.00  0.00     0.016 C 
ATOM      3  C   LIG d   1      -6.363  90.283 116.463  0.00  0.00     0.038 C 
ATOM      4  C   LIG d   1      -5.132  89.611 116.429  0.00  0.00     0.028 C 
ATOM      5  C   LIG d   1      -3.932  90.534 116.611  0.00  0.00    -0.047 C 
ATOM      6  C   LIG d   1      -4.153  91.400 117.873  0.00  0.00     0.091 C 
ENDROOT
BRANCH   1   7
ATOM      7  O   LIG d   1      -5.883  92.604 119.122  0.00  0.00    -0.368 OA
BRANCH   7   8
ATOM      8  C   LIG d   1      -5.842  94.031 119.369  0.00  0.00     0.119 C 
BRANCH   8   9
ATOM      9  C   LIG d   1      -4.912  94.266 120.575  0.00  0.00     0.028 C 
ATOM     10  C   LIG d   1      -3.857  95.352 120.301  0.00  0.00     0.006 C 
ENDBRANCH   8   9
BRANCH   8  11
ATOM     11  C   LIG d   1      -7.211  94.561 119.804  0.00  0.00     0.028 C 
ATOM     12  C   LIG d   1      -7.790  95.593 118.823  0.00  0.00     0.006 C 
ENDBRANCH   8  11
ENDBRANCH   7   8
ENDBRANCH   1   7
BRANCH   6  13
ATOM     13  N   LIG d   1      -3.064  92.391 118.078  0.00  0.00    -0.311 N 
ATOM     14  C   LIG d   1      -2.006  92.168 118.855  0.00  0.00     0.210 C 
ATOM     15  C   LIG d   1      -1.011  93.330 118.943  0.00  0.00     0.109 C 
ATOM     16  O   LIG d   1      -1.780  91.106 119.454  0.00  0.00    -0.276 OA
ATOM     17  H   LIG d   1      -3.151  93.269 117.604  0.00  0.00     0.149 HD
ENDBRANCH   6  13
BRANCH   5  18
ATOM     18  N   LIG d   1      -2.727  89.688 116.694  0.00  0.00     0.381 N 
ATOM     19  H   LIG d   1      -2.085  90.076 117.356  0.00  0.00    -0.090 HD
ATOM     20  H   LIG d   1      -2.280  89.671 115.794  0.00  0.00    -0.090 HD
ATOM     21  H   LIG d   1      -2.978  88.763 116.966  0.00  0.00    -0.090 HD
ENDBRANCH   5  18
BRANCH   3  22
ATOM     22  C   LIG d   1      -7.417  89.764 115.726  0.00  0.00     0.382 C 
ATOM     23  O   LIG d   1      -7.721  90.276 114.622  0.00  0.00    -0.241 OA
ATOM     24  O   LIG d   1      -8.095  88.819 116.172  0.00  0.00    -0.241 OA
ENDBRANCH   3  22
TORSDOF 7
ENDMDL
MODEL 3
REMARK VINA RESULT:      -4.9      2.426      4.173
REMARK  7 active torsions:
REMARK  status: ('A' for Active; 'I' for Inactive)
REMARK    1  A    between atoms: C_2  and  C_3 
REMARK    2  A    between atoms: C_3  and  O_6 
REMARK    3  A    between atoms: C_3  and  C_4 
REMARK    4  A    between atoms: C_7  and  O_6 
REMARK    5  A    between atoms: C_9  and  C_10 
REMARK    6  A    between atoms: N_15  and  C_14 
REMARK    7  A    between atoms: N_20  and  C_19 
REMARK       I    between atoms: C_22  and  N_20 
ROOT
ATOM      1  C   LIG d   1      -2.989  91.408 118.020  0.00  0.00     0.161 C 
ATOM      2  C   LIG d   1      -4.193  92.128 118.102  0.00  0.00     0.016 C 
ATOM      3  C   LIG d   1      -5.383  91.731 117.450  0.00  0.00     0.038 C 
ATOM      4  C   LIG d   1      -5.491  90.498 116.790  0.00  0.00     0.028 C 
ATOM      5  C   LIG d   1      -4.161  89.978 116.256  0.00  0.00    -0.047 C 
ATOM      6  C   LIG d   1      -3.118  90.002 117.396  0.00  0.00     0.091 C 
ENDROOT
BRANCH   1   7
ATOM      7  O   LIG d   1      -2.380  91.324 119.323  0.00  0.00    -0.368 OA
BRANCH   7   8
ATOM      8  C   LIG d   1      -1.172  92.101 119.514  0.00  0.00     0.119 C 
BRANCH   8   9
ATOM      9  C   LIG d   1      -1.538  93.321 120.381  0.00  0.00     0.028 C 
ATOM     10  C   LIG d   1      -1.502  94.637 119.588  0.00  0.00     0.006 C 
ENDBRANCH   8   9
BRANCH   8  11
ATOM     11  C   LIG d   1      -0.669  92.682 118.189  0.00  0.00     0.028 C 
ATOM     12  C   LIG d   1       0.703  92.124 117.777  0.00  0.00     0.006 C 
ENDBRANCH   8  11
ENDBRANCH   7   8
ENDBRANCH   1   7
BRANCH   6  13
ATOM     13  N   LIG d   1      -1.766  89.588 116.937  0.00  0.00    -0.311 N 
ATOM     14  C   LIG d   1      -1.039  88.655 117.548  0.00  0.00     0.210 C 
ATOM     15  C   LIG d   1       0.335  88.395 116.923  0.00  0.00     0.109 C 
ATOM     16  O   LIG d   1      -1.414  87.995 118.529  0.00  0.00    -0.276 OA
ATOM     17  H   LIG d   1      -1.398  90.051 116.129  0.00  0.00     0.149 HD
ENDBRANCH   6  13
BRANCH   5  18
ATOM     18  N   LIG d   1      -4.396  88.625 115.716  0.00  0.00     0.381 N 
ATOM     19  H   LIG d   1      -5.081  88.153 116.271  0.00  0.00    -0.090 HD
ATOM     20  H   LIG d   1      -3.538  88.104 115.761  0.00  0.00    -0.090 HD
ATOM     21  H   LIG d   1      -4.707  88.685 114.771  0.00  0.00    -0.090 HD
ENDBRANCH   5  18
BRANCH   3  22
ATOM     22  C   LIG d   1      -6.470  92.591 117.420  0.00  0.00     0.382 C 
ATOM     23  O   LIG d   1      -6.736  93.300 118.421  0.00  0.00    -0.241 OA
ATOM     24  O   LIG d   1      -7.214  92.635 116.422  0.00  0.00    -0.241 OA
ENDBRANCH   3  22
TORSDOF 7
ENDMDL
MODEL 4
REMARK VINA RESULT:      -4.9      2.450      4.671
REMARK  7 active torsions:
REMARK  status: ('A' for Active; 'I' for Inactive)
REMARK    1  A    between atoms: C_2  and  C_3 
REMARK    2  A    between atoms: C_3  and  O_6 
REMARK    3  A    between atoms: C_3  and  C_4 
REMARK    4  A    between atoms: C_7  and  O_6 
REMARK    5  A    between atoms: C_9  and  C_10 
REMARK    6  A    between atoms: N_15  and  C_14 
REMARK    7  A    between atoms: N_20  and  C_19 
REMARK       I    between atoms: C_22  and  N_20 
ROOT
ATOM      1  C   LIG d   1      -5.230  92.236 118.530  0.00  0.00     0.161 C 
ATOM      2  C   LIG d   1      -6.267  92.092 117.593  0.00  0.00     0.016 C 
ATOM      3  C   LIG d   1      -6.183  91.244 116.465  0.00  0.00     0.038 C 
ATOM      4  C   LIG d   1      -5.109  90.361 116.279  0.00  0.00     0.028 C 
ATOM      5  C   LIG d   1      -3.814  90.838 116.928  0.00  0.00    -0.047 C 
ATOM      6  C   LIG d   1      -4.096  91.198 118.405  0.00  0.00     0.091 C 
ENDROOT
BRANCH   1   7
ATOM      7  O   LIG d   1      -5.774  92.224 119.865  0.00  0.00    -0.368 OA
BRANCH   7   8
ATOM      8  C   LIG d   1      -5.825  93.503 120.544  0.00  0.00     0.119 C 
BRANCH   8   9
ATOM      9  C   LIG d   1      -7.251  94.063 120.372  0.00  0.00     0.028 C 
ATOM     10  C   LIG d   1      -7.305  95.235 119.378  0.00  0.00     0.006 C 
ENDBRANCH   8   9
BRANCH   8  11
ATOM     11  C   LIG d   1      -4.904  94.527 119.873  0.00  0.00     0.028 C 
ATOM     12  C   LIG d   1      -3.709  94.920 120.755  0.00  0.00     0.006 C 
ENDBRANCH   8  11
ENDBRANCH   7   8
ENDBRANCH   1   7
BRANCH   6  13
ATOM     13  N   LIG d   1      -2.900  91.753 119.091  0.00  0.00    -0.311 N 
ATOM     14  C   LIG d   1      -2.047  91.009 119.793  0.00  0.00     0.210 C 
ATOM     15  C   LIG d   1      -0.892  91.784 120.436  0.00  0.00     0.109 C 
ATOM     16  O   LIG d   1      -2.119  89.777 119.918  0.00  0.00    -0.276 OA
ATOM     17  H   LIG d   1      -2.748  92.739 119.015  0.00  0.00     0.149 HD
ENDBRANCH   6  13
BRANCH   5  18
ATOM     18  N   LIG d   1      -2.817  89.761 116.775  0.00  0.00     0.381 N 
ATOM     19  H   LIG d   1      -2.378  89.831 115.879  0.00  0.00    -0.090 HD
ATOM     20  H   LIG d   1      -3.285  88.874 116.829  0.00  0.00    -0.090 HD
ATOM     21  H   LIG d   1      -2.131  89.828 117.495  0.00  0.00    -0.090 HD
ENDBRANCH   5  18
BRANCH   3  22
ATOM     22  C   LIG d   1      -7.164  91.303 115.487  0.00  0.00     0.382 C 
ATOM     23  O   LIG d   1      -7.917  90.317 115.293  0.00  0.00    -0.241 OA
ATOM     24  O   LIG d   1      -7.278  92.312 114.765  0.00  0.00    -0.241 OA
ENDBRANCH   3  22
TORSDOF 7
ENDMDL
MODEL 5
REMARK VINA RESULT:      -4.9      1.887      2.778
REMARK  7 active torsions:
REMARK  status: ('A' for Active; 'I' for Inactive)
REMARK    1  A    between atoms: C_2  and  C_3 
REMARK    2  A    between atoms: C_3  and  O_6 
REMARK    3  A    between atoms: C_3  and  C_4 
REMARK    4  A    between atoms: C_7  and  O_6 
REMARK    5  A    between atoms: C_9  and  C_10 
REMARK    6  A    between atoms: N_15  and  C_14 
REMARK    7  A    between atoms: N_20  and  C_19 
REMARK       I    between atoms: C_22  and  N_20 
ROOT
ATOM      1  C   LIG d   1      -2.309  89.908 117.809  0.00  0.00     0.161 C 
ATOM      2  C   LIG d   1      -3.500  89.555 117.153  0.00  0.00     0.016 C 
ATOM      3  C   LIG d   1      -4.561  90.461 116.925  0.00  0.00     0.038 C 
ATOM      4  C   LIG d   1      -4.440  91.831 117.206  0.00  0.00     0.028 C 
ATOM      5  C   LIG d   1      -3.453  92.133 118.328  0.00  0.00    -0.047 C 
ATOM      6  C   LIG d   1      -2.114  91.424 118.023  0.00  0.00     0.091 C 
ENDROOT
BRANCH   1   7
ATOM      7  O   LIG d   1      -1.181  89.352 117.105  0.00  0.00    -0.368 OA
BRANCH   7   8
ATOM      8  C   LIG d   1      -0.488  88.267 117.769  0.00  0.00     0.119 C 
BRANCH   8   9
ATOM      9  C   LIG d   1      -0.852  86.964 117.031  0.00  0.00     0.028 C 
ATOM     10  C   LIG d   1       0.280  85.925 117.080  0.00  0.00     0.006 C 
ENDBRANCH   8   9
BRANCH   8  11
ATOM     11  C   LIG d   1      -0.994  88.076 119.202  0.00  0.00     0.028 C 
ATOM     12  C   LIG d   1       0.120  88.215 120.251  0.00  0.00     0.006 C 
ENDBRANCH   8  11
ENDBRANCH   7   8
ENDBRANCH   1   7
BRANCH   6  13
ATOM     13  N   LIG d   1      -1.118  91.599 119.113  0.00  0.00    -0.311 N 
ATOM     14  C   LIG d   1       0.141  91.978 118.901  0.00  0.00     0.210 C 
ATOM     15  C   LIG d   1       1.006  92.078 120.161  0.00  0.00     0.109 C 
ATOM     16  O   LIG d   1       0.614  92.273 117.794  0.00  0.00    -0.276 OA
ATOM     17  H   LIG d   1      -1.427  91.411 120.047  0.00  0.00     0.149 HD
ENDBRANCH   6  13
BRANCH   5  18
ATOM     18  N   LIG d   1      -3.321  93.600 118.422  0.00  0.00     0.381 N 
ATOM     19  H   LIG d   1      -3.705  94.028 117.603  0.00  0.00    -0.090 HD
ATOM     20  H   LIG d   1      -2.346  93.836 118.474  0.00  0.00    -0.090 HD
ATOM     21  H   LIG d   1      -3.795  93.933 119.233  0.00  0.00    -0.090 HD
ENDBRANCH   5  18
BRANCH   3  22
ATOM     22  C   LIG d   1      -5.775  89.992 116.447  0.00  0.00     0.382 C 
ATOM     23  O   LIG d   1      -5.836  88.875 115.879  0.00  0.00    -0.241 OA
ATOM     24  O   LIG d   1      -6.803  90.691 116.537  0.00  0.00    -0.241 OA
ENDBRANCH   3  22
TORSDOF 7
ENDMDL
MODEL 6
REMARK VINA RESULT:      -4.8      2.882      5.034
REMARK  7 active torsions:
REMARK  status: ('A' for Active; 'I' for Inactive)
REMARK    1  A    between atoms: C_2  and  C_3 
REMARK    2  A    between atoms: C_3  and  O_6 
REMARK    3  A    between atoms: C_3  and  C_4 
REMARK    4  A    between atoms: C_7  and  O_6 
REMARK    5  A    between atoms: C_9  and  C_10 
REMARK    6  A    between atoms: N_15  and  C_14 
REMARK    7  A    between atoms: N_20  and  C_19 
REMARK       I    between atoms: C_22  and  N_20 
ROOT
ATOM      1  C   LIG d   1      -5.607  92.477 118.482  0.00  0.00     0.161 C 
ATOM      2  C   LIG d   1      -6.597  93.474 118.509  0.00  0.00     0.016 C 
ATOM      3  C   LIG d   1      -6.481  94.666 119.261  0.00  0.00     0.038 C 
ATOM      4  C   LIG d   1      -5.294  95.013 119.922  0.00  0.00     0.028 C 
ATOM      5  C   LIG d   1      -4.457  93.807 120.336  0.00  0.00    -0.047 C 
ATOM      6  C   LIG d   1      -4.259  92.888 119.109  0.00  0.00     0.091 C 
ENDROOT
BRANCH   1   7
ATOM      7  O   LIG d   1      -5.413  92.019 117.130  0.00  0.00    -0.368 OA
BRANCH   7   8
ATOM      8  C   LIG d   1      -6.503  91.261 116.550  0.00  0.00     0.119 C 
BRANCH   8   9
ATOM      9  C   LIG d   1      -5.965  89.856 116.216  0.00  0.00     0.028 C 
ATOM     10  C   LIG d   1      -4.451  89.735 116.459  0.00  0.00     0.006 C 
ENDBRANCH   8   9
BRANCH   8  11
ATOM     11  C   LIG d   1      -6.944  91.856 115.209  0.00  0.00     0.028 C 
ATOM     12  C   LIG d   1      -7.310  90.782 114.173  0.00  0.00     0.006 C 
ENDBRANCH   8  11
ENDBRANCH   7   8
ENDBRANCH   1   7
BRANCH   6  13
ATOM     13  N   LIG d   1      -3.521  91.643 119.446  0.00  0.00    -0.311 N 
ATOM     14  C   LIG d   1      -2.206  91.505 119.291  0.00  0.00     0.210 C 
ATOM     15  C   LIG d   1      -1.649  90.132 119.681  0.00  0.00     0.109 C 
ATOM     16  O   LIG d   1      -1.442  92.400 118.900  0.00  0.00    -0.276 OA
ATOM     17  H   LIG d   1      -4.059  90.876 119.800  0.00  0.00     0.149 HD
ENDBRANCH   6  13
BRANCH   5  18
ATOM     18  N   LIG d   1      -3.187  94.314 120.889  0.00  0.00     0.381 N 
ATOM     19  H   LIG d   1      -3.276  95.288 121.104  0.00  0.00    -0.090 HD
ATOM     20  H   LIG d   1      -2.466  94.209 120.198  0.00  0.00    -0.090 HD
ATOM     21  H   LIG d   1      -2.946  93.806 121.711  0.00  0.00    -0.090 HD
ENDBRANCH   5  18
BRANCH   3  22
ATOM     22  C   LIG d   1      -7.576  95.507 119.389  0.00  0.00     0.382 C 
ATOM     23  O   LIG d   1      -8.434  95.563 118.475  0.00  0.00    -0.241 OA
ATOM     24  O   LIG d   1      -7.694  96.243 120.387  0.00  0.00    -0.241 OA
ENDBRANCH   3  22
TORSDOF 7
ENDMDL
MODEL 7
REMARK VINA RESULT:      -4.6      2.402      4.332
REMARK  7 active torsions:
REMARK  status: ('A' for Active; 'I' for Inactive)
REMARK    1  A    between atoms: C_2  and  C_3 
REMARK    2  A    between atoms: C_3  and  O_6 
REMARK    3  A    between atoms: C_3  and  C_4 
REMARK    4  A    between atoms: C_7  and  O_6 
REMARK    5  A    between atoms: C_9  and  C_10 
REMARK    6  A    between atoms: N_15  and  C_14 
REMARK    7  A    between atoms: N_20  and  C_19 
REMARK       I    between atoms: C_22  and  N_20 
ROOT
ATOM      1  C   LIG d   1      -3.451  92.006 118.146  0.00  0.00     0.161 C 
ATOM      2  C   LIG d   1      -4.610  92.205 117.378  0.00  0.00     0.016 C 
ATOM      3  C   LIG d   1      -5.172  91.209 116.546  0.00  0.00     0.038 C 
ATOM      4  C   LIG d   1      -4.696  89.890 116.542  0.00  0.00     0.028 C 
ATOM      5  C   LIG d   1      -3.222  89.777 116.917  0.00  0.00    -0.047 C 
ATOM      6  C   LIG d   1      -2.981  90.539 118.240  0.00  0.00     0.091 C 
ENDROOT
BRANCH   1   7
ATOM      7  O   LIG d   1      -3.638  92.558 119.465  0.00  0.00    -0.368 OA
BRANCH   7   8
ATOM      8  C   LIG d   1      -2.872  93.749 119.771  0.00  0.00     0.119 C 
BRANCH   8   9
ATOM      9  C   LIG d   1      -3.868  94.917 119.908  0.00  0.00     0.028 C 
ATOM     10  C   LIG d   1      -5.254  94.453 120.388  0.00  0.00     0.006 C 
ENDBRANCH   8   9
BRANCH   8  11
ATOM     11  C   LIG d   1      -1.952  94.134 118.609  0.00  0.00     0.028 C 
ATOM     12  C   LIG d   1      -0.463  94.095 118.989  0.00  0.00     0.006 C 
ENDBRANCH   8  11
ENDBRANCH   7   8
ENDBRANCH   1   7
BRANCH   6  13
ATOM     13  N   LIG d   1      -1.548  90.550 118.635  0.00  0.00    -0.311 N 
ATOM     14  C   LIG d   1      -1.126  90.278 119.869  0.00  0.00     0.210 C 
ATOM     15  C   LIG d   1       0.391  90.365 120.067  0.00  0.00     0.109 C 
ATOM     16  O   LIG d   1      -1.860  89.941 120.810  0.00  0.00    -0.276 OA
ATOM     17  H   LIG d   1      -0.881  90.782 117.926  0.00  0.00     0.149 HD
ENDBRANCH   6  13
BRANCH   5  18
ATOM     18  N   LIG d   1      -2.894  88.342 117.008  0.00  0.00     0.381 N 
ATOM     19  H   LIG d   1      -2.714  88.095 117.960  0.00  0.00    -0.090 HD
ATOM     20  H   LIG d   1      -2.062  88.164 116.473  0.00  0.00    -0.090 HD
ATOM     21  H   LIG d   1      -3.648  87.797 116.653  0.00  0.00    -0.090 HD
ENDBRANCH   5  18
BRANCH   3  22
ATOM     22  C   LIG d   1      -6.200  91.541 115.676  0.00  0.00     0.382 C 
ATOM     23  O   LIG d   1      -6.276  90.983 114.554  0.00  0.00    -0.241 OA
ATOM     24  O   LIG d   1      -7.025  92.424 115.979  0.00  0.00    -0.241 OA
ENDBRANCH   3  22
TORSDOF 7
ENDMDL
MODEL 8
REMARK VINA RESULT:      -4.5      3.324      5.009
REMARK  7 active torsions:
REMARK  status: ('A' for Active; 'I' for Inactive)
REMARK    1  A    between atoms: C_2  and  C_3 
REMARK    2  A    between atoms: C_3  and  O_6 
REMARK    3  A    between atoms: C_3  and  C_4 
REMARK    4  A    between atoms: C_7  and  O_6 
REMARK    5  A    between atoms: C_9  and  C_10 
REMARK    6  A    between atoms: N_15  and  C_14 
REMARK    7  A    between atoms: N_20  and  C_19 
REMARK       I    between atoms: C_22  and  N_20 
ROOT
ATOM      1  C   LIG d   1      -5.709  93.010 119.803  0.00  0.00     0.161 C 
ATOM      2  C   LIG d   1      -6.962  93.637 119.705  0.00  0.00     0.016 C 
ATOM      3  C   LIG d   1      -7.123  95.027 119.504  0.00  0.00     0.038 C 
ATOM      4  C   LIG d   1      -6.033  95.868 119.234  0.00  0.00     0.028 C 
ATOM      5  C   LIG d   1      -4.720  95.366 119.824  0.00  0.00    -0.047 C 
ATOM      6  C   LIG d   1      -4.510  93.894 119.401  0.00  0.00     0.091 C 
ENDROOT
BRANCH   1   7
ATOM      7  O   LIG d   1      -5.712  91.790 119.036  0.00  0.00    -0.368 OA
BRANCH   7   8
ATOM      8  C   LIG d   1      -5.424  91.925 117.623  0.00  0.00     0.119 C 
BRANCH   8   9
ATOM      9  C   LIG d   1      -6.581  91.264 116.849  0.00  0.00     0.028 C 
ATOM     10  C   LIG d   1      -6.999  92.075 115.611  0.00  0.00     0.006 C 
ENDBRANCH   8   9
BRANCH   8  11
ATOM     11  C   LIG d   1      -4.171  91.135 117.231  0.00  0.00     0.028 C 
ATOM     12  C   LIG d   1      -4.499  89.773 116.599  0.00  0.00     0.006 C 
ENDBRANCH   8  11
ENDBRANCH   7   8
ENDBRANCH   1   7
BRANCH   6  13
ATOM     13  N   LIG d   1      -3.290  93.298 120.005  0.00  0.00    -0.311 N 
ATOM     14  C   LIG d   1      -2.109  93.266 119.390  0.00  0.00     0.210 C 
ATOM     15  C   LIG d   1      -0.986  92.588 120.182  0.00  0.00     0.109 C 
ATOM     16  O   LIG d   1      -1.877  93.762 118.278  0.00  0.00    -0.276 OA
ATOM     17  H   LIG d   1      -3.381  92.901 120.919  0.00  0.00     0.149 HD
ENDBRANCH   6  13
BRANCH   5  18
ATOM     18  N   LIG d   1      -3.647  96.261 119.352  0.00  0.00     0.381 N 
ATOM     19  H   LIG d   1      -3.433  96.059 118.396  0.00  0.00    -0.090 HD
ATOM     20  H   LIG d   1      -2.822  96.098 119.901  0.00  0.00    -0.090 HD
ATOM     21  H   LIG d   1      -3.932  97.212 119.441  0.00  0.00    -0.090 HD
ENDBRANCH   5  18
BRANCH   3  22
ATOM     22  C   LIG d   1      -8.383  95.596 119.611  0.00  0.00     0.382 C 
ATOM     23  O   LIG d   1      -9.196  95.503 118.659  0.00  0.00    -0.241 OA
ATOM     24  O   LIG d   1      -8.702  96.239 120.629  0.00  0.00    -0.241 OA
ENDBRANCH   3  22
TORSDOF 7
ENDMDL
MODEL 9
REMARK VINA RESULT:      -4.4      2.308      5.551
REMARK  7 active torsions:
REMARK  status: ('A' for Active; 'I' for Inactive)
REMARK    1  A    between atoms: C_2  and  C_3 
REMARK    2  A    between atoms: C_3  and  O_6 
REMARK    3  A    between atoms: C_3  and  C_4 
REMARK    4  A    between atoms: C_7  and  O_6 
REMARK    5  A    between atoms: C_9  and  C_10 
REMARK    6  A    between atoms: N_15  and  C_14 
REMARK    7  A    between atoms: N_20  and  C_19 
REMARK       I    between atoms: C_22  and  N_20 
ROOT
ATOM      1  C   LIG d   1      -4.470  91.599 118.310  0.00  0.00     0.161 C 
ATOM      2  C   LIG d   1      -4.920  92.829 118.820  0.00  0.00     0.016 C 
ATOM      3  C   LIG d   1      -4.116  93.684 119.608  0.00  0.00     0.038 C 
ATOM      4  C   LIG d   1      -2.751  93.437 119.815  0.00  0.00     0.028 C 
ATOM      5  C   LIG d   1      -2.385  91.958 119.742  0.00  0.00    -0.047 C 
ATOM      6  C   LIG d   1      -2.950  91.365 118.431  0.00  0.00     0.091 C 
ENDROOT
BRANCH   1   7
ATOM      7  O   LIG d   1      -4.891  91.456 116.939  0.00  0.00    -0.368 OA
BRANCH   7   8
ATOM      8  C   LIG d   1      -6.285  91.117 116.732  0.00  0.00     0.119 C 
BRANCH   8   9
ATOM      9  C   LIG d   1      -6.328  89.740 116.041  0.00  0.00     0.028 C 
ATOM     10  C   LIG d   1      -4.929  89.236 115.650  0.00  0.00     0.006 C 
ENDBRANCH   8   9
BRANCH   8  11
ATOM     11  C   LIG d   1      -6.954  92.084 115.751  0.00  0.00     0.028 C 
ATOM     12  C   LIG d   1      -7.262  91.436 114.392  0.00  0.00     0.006 C 
ENDBRANCH   8  11
ENDBRANCH   7   8
ENDBRANCH   1   7
BRANCH   6  13
ATOM     13  N   LIG d   1      -2.710  89.903 118.321  0.00  0.00    -0.311 N 
ATOM     14  C   LIG d   1      -1.686  89.377 117.650  0.00  0.00     0.210 C 
ATOM     15  C   LIG d   1      -1.636  87.846 117.645  0.00  0.00     0.109 C 
ATOM     16  O   LIG d   1      -0.798  90.033 117.086  0.00  0.00    -0.276 OA
ATOM     17  H   LIG d   1      -3.365  89.297 118.775  0.00  0.00     0.149 HD
ENDBRANCH   6  13
BRANCH   5  18
ATOM     18  N   LIG d   1      -0.917  91.857 119.837  0.00  0.00     0.381 N 
ATOM     19  H   LIG d   1      -0.659  90.937 120.133  0.00  0.00    -0.090 HD
ATOM     20  H   LIG d   1      -0.589  92.513 120.524  0.00  0.00    -0.090 HD
ATOM     21  H   LIG d   1      -0.503  92.057 118.953  0.00  0.00    -0.090 HD
ENDBRANCH   5  18
BRANCH   3  22
ATOM     22  C   LIG d   1      -4.688  94.782 120.233  0.00  0.00     0.382 C 
ATOM     23  O   LIG d   1      -5.722  94.638 120.930  0.00  0.00    -0.241 OA
ATOM     24  O   LIG d   1      -4.210  95.921 120.073  0.00  0.00    -0.241 OA
ENDBRANCH   3  22
TORSDOF 7
ENDMDL
