MODEL 1
REMARK VINA RESULT:      -5.5      0.000      0.000
REMARK  7 active torsions:
REMARK  status: ('A' for Active; 'I' for Inactive)
REMARK    1  A    between atoms: C_2  and  C_3 
REMARK    2  A    between atoms: C_3  and  O_6 
REMARK    3  A    between atoms: C_3  and  C_4 
REMARK    4  A    between atoms: C_7  and  O_6 
REMARK    5  A    between atoms: C_9  and  C_10 
REMARK    6  A    between atoms: N_15  and  C_14 
REMARK    7  A    between atoms: N_20  and  C_19 
REMARK       I    between atoms: C_22  and  N_20 
ROOT
ATOM      1  C   LIG d   1      -5.816  92.071 117.550  0.00  0.00     0.161 C 
ATOM      2  C   LIG d   1      -4.890  91.016 117.481  0.00  0.00     0.016 C 
ATOM      3  C   LIG d   1      -3.786  90.891 118.355  0.00  0.00     0.038 C 
ATOM      4  C   LIG d   1      -3.617  91.737 119.461  0.00  0.00     0.028 C 
ATOM      5  C   LIG d   1      -4.242  93.115 119.271  0.00  0.00    -0.047 C 
ATOM      6  C   LIG d   1      -5.710  92.942 118.819  0.00  0.00     0.091 C 
ENDROOT
BRANCH   1   7
ATOM      7  O   LIG d   1      -7.154  91.557 117.404  0.00  0.00    -0.368 OA
BRANCH   7   8
ATOM      8  C   LIG d   1      -7.383  90.687 116.269  0.00  0.00     0.119 C 
BRANCH   8   9
ATOM      9  C   LIG d   1      -7.949  91.554 115.128  0.00  0.00     0.028 C 
ATOM     10  C   LIG d   1      -6.930  91.776 113.998  0.00  0.00     0.006 C 
ENDBRANCH   8   9
BRANCH   8  11
ATOM     11  C   LIG d   1      -8.472  89.652 116.570  0.00  0.00     0.028 C 
ATOM     12  C   LIG d   1      -9.508  89.532 115.441  0.00  0.00     0.006 C 
ENDBRANCH   8  11
ENDBRANCH   7   8
ENDBRANCH   1   7
BRANCH   6  13
ATOM     13  N   LIG d   1      -6.371  94.241 118.530  0.00  0.00    -0.311 N 
ATOM     14  C   LIG d   1      -7.037  94.944 119.444  0.00  0.00     0.210 C 
ATOM     15  C   LIG d   1      -7.660  96.246 118.930  0.00  0.00     0.109 C 
ATOM     16  O   LIG d   1      -7.144  94.630 120.638  0.00  0.00    -0.276 OA
ATOM     17  H   LIG d   1      -6.308  94.586 117.592  0.00  0.00     0.149 HD
ENDBRANCH   6  13
BRANCH   5  18
ATOM     18  N   LIG d   1      -4.112  93.843 120.547  0.00  0.00     0.381 N 
ATOM     19  H   LIG d   1      -4.830  93.549 121.180  0.00  0.00    -0.090 HD
ATOM     20  H   LIG d   1      -4.228  94.826 120.374  0.00  0.00    -0.090 HD
ATOM     21  H   LIG d   1      -3.216  93.672 120.948  0.00  0.00    -0.090 HD
ENDBRANCH   5  18
BRANCH   3  22
ATOM     22  C   LIG d   1      -2.814  89.935 118.102  0.00  0.00     0.382 C 
ATOM     23  O   LIG d   1      -3.149  88.780 117.743  0.00  0.00    -0.241 OA
ATOM     24  O   LIG d   1      -1.609  90.199 118.272  0.00  0.00    -0.241 OA
ENDBRANCH   3  22
TORSDOF 7
ENDMDL
MODEL 2
REMARK VINA RESULT:      -5.3      1.604      4.564
REMARK  7 active torsions:
REMARK  status: ('A' for Active; 'I' for Inactive)
REMARK    1  A    between atoms: C_2  and  C_3 
REMARK    2  A    between atoms: C_3  and  O_6 
REMARK    3  A    between atoms: C_3  and  C_4 
REMARK    4  A    between atoms: C_7  and  O_6 
REMARK    5  A    between atoms: C_9  and  C_10 
REMARK    6  A    between atoms: N_15  and  C_14 
REMARK    7  A    between atoms: N_20  and  C_19 
REMARK       I    between atoms: C_22  and  N_20 
ROOT
ATOM      1  C   LIG d   1      -6.055  91.999 117.782  0.00  0.00     0.161 C 
ATOM      2  C   LIG d   1      -7.090  92.948 117.842  0.00  0.00     0.016 C 
ATOM      3  C   LIG d   1      -7.033  94.113 118.640  0.00  0.00     0.038 C 
ATOM      4  C   LIG d   1      -5.866  94.488 119.322  0.00  0.00     0.028 C 
ATOM      5  C   LIG d   1      -4.976  93.307 119.694  0.00  0.00    -0.047 C 
ATOM      6  C   LIG d   1      -4.730  92.447 118.433  0.00  0.00     0.091 C 
ENDROOT
BRANCH   1   7
ATOM      7  O   LIG d   1      -5.833  91.603 116.414  0.00  0.00    -0.368 OA
BRANCH   7   8
ATOM      8  C   LIG d   1      -6.505  90.394 115.984  0.00  0.00     0.119 C 
BRANCH   8   9
ATOM      9  C   LIG d   1      -6.737  90.508 114.465  0.00  0.00     0.028 C 
ATOM     10  C   LIG d   1      -7.044  91.950 114.025  0.00  0.00     0.006 C 
ENDBRANCH   8   9
BRANCH   8  11
ATOM     11  C   LIG d   1      -7.903  90.283 116.601  0.00  0.00     0.028 C 
ATOM     12  C   LIG d   1      -8.892  89.525 115.702  0.00  0.00     0.006 C 
ENDBRANCH   8  11
ENDBRANCH   7   8
ENDBRANCH   1   7
BRANCH   6  13
ATOM     13  N   LIG d   1      -3.937  91.225 118.726  0.00  0.00    -0.311 N 
ATOM     14  C   LIG d   1      -2.611  91.166 118.612  0.00  0.00     0.210 C 
ATOM     15  C   LIG d   1      -1.994  89.804 118.943  0.00  0.00     0.109 C 
ATOM     16  O   LIG d   1      -1.885  92.121 118.298  0.00  0.00    -0.276 OA
ATOM     17  H   LIG d   1      -4.444  90.412 119.017  0.00  0.00     0.149 HD
ENDBRANCH   6  13
BRANCH   5  18
ATOM     18  N   LIG d   1      -3.733  93.851 120.274  0.00  0.00     0.381 N 
ATOM     19  H   LIG d   1      -3.287  94.455 119.613  0.00  0.00    -0.090 HD
ATOM     20  H   LIG d   1      -3.110  93.090 120.478  0.00  0.00    -0.090 HD
ATOM     21  H   LIG d   1      -3.939  94.354 121.109  0.00  0.00    -0.090 HD
ENDBRANCH   5  18
BRANCH   3  22
ATOM     22  C   LIG d   1      -8.166  94.897 118.794  0.00  0.00     0.382 C 
ATOM     23  O   LIG d   1      -9.268  94.502 118.341  0.00  0.00    -0.241 OA
ATOM     24  O   LIG d   1      -8.093  96.014 119.340  0.00  0.00    -0.241 OA
ENDBRANCH   3  22
TORSDOF 7
ENDMDL
MODEL 3
REMARK VINA RESULT:      -5.2      2.012      5.213
REMARK  7 active torsions:
REMARK  status: ('A' for Active; 'I' for Inactive)
REMARK    1  A    between atoms: C_2  and  C_3 
REMARK    2  A    between atoms: C_3  and  O_6 
REMARK    3  A    between atoms: C_3  and  C_4 
REMARK    4  A    between atoms: C_7  and  O_6 
REMARK    5  A    between atoms: C_9  and  C_10 
REMARK    6  A    between atoms: N_15  and  C_14 
REMARK    7  A    between atoms: N_20  and  C_19 
REMARK       I    between atoms: C_22  and  N_20 
ROOT
ATOM      1  C   LIG d   1      -4.190  91.313 117.628  0.00  0.00     0.161 C 
ATOM      2  C   LIG d   1      -3.552  91.948 118.708  0.00  0.00     0.016 C 
ATOM      3  C   LIG d   1      -4.212  92.838 119.587  0.00  0.00     0.038 C 
ATOM      4  C   LIG d   1      -5.600  93.037 119.536  0.00  0.00     0.028 C 
ATOM      5  C   LIG d   1      -6.194  92.809 118.151  0.00  0.00    -0.047 C 
ATOM      6  C   LIG d   1      -5.728  91.432 117.625  0.00  0.00     0.091 C 
ENDROOT
BRANCH   1   7
ATOM      7  O   LIG d   1      -3.794  89.929 117.573  0.00  0.00    -0.368 OA
BRANCH   7   8
ATOM      8  C   LIG d   1      -2.601  89.576 118.316  0.00  0.00     0.119 C 
BRANCH   8   9
ATOM      9  C   LIG d   1      -1.523  89.169 117.294  0.00  0.00     0.028 C 
ATOM     10  C   LIG d   1      -0.264  90.048 117.386  0.00  0.00     0.006 C 
ENDBRANCH   8   9
BRANCH   8  11
ATOM     11  C   LIG d   1      -2.830  88.333 119.181  0.00  0.00     0.028 C 
ATOM     12  C   LIG d   1      -1.858  88.247 120.369  0.00  0.00     0.006 C 
ENDBRANCH   8  11
ENDBRANCH   7   8
ENDBRANCH   1   7
BRANCH   6  13
ATOM     13  N   LIG d   1      -6.196  91.166 116.240  0.00  0.00    -0.311 N 
ATOM     14  C   LIG d   1      -7.304  90.482 115.959  0.00  0.00     0.210 C 
ATOM     15  C   LIG d   1      -7.594  90.305 114.465  0.00  0.00     0.109 C 
ATOM     16  O   LIG d   1      -8.091  90.032 116.805  0.00  0.00    -0.276 OA
ATOM     17  H   LIG d   1      -5.634  91.523 115.492  0.00  0.00     0.149 HD
ENDBRANCH   6  13
BRANCH   5  18
ATOM     18  N   LIG d   1      -7.661  92.915 118.272  0.00  0.00     0.381 N 
ATOM     19  H   LIG d   1      -7.894  93.553 119.007  0.00  0.00    -0.090 HD
ATOM     20  H   LIG d   1      -8.034  92.012 118.507  0.00  0.00    -0.090 HD
ATOM     21  H   LIG d   1      -8.052  93.231 117.412  0.00  0.00    -0.090 HD
ENDBRANCH   5  18
BRANCH   3  22
ATOM     22  C   LIG d   1      -3.474  93.570 120.505  0.00  0.00     0.382 C 
ATOM     23  O   LIG d   1      -3.880  94.696 120.879  0.00  0.00    -0.241 OA
ATOM     24  O   LIG d   1      -2.386  93.137 120.929  0.00  0.00    -0.241 OA
ENDBRANCH   3  22
TORSDOF 7
ENDMDL
MODEL 4
REMARK VINA RESULT:      -5.0      2.101      4.971
REMARK  7 active torsions:
REMARK  status: ('A' for Active; 'I' for Inactive)
REMARK    1  A    between atoms: C_2  and  C_3 
REMARK    2  A    between atoms: C_3  and  O_6 
REMARK    3  A    between atoms: C_3  and  C_4 
REMARK    4  A    between atoms: C_7  and  O_6 
REMARK    5  A    between atoms: C_9  and  C_10 
REMARK    6  A    between atoms: N_15  and  C_14 
REMARK    7  A    between atoms: N_20  and  C_19 
REMARK       I    between atoms: C_22  and  N_20 
ROOT
ATOM      1  C   LIG d   1      -5.039  92.555 118.426  0.00  0.00     0.161 C 
ATOM      2  C   LIG d   1      -5.245  91.481 117.544  0.00  0.00     0.016 C 
ATOM      3  C   LIG d   1      -6.386  91.360 116.718  0.00  0.00     0.038 C 
ATOM      4  C   LIG d   1      -7.333  92.389 116.606  0.00  0.00     0.028 C 
ATOM      5  C   LIG d   1      -7.426  93.264 117.851  0.00  0.00    -0.047 C 
ATOM      6  C   LIG d   1      -6.008  93.742 118.236  0.00  0.00     0.091 C 
ENDROOT
BRANCH   1   7
ATOM      7  O   LIG d   1      -3.673  93.005 118.338  0.00  0.00    -0.368 OA
BRANCH   7   8
ATOM      8  C   LIG d   1      -2.656  92.016 118.634  0.00  0.00     0.119 C 
BRANCH   8   9
ATOM      9  C   LIG d   1      -2.661  91.790 120.159  0.00  0.00     0.028 C 
ATOM     10  C   LIG d   1      -1.908  90.512 120.565  0.00  0.00     0.006 C 
ENDBRANCH   8   9
BRANCH   8  11
ATOM     11  C   LIG d   1      -1.255  92.542 118.307  0.00  0.00     0.028 C 
ATOM     12  C   LIG d   1      -1.054  94.006 118.728  0.00  0.00     0.006 C 
ENDBRANCH   8  11
ENDBRANCH   7   8
ENDBRANCH   1   7
BRANCH   6  13
ATOM     13  N   LIG d   1      -5.998  94.535 119.493  0.00  0.00    -0.311 N 
ATOM     14  C   LIG d   1      -6.233  95.846 119.534  0.00  0.00     0.210 C 
ATOM     15  C   LIG d   1      -6.155  96.473 120.930  0.00  0.00     0.109 C 
ATOM     16  O   LIG d   1      -6.529  96.542 118.552  0.00  0.00    -0.276 OA
ATOM     17  H   LIG d   1      -5.797  94.043 120.341  0.00  0.00     0.149 HD
ENDBRANCH   6  13
BRANCH   5  18
ATOM     18  N   LIG d   1      -8.348  94.375 117.547  0.00  0.00     0.381 N 
ATOM     19  H   LIG d   1      -9.158  94.312 118.131  0.00  0.00    -0.090 HD
ATOM     20  H   LIG d   1      -8.643  94.300 116.590  0.00  0.00    -0.090 HD
ATOM     21  H   LIG d   1      -7.891  95.247 117.694  0.00  0.00    -0.090 HD
ENDBRANCH   5  18
BRANCH   3  22
ATOM     22  C   LIG d   1      -6.608  90.182 116.022  0.00  0.00     0.382 C 
ATOM     23  O   LIG d   1      -7.726  89.616 116.087  0.00  0.00    -0.241 OA
ATOM     24  O   LIG d   1      -5.691  89.653 115.365  0.00  0.00    -0.241 OA
ENDBRANCH   3  22
TORSDOF 7
ENDMDL
MODEL 5
REMARK VINA RESULT:      -5.0      2.145      4.915
REMARK  7 active torsions:
REMARK  status: ('A' for Active; 'I' for Inactive)
REMARK    1  A    between atoms: C_2  and  C_3 
REMARK    2  A    between atoms: C_3  and  O_6 
REMARK    3  A    between atoms: C_3  and  C_4 
REMARK    4  A    between atoms: C_7  and  O_6 
REMARK    5  A    between atoms: C_9  and  C_10 
REMARK    6  A    between atoms: N_15  and  C_14 
REMARK    7  A    between atoms: N_20  and  C_19 
REMARK       I    between atoms: C_22  and  N_20 
ROOT
ATOM      1  C   LIG d   1      -5.000  92.640 119.414  0.00  0.00     0.161 C 
ATOM      2  C   LIG d   1      -4.480  91.607 118.616  0.00  0.00     0.016 C 
ATOM      3  C   LIG d   1      -5.068  91.193 117.399  0.00  0.00     0.038 C 
ATOM      4  C   LIG d   1      -6.138  91.890 116.818  0.00  0.00     0.028 C 
ATOM      5  C   LIG d   1      -7.008  92.621 117.835  0.00  0.00    -0.047 C 
ATOM      6  C   LIG d   1      -6.102  93.485 118.742  0.00  0.00     0.091 C 
ENDROOT
BRANCH   1   7
ATOM      7  O   LIG d   1      -3.929  93.488 119.875  0.00  0.00    -0.368 OA
BRANCH   7   8
ATOM      8  C   LIG d   1      -2.627  93.246 119.288  0.00  0.00     0.119 C 
BRANCH   8   9
ATOM      9  C   LIG d   1      -1.617  93.106 120.443  0.00  0.00     0.028 C 
ATOM     10  C   LIG d   1      -1.323  91.637 120.791  0.00  0.00     0.006 C 
ENDBRANCH   8   9
BRANCH   8  11
ATOM     11  C   LIG d   1      -2.149  94.453 118.475  0.00  0.00     0.028 C 
ATOM     12  C   LIG d   1      -0.712  94.874 118.823  0.00  0.00     0.006 C 
ENDBRANCH   8  11
ENDBRANCH   7   8
ENDBRANCH   1   7
BRANCH   6  13
ATOM     13  N   LIG d   1      -6.864  94.169 119.819  0.00  0.00    -0.311 N 
ATOM     14  C   LIG d   1      -7.376  95.392 119.691  0.00  0.00     0.210 C 
ATOM     15  C   LIG d   1      -8.108  95.918 120.929  0.00  0.00     0.109 C 
ATOM     16  O   LIG d   1      -7.320  96.078 118.660  0.00  0.00    -0.276 OA
ATOM     17  H   LIG d   1      -6.984  93.671 120.679  0.00  0.00     0.149 HD
ENDBRANCH   6  13
BRANCH   5  18
ATOM     18  N   LIG d   1      -7.999  93.415 117.084  0.00  0.00     0.381 N 
ATOM     19  H   LIG d   1      -8.633  93.855 117.721  0.00  0.00    -0.090 HD
ATOM     20  H   LIG d   1      -8.526  92.800 116.490  0.00  0.00    -0.090 HD
ATOM     21  H   LIG d   1      -7.537  94.105 116.534  0.00  0.00    -0.090 HD
ENDBRANCH   5  18
BRANCH   3  22
ATOM     22  C   LIG d   1      -4.610  90.046 116.770  0.00  0.00     0.382 C 
ATOM     23  O   LIG d   1      -5.197  89.614 115.748  0.00  0.00    -0.241 OA
ATOM     24  O   LIG d   1      -3.645  89.412 117.236  0.00  0.00    -0.241 OA
ENDBRANCH   3  22
TORSDOF 7
ENDMDL
MODEL 6
REMARK VINA RESULT:      -4.9      2.472      6.485
REMARK  7 active torsions:
REMARK  status: ('A' for Active; 'I' for Inactive)
REMARK    1  A    between atoms: C_2  and  C_3 
REMARK    2  A    between atoms: C_3  and  O_6 
REMARK    3  A    between atoms: C_3  and  C_4 
REMARK    4  A    between atoms: C_7  and  O_6 
REMARK    5  A    between atoms: C_9  and  C_10 
REMARK    6  A    between atoms: N_15  and  C_14 
REMARK    7  A    between atoms: N_20  and  C_19 
REMARK       I    between atoms: C_22  and  N_20 
ROOT
ATOM      1  C   LIG d   1      -4.517  92.675 118.970  0.00  0.00     0.161 C 
ATOM      2  C   LIG d   1      -5.637  93.515 119.079  0.00  0.00     0.016 C 
ATOM      3  C   LIG d   1      -6.785  93.392 118.262  0.00  0.00     0.038 C 
ATOM      4  C   LIG d   1      -6.952  92.317 117.376  0.00  0.00     0.028 C 
ATOM      5  C   LIG d   1      -5.635  91.736 116.873  0.00  0.00    -0.047 C 
ATOM      6  C   LIG d   1      -4.727  91.428 118.085  0.00  0.00     0.091 C 
ENDROOT
BRANCH   1   7
ATOM      7  O   LIG d   1      -4.067  92.287 120.283  0.00  0.00    -0.368 OA
BRANCH   7   8
ATOM      8  C   LIG d   1      -2.834  92.896 120.740  0.00  0.00     0.119 C 
BRANCH   8   9
ATOM      9  C   LIG d   1      -2.330  93.821 119.616  0.00  0.00     0.028 C 
ATOM     10  C   LIG d   1      -2.200  95.284 120.073  0.00  0.00     0.006 C 
ENDBRANCH   8   9
BRANCH   8  11
ATOM     11  C   LIG d   1      -1.733  91.849 120.929  0.00  0.00     0.028 C 
ATOM     12  C   LIG d   1      -0.551  92.047 119.966  0.00  0.00     0.006 C 
ENDBRANCH   8  11
ENDBRANCH   7   8
ENDBRANCH   1   7
BRANCH   6  13
ATOM     13  N   LIG d   1      -3.386  90.934 117.678  0.00  0.00    -0.311 N 
ATOM     14  C   LIG d   1      -2.896  89.752 118.048  0.00  0.00     0.210 C 
ATOM     15  C   LIG d   1      -1.486  89.447 117.534  0.00  0.00     0.109 C 
ATOM     16  O   LIG d   1      -3.509  88.914 118.726  0.00  0.00    -0.276 OA
ATOM     17  H   LIG d   1      -2.833  91.538 117.101  0.00  0.00     0.149 HD
ENDBRANCH   6  13
BRANCH   5  18
ATOM     18  N   LIG d   1      -5.954  90.540 116.070  0.00  0.00     0.381 N 
ATOM     19  H   LIG d   1      -5.641  90.671 115.129  0.00  0.00    -0.090 HD
ATOM     20  H   LIG d   1      -6.950  90.413 116.057  0.00  0.00    -0.090 HD
ATOM     21  H   LIG d   1      -5.514  89.738 116.465  0.00  0.00    -0.090 HD
ENDBRANCH   5  18
BRANCH   3  22
ATOM     22  C   LIG d   1      -7.763  94.374 118.298  0.00  0.00     0.382 C 
ATOM     23  O   LIG d   1      -7.468  95.563 118.025  0.00  0.00    -0.241 OA
ATOM     24  O   LIG d   1      -8.926  94.095 118.644  0.00  0.00    -0.241 OA
ENDBRANCH   3  22
TORSDOF 7
ENDMDL
MODEL 7
REMARK VINA RESULT:      -4.7      5.697      8.990
REMARK  7 active torsions:
REMARK  status: ('A' for Active; 'I' for Inactive)
REMARK    1  A    between atoms: C_2  and  C_3 
REMARK    2  A    between atoms: C_3  and  O_6 
REMARK    3  A    between atoms: C_3  and  C_4 
REMARK    4  A    between atoms: C_7  and  O_6 
REMARK    5  A    between atoms: C_9  and  C_10 
REMARK    6  A    between atoms: N_15  and  C_14 
REMARK    7  A    between atoms: N_20  and  C_19 
REMARK       I    between atoms: C_22  and  N_20 
ROOT
ATOM      1  C   LIG d   1       1.105  88.495 117.004  0.00  0.00     0.161 C 
ATOM      2  C   LIG d   1      -0.289  88.325 117.040  0.00  0.00     0.016 C 
ATOM      3  C   LIG d   1      -1.149  89.113 117.838  0.00  0.00     0.038 C 
ATOM      4  C   LIG d   1      -0.686  90.232 118.545  0.00  0.00     0.028 C 
ATOM      5  C   LIG d   1       0.784  90.135 118.937  0.00  0.00    -0.047 C 
ATOM      6  C   LIG d   1       1.616  89.783 117.683  0.00  0.00     0.091 C 
ENDROOT
BRANCH   1   7
ATOM      7  O   LIG d   1       1.570  88.429 115.641  0.00  0.00    -0.368 OA
BRANCH   7   8
ATOM      8  C   LIG d   1       2.736  87.601 115.406  0.00  0.00     0.119 C 
BRANCH   8   9
ATOM      9  C   LIG d   1       3.801  88.483 114.728  0.00  0.00     0.028 C 
ATOM     10  C   LIG d   1       4.389  87.828 113.466  0.00  0.00     0.006 C 
ENDBRANCH   8   9
BRANCH   8  11
ATOM     11  C   LIG d   1       2.433  86.485 114.401  0.00  0.00     0.028 C 
ATOM     12  C   LIG d   1       1.458  85.434 114.953  0.00  0.00     0.006 C 
ENDBRANCH   8  11
ENDBRANCH   7   8
ENDBRANCH   1   7
BRANCH   6  13
ATOM     13  N   LIG d   1       3.056  89.586 117.994  0.00  0.00    -0.311 N 
ATOM     14  C   LIG d   1       3.969  90.550 117.882  0.00  0.00     0.210 C 
ATOM     15  C   LIG d   1       5.399  90.130 118.234  0.00  0.00     0.109 C 
ATOM     16  O   LIG d   1       3.724  91.721 117.556  0.00  0.00    -0.276 OA
ATOM     17  H   LIG d   1       3.337  88.674 118.296  0.00  0.00     0.149 HD
ENDBRANCH   6  13
BRANCH   5  18
ATOM     18  N   LIG d   1       1.170  91.423 119.544  0.00  0.00     0.381 N 
ATOM     19  H   LIG d   1       1.784  91.917 118.928  0.00  0.00    -0.090 HD
ATOM     20  H   LIG d   1       1.661  91.244 120.403  0.00  0.00    -0.090 HD
ATOM     21  H   LIG d   1       0.358  91.971 119.725  0.00  0.00    -0.090 HD
ENDBRANCH   5  18
BRANCH   3  22
ATOM     22  C   LIG d   1      -2.484  88.759 117.967  0.00  0.00     0.382 C 
ATOM     23  O   LIG d   1      -3.313  89.110 117.092  0.00  0.00    -0.241 OA
ATOM     24  O   LIG d   1      -2.878  88.131 118.968  0.00  0.00    -0.241 OA
ENDBRANCH   3  22
TORSDOF 7
ENDMDL
MODEL 8
REMARK VINA RESULT:      -4.6      3.945      6.491
REMARK  7 active torsions:
REMARK  status: ('A' for Active; 'I' for Inactive)
REMARK    1  A    between atoms: C_2  and  C_3 
REMARK    2  A    between atoms: C_3  and  O_6 
REMARK    3  A    between atoms: C_3  and  C_4 
REMARK    4  A    between atoms: C_7  and  O_6 
REMARK    5  A    between atoms: C_9  and  C_10 
REMARK    6  A    between atoms: N_15  and  C_14 
REMARK    7  A    between atoms: N_20  and  C_19 
REMARK       I    between atoms: C_22  and  N_20 
ROOT
ATOM      1  C   LIG d   1      -0.035  90.721 117.546  0.00  0.00     0.161 C 
ATOM      2  C   LIG d   1       1.356  90.721 117.746  0.00  0.00     0.016 C 
ATOM      3  C   LIG d   1       2.018  91.622 118.611  0.00  0.00     0.038 C 
ATOM      4  C   LIG d   1       1.312  92.491 119.457  0.00  0.00     0.028 C 
ATOM      5  C   LIG d   1      -0.063  92.874 118.921  0.00  0.00    -0.047 C 
ATOM      6  C   LIG d   1      -0.831  91.587 118.544  0.00  0.00     0.091 C 
ENDROOT
BRANCH   1   7
ATOM      7  O   LIG d   1      -0.529  89.367 117.553  0.00  0.00    -0.368 OA
BRANCH   7   8
ATOM      8  C   LIG d   1      -0.059  88.522 118.632  0.00  0.00     0.119 C 
BRANCH   8   9
ATOM      9  C   LIG d   1       0.509  87.236 118.001  0.00  0.00     0.028 C 
ATOM     10  C   LIG d   1       0.503  87.285 116.464  0.00  0.00     0.006 C 
ENDBRANCH   8   9
BRANCH   8  11
ATOM     11  C   LIG d   1      -1.216  88.059 119.522  0.00  0.00     0.028 C 
ATOM     12  C   LIG d   1      -2.593  88.298 118.881  0.00  0.00     0.006 C 
ENDBRANCH   8  11
ENDBRANCH   7   8
ENDBRANCH   1   7
BRANCH   6  13
ATOM     13  N   LIG d   1      -2.155  91.876 117.932  0.00  0.00    -0.311 N 
ATOM     14  C   LIG d   1      -3.292  91.900 118.624  0.00  0.00     0.210 C 
ATOM     15  C   LIG d   1      -4.546  92.198 117.796  0.00  0.00     0.109 C 
ATOM     16  O   LIG d   1      -3.378  91.735 119.850  0.00  0.00    -0.276 OA
ATOM     17  H   LIG d   1      -2.173  92.052 116.947  0.00  0.00     0.149 HD
ENDBRANCH   6  13
BRANCH   5  18
ATOM     18  N   LIG d   1      -0.741  93.669 119.962  0.00  0.00     0.381 N 
ATOM     19  H   LIG d   1      -1.277  94.399 119.535  0.00  0.00    -0.090 HD
ATOM     20  H   LIG d   1      -0.047  94.092 120.552  0.00  0.00    -0.090 HD
ATOM     21  H   LIG d   1      -1.337  93.083 120.504  0.00  0.00    -0.090 HD
ENDBRANCH   5  18
BRANCH   3  22
ATOM     22  C   LIG d   1       3.403  91.687 118.607  0.00  0.00     0.382 C 
ATOM     23  O   LIG d   1       4.027  91.700 117.518  0.00  0.00    -0.241 OA
ATOM     24  O   LIG d   1       4.038  91.688 119.678  0.00  0.00    -0.241 OA
ENDBRANCH   3  22
TORSDOF 7
ENDMDL
MODEL 9
REMARK VINA RESULT:      -4.6      3.088      5.492
REMARK  7 active torsions:
REMARK  status: ('A' for Active; 'I' for Inactive)
REMARK    1  A    between atoms: C_2  and  C_3 
REMARK    2  A    between atoms: C_3  and  O_6 
REMARK    3  A    between atoms: C_3  and  C_4 
REMARK    4  A    between atoms: C_7  and  O_6 
REMARK    5  A    between atoms: C_9  and  C_10 
REMARK    6  A    between atoms: N_15  and  C_14 
REMARK    7  A    between atoms: N_20  and  C_19 
REMARK       I    between atoms: C_22  and  N_20 
ROOT
ATOM      1  C   LIG d   1      -1.772  91.102 118.690  0.00  0.00     0.161 C 
ATOM      2  C   LIG d   1      -0.441  91.278 119.103  0.00  0.00     0.016 C 
ATOM      3  C   LIG d   1       0.177  92.545 119.220  0.00  0.00     0.038 C 
ATOM      4  C   LIG d   1      -0.547  93.738 119.078  0.00  0.00     0.028 C 
ATOM      5  C   LIG d   1      -1.764  93.604 118.169  0.00  0.00    -0.047 C 
ATOM      6  C   LIG d   1      -2.609  92.398 118.637  0.00  0.00     0.091 C 
ENDROOT
BRANCH   1   7
ATOM      7  O   LIG d   1      -2.418  90.122 119.527  0.00  0.00    -0.368 OA
BRANCH   7   8
ATOM      8  C   LIG d   1      -2.645  88.823 118.927  0.00  0.00     0.119 C 
BRANCH   8   9
ATOM      9  C   LIG d   1      -1.856  87.788 119.753  0.00  0.00     0.028 C 
ATOM     10  C   LIG d   1      -2.774  86.882 120.590  0.00  0.00     0.006 C 
ENDBRANCH   8   9
BRANCH   8  11
ATOM     11  C   LIG d   1      -2.056  88.750 117.515  0.00  0.00     0.028 C 
ATOM     12  C   LIG d   1      -0.738  87.962 117.460  0.00  0.00     0.006 C 
ENDBRANCH   8  11
ENDBRANCH   7   8
ENDBRANCH   1   7
BRANCH   6  13
ATOM     13  N   LIG d   1      -3.775  92.144 117.751  0.00  0.00    -0.311 N 
ATOM     14  C   LIG d   1      -5.035  92.137 118.181  0.00  0.00     0.210 C 
ATOM     15  C   LIG d   1      -6.084  91.835 117.106  0.00  0.00     0.109 C 
ATOM     16  O   LIG d   1      -5.387  92.385 119.344  0.00  0.00    -0.276 OA
ATOM     17  H   LIG d   1      -3.583  91.964 116.785  0.00  0.00     0.149 HD
ENDBRANCH   6  13
BRANCH   5  18
ATOM     18  N   LIG d   1      -2.501  94.881 118.219  0.00  0.00     0.381 N 
ATOM     19  H   LIG d   1      -3.241  94.872 117.546  0.00  0.00    -0.090 HD
ATOM     20  H   LIG d   1      -1.872  95.629 117.986  0.00  0.00    -0.090 HD
ATOM     21  H   LIG d   1      -2.874  95.023 119.132  0.00  0.00    -0.090 HD
ENDBRANCH   5  18
BRANCH   3  22
ATOM     22  C   LIG d   1       1.542  92.625 119.445  0.00  0.00     0.382 C 
ATOM     23  O   LIG d   1       2.345  92.137 118.613  0.00  0.00    -0.241 OA
ATOM     24  O   LIG d   1       1.981  93.141 120.491  0.00  0.00    -0.241 OA
ENDBRANCH   3  22
TORSDOF 7
ENDMDL
