MODEL 1
REMARK VINA RESULT:      -5.5      0.000      0.000
REMARK  7 active torsions:
REMARK  status: ('A' for Active; 'I' for Inactive)
REMARK    1  A    between atoms: C_2  and  C_3 
REMARK    2  A    between atoms: C_3  and  O_6 
REMARK    3  A    between atoms: C_3  and  C_4 
REMARK    4  A    between atoms: C_7  and  O_6 
REMARK    5  A    between atoms: C_9  and  C_10 
REMARK    6  A    between atoms: N_15  and  C_14 
REMARK    7  A    between atoms: N_20  and  C_19 
REMARK       I    between atoms: C_22  and  N_20 
ROOT
ATOM      1  C   LIG d   1      -5.039  92.851 117.379  0.00  0.00     0.161 C 
ATOM      2  C   LIG d   1      -5.431  94.066 117.964  0.00  0.00     0.016 C 
ATOM      3  C   LIG d   1      -6.544  94.819 117.523  0.00  0.00     0.038 C 
ATOM      4  C   LIG d   1      -7.437  94.327 116.558  0.00  0.00     0.028 C 
ATOM      5  C   LIG d   1      -6.797  93.339 115.589  0.00  0.00    -0.047 C 
ATOM      6  C   LIG d   1      -6.065  92.244 116.399  0.00  0.00     0.091 C 
ENDROOT
BRANCH   1   7
ATOM      7  O   LIG d   1      -4.706  91.898 118.409  0.00  0.00    -0.368 OA
BRANCH   7   8
ATOM      8  C   LIG d   1      -3.372  91.336 118.349  0.00  0.00     0.119 C 
BRANCH   8   9
ATOM      9  C   LIG d   1      -3.473  89.858 118.771  0.00  0.00     0.028 C 
ATOM     10  C   LIG d   1      -2.614  88.936 117.890  0.00  0.00     0.006 C 
ENDBRANCH   8   9
BRANCH   8  11
ATOM     11  C   LIG d   1      -2.446  91.989 119.379  0.00  0.00     0.028 C 
ATOM     12  C   LIG d   1      -1.586  93.114 118.780  0.00  0.00     0.006 C 
ENDBRANCH   8  11
ENDBRANCH   7   8
ENDBRANCH   1   7
BRANCH   6  13
ATOM     13  N   LIG d   1      -5.341  91.283 115.528  0.00  0.00    -0.311 N 
ATOM     14  C   LIG d   1      -5.492  89.962 115.609  0.00  0.00     0.210 C 
ATOM     15  C   LIG d   1      -4.635  89.152 114.630  0.00  0.00     0.109 C 
ATOM     16  O   LIG d   1      -6.277  89.385 116.376  0.00  0.00    -0.276 OA
ATOM     17  H   LIG d   1      -4.706  91.666 114.855  0.00  0.00     0.149 HD
ENDBRANCH   6  13
BRANCH   5  18
ATOM     18  N   LIG d   1      -7.867  92.803 114.728  0.00  0.00     0.381 N 
ATOM     19  H   LIG d   1      -8.735  92.802 115.226  0.00  0.00    -0.090 HD
ATOM     20  H   LIG d   1      -7.644  91.854 114.484  0.00  0.00    -0.090 HD
ATOM     21  H   LIG d   1      -7.950  93.355 113.903  0.00  0.00    -0.090 HD
ENDBRANCH   5  18
BRANCH   3  22
ATOM     22  C   LIG d   1      -6.751  96.096 118.021  0.00  0.00     0.382 C 
ATOM     23  O   LIG d   1      -6.477  96.355 119.218  0.00  0.00    -0.241 OA
ATOM     24  O   LIG d   1      -7.250  96.982 117.301  0.00  0.00    -0.241 OA
ENDBRANCH   3  22
TORSDOF 7
ENDMDL
MODEL 2
REMARK VINA RESULT:      -5.4      2.318      4.042
REMARK  7 active torsions:
REMARK  status: ('A' for Active; 'I' for Inactive)
REMARK    1  A    between atoms: C_2  and  C_3 
REMARK    2  A    between atoms: C_3  and  O_6 
REMARK    3  A    between atoms: C_3  and  C_4 
REMARK    4  A    between atoms: C_7  and  O_6 
REMARK    5  A    between atoms: C_9  and  C_10 
REMARK    6  A    between atoms: N_15  and  C_14 
REMARK    7  A    between atoms: N_20  and  C_19 
REMARK       I    between atoms: C_22  and  N_20 
ROOT
ATOM      1  C   LIG d   1      -5.652  92.897 116.943  0.00  0.00     0.161 C 
ATOM      2  C   LIG d   1      -6.898  93.338 117.419  0.00  0.00     0.016 C 
ATOM      3  C   LIG d   1      -7.044  94.354 118.392  0.00  0.00     0.038 C 
ATOM      4  C   LIG d   1      -5.951  95.107 118.847  0.00  0.00     0.028 C 
ATOM      5  C   LIG d   1      -4.625  94.357 118.771  0.00  0.00    -0.047 C 
ATOM      6  C   LIG d   1      -4.455  93.783 117.346  0.00  0.00     0.091 C 
ENDROOT
BRANCH   1   7
ATOM      7  O   LIG d   1      -5.702  92.744 115.511  0.00  0.00    -0.368 OA
BRANCH   7   8
ATOM      8  C   LIG d   1      -5.743  91.383 115.016  0.00  0.00     0.119 C 
BRANCH   8   9
ATOM      9  C   LIG d   1      -7.146  91.147 114.426  0.00  0.00     0.028 C 
ATOM     10  C   LIG d   1      -7.889  89.993 115.120  0.00  0.00     0.006 C 
ENDBRANCH   8   9
BRANCH   8  11
ATOM     11  C   LIG d   1      -5.607  90.371 116.157  0.00  0.00     0.028 C 
ATOM     12  C   LIG d   1      -4.437  89.396 115.953  0.00  0.00     0.006 C 
ENDBRANCH   8  11
ENDBRANCH   7   8
ENDBRANCH   1   7
BRANCH   6  13
ATOM     13  N   LIG d   1      -3.222  92.964 117.209  0.00  0.00    -0.311 N 
ATOM     14  C   LIG d   1      -2.901  91.978 118.045  0.00  0.00     0.210 C 
ATOM     15  C   LIG d   1      -1.577  91.273 117.735  0.00  0.00     0.109 C 
ATOM     16  O   LIG d   1      -3.602  91.599 118.995  0.00  0.00    -0.276 OA
ATOM     17  H   LIG d   1      -2.611  93.183 116.447  0.00  0.00     0.149 HD
ENDBRANCH   6  13
BRANCH   5  18
ATOM     18  N   LIG d   1      -3.557  95.303 119.145  0.00  0.00     0.381 N 
ATOM     19  H   LIG d   1      -3.242  95.797 118.334  0.00  0.00    -0.090 HD
ATOM     20  H   LIG d   1      -2.781  94.786 119.519  0.00  0.00    -0.090 HD
ATOM     21  H   LIG d   1      -3.895  95.948 119.825  0.00  0.00    -0.090 HD
ENDBRANCH   5  18
BRANCH   3  22
ATOM     22  C   LIG d   1      -8.290  94.598 118.949  0.00  0.00     0.382 C 
ATOM     23  O   LIG d   1      -9.205  93.748 118.833  0.00  0.00    -0.241 OA
ATOM     24  O   LIG d   1      -8.523  95.676 119.528  0.00  0.00    -0.241 OA
ENDBRANCH   3  22
TORSDOF 7
ENDMDL
MODEL 3
REMARK VINA RESULT:      -5.1      1.959      4.744
REMARK  7 active torsions:
REMARK  status: ('A' for Active; 'I' for Inactive)
REMARK    1  A    between atoms: C_2  and  C_3 
REMARK    2  A    between atoms: C_3  and  O_6 
REMARK    3  A    between atoms: C_3  and  C_4 
REMARK    4  A    between atoms: C_7  and  O_6 
REMARK    5  A    between atoms: C_9  and  C_10 
REMARK    6  A    between atoms: N_15  and  C_14 
REMARK    7  A    between atoms: N_20  and  C_19 
REMARK       I    between atoms: C_22  and  N_20 
ROOT
ATOM      1  C   LIG d   1      -4.599  92.744 117.241  0.00  0.00     0.161 C 
ATOM      2  C   LIG d   1      -4.305  91.447 116.787  0.00  0.00     0.016 C 
ATOM      3  C   LIG d   1      -5.018  90.808 115.746  0.00  0.00     0.038 C 
ATOM      4  C   LIG d   1      -5.981  91.484 114.983  0.00  0.00     0.028 C 
ATOM      5  C   LIG d   1      -6.659  92.624 115.735  0.00  0.00    -0.047 C 
ATOM      6  C   LIG d   1      -5.573  93.538 116.346  0.00  0.00     0.091 C 
ENDROOT
BRANCH   1   7
ATOM      7  O   LIG d   1      -3.376  93.483 117.431  0.00  0.00    -0.368 OA
BRANCH   7   8
ATOM      8  C   LIG d   1      -3.055  93.845 118.797  0.00  0.00     0.119 C 
BRANCH   8   9
ATOM      9  C   LIG d   1      -1.723  93.159 119.156  0.00  0.00     0.028 C 
ATOM     10  C   LIG d   1      -1.930  91.788 119.822  0.00  0.00     0.006 C 
ENDBRANCH   8   9
BRANCH   8  11
ATOM     11  C   LIG d   1      -4.083  93.276 119.780  0.00  0.00     0.028 C 
ATOM     12  C   LIG d   1      -4.685  94.349 120.700  0.00  0.00     0.006 C 
ENDBRANCH   8  11
ENDBRANCH   7   8
ENDBRANCH   1   7
BRANCH   6  13
ATOM     13  N   LIG d   1      -6.151  94.632 117.170  0.00  0.00    -0.311 N 
ATOM     14  C   LIG d   1      -7.224  94.479 117.943  0.00  0.00     0.210 C 
ATOM     15  C   LIG d   1      -7.666  95.739 118.693  0.00  0.00     0.109 C 
ATOM     16  O   LIG d   1      -7.833  93.410 118.104  0.00  0.00    -0.276 OA
ATOM     17  H   LIG d   1      -5.700  95.525 117.123  0.00  0.00     0.149 HD
ENDBRANCH   6  13
BRANCH   5  18
ATOM     18  N   LIG d   1      -7.537  93.327 114.780  0.00  0.00     0.381 N 
ATOM     19  H   LIG d   1      -7.018  93.573 113.961  0.00  0.00    -0.090 HD
ATOM     20  H   LIG d   1      -7.871  94.173 115.208  0.00  0.00    -0.090 HD
ATOM     21  H   LIG d   1      -8.307  92.746 114.533  0.00  0.00    -0.090 HD
ENDBRANCH   5  18
BRANCH   3  22
ATOM     22  C   LIG d   1      -4.796  89.464 115.487  0.00  0.00     0.382 C 
ATOM     23  O   LIG d   1      -5.078  88.988 114.361  0.00  0.00    -0.241 OA
ATOM     24  O   LIG d   1      -4.360  88.712 116.379  0.00  0.00    -0.241 OA
ENDBRANCH   3  22
TORSDOF 7
ENDMDL
MODEL 4
REMARK VINA RESULT:      -5.1      2.250      4.269
REMARK  7 active torsions:
REMARK  status: ('A' for Active; 'I' for Inactive)
REMARK    1  A    between atoms: C_2  and  C_3 
REMARK    2  A    between atoms: C_3  and  O_6 
REMARK    3  A    between atoms: C_3  and  C_4 
REMARK    4  A    between atoms: C_7  and  O_6 
REMARK    5  A    between atoms: C_9  and  C_10 
REMARK    6  A    between atoms: N_15  and  C_14 
REMARK    7  A    between atoms: N_20  and  C_19 
REMARK       I    between atoms: C_22  and  N_20 
ROOT
ATOM      1  C   LIG d   1      -5.557  90.890 117.379  0.00  0.00     0.161 C 
ATOM      2  C   LIG d   1      -6.558  91.788 116.972  0.00  0.00     0.016 C 
ATOM      3  C   LIG d   1      -6.344  93.177 116.823  0.00  0.00     0.038 C 
ATOM      4  C   LIG d   1      -5.065  93.745 116.925  0.00  0.00     0.028 C 
ATOM      5  C   LIG d   1      -4.122  92.956 117.827  0.00  0.00    -0.047 C 
ATOM      6  C   LIG d   1      -4.129  91.474 117.387  0.00  0.00     0.091 C 
ENDROOT
BRANCH   1   7
ATOM      7  O   LIG d   1      -5.608  89.701 116.566  0.00  0.00    -0.368 OA
BRANCH   7   8
ATOM      8  C   LIG d   1      -5.324  89.880 115.156  0.00  0.00     0.119 C 
BRANCH   8   9
ATOM      9  C   LIG d   1      -6.637  89.646 114.386  0.00  0.00     0.028 C 
ATOM     10  C   LIG d   1      -7.190  90.938 113.760  0.00  0.00     0.006 C 
ENDBRANCH   8   9
BRANCH   8  11
ATOM     11  C   LIG d   1      -4.356  88.810 114.642  0.00  0.00     0.028 C 
ATOM     12  C   LIG d   1      -3.568  88.128 115.772  0.00  0.00     0.006 C 
ENDBRANCH   8  11
ENDBRANCH   7   8
ENDBRANCH   1   7
BRANCH   6  13
ATOM     13  N   LIG d   1      -3.297  90.616 118.271  0.00  0.00    -0.311 N 
ATOM     14  C   LIG d   1      -2.002  90.387 118.062  0.00  0.00     0.210 C 
ATOM     15  C   LIG d   1      -1.337  89.457 119.082  0.00  0.00     0.109 C 
ATOM     16  O   LIG d   1      -1.333  90.892 117.148  0.00  0.00    -0.276 OA
ATOM     17  H   LIG d   1      -3.753  90.192 119.055  0.00  0.00     0.149 HD
ENDBRANCH   6  13
BRANCH   5  18
ATOM     18  N   LIG d   1      -2.789  93.581 117.734  0.00  0.00     0.381 N 
ATOM     19  H   LIG d   1      -2.098  92.879 117.558  0.00  0.00    -0.090 HD
ATOM     20  H   LIG d   1      -2.575  94.022 118.611  0.00  0.00    -0.090 HD
ATOM     21  H   LIG d   1      -2.780  94.257 117.002  0.00  0.00    -0.090 HD
ENDBRANCH   5  18
BRANCH   3  22
ATOM     22  C   LIG d   1      -7.423  94.020 116.607  0.00  0.00     0.382 C 
ATOM     23  O   LIG d   1      -8.488  93.564 116.124  0.00  0.00    -0.241 OA
ATOM     24  O   LIG d   1      -7.331  95.239 116.848  0.00  0.00    -0.241 OA
ENDBRANCH   3  22
TORSDOF 7
ENDMDL
MODEL 5
REMARK VINA RESULT:      -5.0      2.762      6.850
REMARK  7 active torsions:
REMARK  status: ('A' for Active; 'I' for Inactive)
REMARK    1  A    between atoms: C_2  and  C_3 
REMARK    2  A    between atoms: C_3  and  O_6 
REMARK    3  A    between atoms: C_3  and  C_4 
REMARK    4  A    between atoms: C_7  and  O_6 
REMARK    5  A    between atoms: C_9  and  C_10 
REMARK    6  A    between atoms: N_15  and  C_14 
REMARK    7  A    between atoms: N_20  and  C_19 
REMARK       I    between atoms: C_22  and  N_20 
ROOT
ATOM      1  C   LIG d   1      -4.150  90.503 116.232  0.00  0.00     0.161 C 
ATOM      2  C   LIG d   1      -4.225  89.391 115.377  0.00  0.00     0.016 C 
ATOM      3  C   LIG d   1      -3.509  88.192 115.595  0.00  0.00     0.038 C 
ATOM      4  C   LIG d   1      -2.780  87.967 116.773  0.00  0.00     0.028 C 
ATOM      5  C   LIG d   1      -2.269  89.249 117.423  0.00  0.00    -0.047 C 
ATOM      6  C   LIG d   1      -3.448  90.236 117.580  0.00  0.00     0.091 C 
ENDROOT
BRANCH   1   7
ATOM      7  O   LIG d   1      -5.470  91.040 116.453  0.00  0.00    -0.368 OA
BRANCH   7   8
ATOM      8  C   LIG d   1      -5.906  92.062 115.523  0.00  0.00     0.119 C 
BRANCH   8   9
ATOM      9  C   LIG d   1      -6.037  93.379 116.311  0.00  0.00     0.028 C 
ATOM     10  C   LIG d   1      -7.340  94.130 115.987  0.00  0.00     0.006 C 
ENDBRANCH   8   9
BRANCH   8  11
ATOM     11  C   LIG d   1      -7.311  91.767 114.989  0.00  0.00     0.028 C 
ATOM     12  C   LIG d   1      -7.315  90.709 113.874  0.00  0.00     0.006 C 
ENDBRANCH   8  11
ENDBRANCH   7   8
ENDBRANCH   1   7
BRANCH   6  13
ATOM     13  N   LIG d   1      -3.019  91.548 118.131  0.00  0.00    -0.311 N 
ATOM     14  C   LIG d   1      -3.526  92.078 119.243  0.00  0.00     0.210 C 
ATOM     15  C   LIG d   1      -2.958  93.448 119.624  0.00  0.00     0.109 C 
ATOM     16  O   LIG d   1      -4.370  91.528 119.967  0.00  0.00    -0.276 OA
ATOM     17  H   LIG d   1      -2.315  92.048 117.623  0.00  0.00     0.149 HD
ENDBRANCH   6  13
BRANCH   5  18
ATOM     18  N   LIG d   1      -1.649  88.879 118.709  0.00  0.00     0.381 N 
ATOM     19  H   LIG d   1      -1.985  89.482 119.433  0.00  0.00    -0.090 HD
ATOM     20  H   LIG d   1      -0.654  88.999 118.636  0.00  0.00    -0.090 HD
ATOM     21  H   LIG d   1      -1.861  87.932 118.931  0.00  0.00    -0.090 HD
ENDBRANCH   5  18
BRANCH   3  22
ATOM     22  C   LIG d   1      -3.484  87.217 114.610  0.00  0.00     0.382 C 
ATOM     23  O   LIG d   1      -2.679  86.259 114.695  0.00  0.00    -0.241 OA
ATOM     24  O   LIG d   1      -4.227  87.307 113.614  0.00  0.00    -0.241 OA
ENDBRANCH   3  22
TORSDOF 7
ENDMDL
MODEL 6
REMARK VINA RESULT:      -4.9      2.173      4.603
REMARK  7 active torsions:
REMARK  status: ('A' for Active; 'I' for Inactive)
REMARK    1  A    between atoms: C_2  and  C_3 
REMARK    2  A    between atoms: C_3  and  O_6 
REMARK    3  A    between atoms: C_3  and  C_4 
REMARK    4  A    between atoms: C_7  and  O_6 
REMARK    5  A    between atoms: C_9  and  C_10 
REMARK    6  A    between atoms: N_15  and  C_14 
REMARK    7  A    between atoms: N_20  and  C_19 
REMARK       I    between atoms: C_22  and  N_20 
ROOT
ATOM      1  C   LIG d   1      -5.114  92.219 117.405  0.00  0.00     0.161 C 
ATOM      2  C   LIG d   1      -5.711  91.396 116.436  0.00  0.00     0.016 C 
ATOM      3  C   LIG d   1      -6.737  91.834 115.568  0.00  0.00     0.038 C 
ATOM      4  C   LIG d   1      -7.132  93.179 115.507  0.00  0.00     0.028 C 
ATOM      5  C   LIG d   1      -6.913  93.934 116.813  0.00  0.00    -0.047 C 
ATOM      6  C   LIG d   1      -5.454  93.719 117.279  0.00  0.00     0.091 C 
ENDROOT
BRANCH   1   7
ATOM      7  O   LIG d   1      -3.685  92.028 117.396  0.00  0.00    -0.368 OA
BRANCH   7   8
ATOM      8  C   LIG d   1      -3.172  91.014 118.295  0.00  0.00     0.119 C 
BRANCH   8   9
ATOM      9  C   LIG d   1      -2.459  91.739 119.452  0.00  0.00     0.028 C 
ATOM     10  C   LIG d   1      -1.234  92.539 118.979  0.00  0.00     0.006 C 
ENDBRANCH   8   9
BRANCH   8  11
ATOM     11  C   LIG d   1      -2.089  90.167 117.619  0.00  0.00     0.028 C 
ATOM     12  C   LIG d   1      -2.392  88.661 117.671  0.00  0.00     0.006 C 
ENDBRANCH   8  11
ENDBRANCH   7   8
ENDBRANCH   1   7
BRANCH   6  13
ATOM     13  N   LIG d   1      -5.179  94.355 118.593  0.00  0.00    -0.311 N 
ATOM     14  C   LIG d   1      -4.086  95.073 118.845  0.00  0.00     0.210 C 
ATOM     15  C   LIG d   1      -3.988  95.624 120.272  0.00  0.00     0.109 C 
ATOM     16  O   LIG d   1      -3.203  95.333 118.014  0.00  0.00    -0.276 OA
ATOM     17  H   LIG d   1      -5.858  94.221 119.316  0.00  0.00     0.149 HD
ENDBRANCH   6  13
BRANCH   5  18
ATOM     18  N   LIG d   1      -7.238  95.352 116.568  0.00  0.00     0.381 N 
ATOM     19  H   LIG d   1      -7.082  95.884 117.401  0.00  0.00    -0.090 HD
ATOM     20  H   LIG d   1      -8.210  95.425 116.325  0.00  0.00    -0.090 HD
ATOM     21  H   LIG d   1      -6.675  95.708 115.827  0.00  0.00    -0.090 HD
ENDBRANCH   5  18
BRANCH   3  22
ATOM     22  C   LIG d   1      -7.406  90.914 114.775  0.00  0.00     0.382 C 
ATOM     23  O   LIG d   1      -7.215  90.898 113.536  0.00  0.00    -0.241 OA
ATOM     24  O   LIG d   1      -8.232  90.130 115.279  0.00  0.00    -0.241 OA
ENDBRANCH   3  22
TORSDOF 7
ENDMDL
MODEL 7
REMARK VINA RESULT:      -4.8      2.563      4.429
REMARK  7 active torsions:
REMARK  status: ('A' for Active; 'I' for Inactive)
REMARK    1  A    between atoms: C_2  and  C_3 
REMARK    2  A    between atoms: C_3  and  O_6 
REMARK    3  A    between atoms: C_3  and  C_4 
REMARK    4  A    between atoms: C_7  and  O_6 
REMARK    5  A    between atoms: C_9  and  C_10 
REMARK    6  A    between atoms: N_15  and  C_14 
REMARK    7  A    between atoms: N_20  and  C_19 
REMARK       I    between atoms: C_22  and  N_20 
ROOT
ATOM      1  C   LIG d   1      -5.403  92.920 117.684  0.00  0.00     0.161 C 
ATOM      2  C   LIG d   1      -6.708  93.392 117.901  0.00  0.00     0.016 C 
ATOM      3  C   LIG d   1      -7.006  94.505 118.720  0.00  0.00     0.038 C 
ATOM      4  C   LIG d   1      -5.999  95.319 119.261  0.00  0.00     0.028 C 
ATOM      5  C   LIG d   1      -4.681  94.585 119.482  0.00  0.00    -0.047 C 
ATOM      6  C   LIG d   1      -4.284  93.861 118.176  0.00  0.00     0.091 C 
ENDROOT
BRANCH   1   7
ATOM      7  O   LIG d   1      -5.221  92.611 116.287  0.00  0.00    -0.368 OA
BRANCH   7   8
ATOM      8  C   LIG d   1      -5.629  91.286 115.869  0.00  0.00     0.119 C 
BRANCH   8   9
ATOM      9  C   LIG d   1      -4.355  90.429 115.736  0.00  0.00     0.028 C 
ATOM     10  C   LIG d   1      -4.033  89.653 117.024  0.00  0.00     0.006 C 
ENDBRANCH   8   9
BRANCH   8  11
ATOM     11  C   LIG d   1      -6.249  91.310 114.469  0.00  0.00     0.028 C 
ATOM     12  C   LIG d   1      -6.994  90.010 114.124  0.00  0.00     0.006 C 
ENDBRANCH   8  11
ENDBRANCH   7   8
ENDBRANCH   1   7
BRANCH   6  13
ATOM     13  N   LIG d   1      -3.049  93.049 118.330  0.00  0.00    -0.311 N 
ATOM     14  C   LIG d   1      -1.826  93.523 118.097  0.00  0.00     0.210 C 
ATOM     15  C   LIG d   1      -0.692  92.513 118.298  0.00  0.00     0.109 C 
ATOM     16  O   LIG d   1      -1.571  94.693 117.774  0.00  0.00    -0.276 OA
ATOM     17  H   LIG d   1      -3.162  92.097 118.620  0.00  0.00     0.149 HD
ENDBRANCH   6  13
BRANCH   5  18
ATOM     18  N   LIG d   1      -3.684  95.581 119.918  0.00  0.00     0.381 N 
ATOM     19  H   LIG d   1      -3.529  95.496 120.903  0.00  0.00    -0.090 HD
ATOM     20  H   LIG d   1      -4.042  96.501 119.734  0.00  0.00    -0.090 HD
ATOM     21  H   LIG d   1      -2.829  95.444 119.427  0.00  0.00    -0.090 HD
ENDBRANCH   5  18
BRANCH   3  22
ATOM     22  C   LIG d   1      -8.325  94.791 119.038  0.00  0.00     0.382 C 
ATOM     23  O   LIG d   1      -8.598  95.793 119.742  0.00  0.00    -0.241 OA
ATOM     24  O   LIG d   1      -9.243  94.034 118.667  0.00  0.00    -0.241 OA
ENDBRANCH   3  22
TORSDOF 7
ENDMDL
MODEL 8
REMARK VINA RESULT:      -4.7      2.814      4.931
REMARK  7 active torsions:
REMARK  status: ('A' for Active; 'I' for Inactive)
REMARK    1  A    between atoms: C_2  and  C_3 
REMARK    2  A    between atoms: C_3  and  O_6 
REMARK    3  A    between atoms: C_3  and  C_4 
REMARK    4  A    between atoms: C_7  and  O_6 
REMARK    5  A    between atoms: C_9  and  C_10 
REMARK    6  A    between atoms: N_15  and  C_14 
REMARK    7  A    between atoms: N_20  and  C_19 
REMARK       I    between atoms: C_22  and  N_20 
ROOT
ATOM      1  C   LIG d   1      -4.196  90.272 117.162  0.00  0.00     0.161 C 
ATOM      2  C   LIG d   1      -5.206  89.929 116.247  0.00  0.00     0.016 C 
ATOM      3  C   LIG d   1      -6.075  90.876 115.657  0.00  0.00     0.038 C 
ATOM      4  C   LIG d   1      -5.894  92.256 115.828  0.00  0.00     0.028 C 
ATOM      5  C   LIG d   1      -5.205  92.619 117.140  0.00  0.00    -0.047 C 
ATOM      6  C   LIG d   1      -3.911  91.784 117.275  0.00  0.00     0.091 C 
ENDROOT
BRANCH   1   7
ATOM      7  O   LIG d   1      -2.986  89.556 116.843  0.00  0.00    -0.368 OA
BRANCH   7   8
ATOM      8  C   LIG d   1      -2.680  88.415 117.682  0.00  0.00     0.119 C 
BRANCH   8   9
ATOM      9  C   LIG d   1      -1.589  88.853 118.679  0.00  0.00     0.028 C 
ATOM     10  C   LIG d   1      -2.110  88.924 120.125  0.00  0.00     0.006 C 
ENDBRANCH   8   9
BRANCH   8  11
ATOM     11  C   LIG d   1      -2.054  87.278 116.870  0.00  0.00     0.028 C 
ATOM     12  C   LIG d   1      -2.792  87.014 115.547  0.00  0.00     0.006 C 
ENDBRANCH   8  11
ENDBRANCH   7   8
ENDBRANCH   1   7
BRANCH   6  13
ATOM     13  N   LIG d   1      -3.219  92.016 118.569  0.00  0.00    -0.311 N 
ATOM     14  C   LIG d   1      -2.245  92.910 118.730  0.00  0.00     0.210 C 
ATOM     15  C   LIG d   1      -1.654  92.974 120.142  0.00  0.00     0.109 C 
ATOM     16  O   LIG d   1      -1.837  93.677 117.846  0.00  0.00    -0.276 OA
ATOM     17  H   LIG d   1      -3.510  91.457 119.348  0.00  0.00     0.149 HD
ENDBRANCH   6  13
BRANCH   5  18
ATOM     18  N   LIG d   1      -4.956  94.073 117.125  0.00  0.00     0.381 N 
ATOM     19  H   LIG d   1      -4.358  94.306 116.358  0.00  0.00    -0.090 HD
ATOM     20  H   LIG d   1      -4.491  94.332 117.977  0.00  0.00    -0.090 HD
ATOM     21  H   LIG d   1      -5.818  94.566 117.045  0.00  0.00    -0.090 HD
ENDBRANCH   5  18
BRANCH   3  22
ATOM     22  C   LIG d   1      -7.165  90.441 114.918  0.00  0.00     0.382 C 
ATOM     23  O   LIG d   1      -7.226  90.685 113.689  0.00  0.00    -0.241 OA
ATOM     24  O   LIG d   1      -8.108  89.847 115.473  0.00  0.00    -0.241 OA
ENDBRANCH   3  22
TORSDOF 7
ENDMDL
MODEL 9
REMARK VINA RESULT:      -4.7      2.127      4.841
REMARK  7 active torsions:
REMARK  status: ('A' for Active; 'I' for Inactive)
REMARK    1  A    between atoms: C_2  and  C_3 
REMARK    2  A    between atoms: C_3  and  O_6 
REMARK    3  A    between atoms: C_3  and  C_4 
REMARK    4  A    between atoms: C_7  and  O_6 
REMARK    5  A    between atoms: C_9  and  C_10 
REMARK    6  A    between atoms: N_15  and  C_14 
REMARK    7  A    between atoms: N_20  and  C_19 
REMARK       I    between atoms: C_22  and  N_20 
ROOT
ATOM      1  C   LIG d   1      -5.687  92.827 117.779  0.00  0.00     0.161 C 
ATOM      2  C   LIG d   1      -5.522  91.592 117.130  0.00  0.00     0.016 C 
ATOM      3  C   LIG d   1      -6.259  91.210 115.985  0.00  0.00     0.038 C 
ATOM      4  C   LIG d   1      -7.108  92.105 115.317  0.00  0.00     0.028 C 
ATOM      5  C   LIG d   1      -7.684  93.186 116.226  0.00  0.00    -0.047 C 
ATOM      6  C   LIG d   1      -6.528  93.859 117.000  0.00  0.00     0.091 C 
ENDROOT
BRANCH   1   7
ATOM      7  O   LIG d   1      -4.398  93.379 118.112  0.00  0.00    -0.368 OA
BRANCH   7   8
ATOM      8  C   LIG d   1      -4.042  93.366 119.516  0.00  0.00     0.119 C 
BRANCH   8   9
ATOM      9  C   LIG d   1      -3.697  94.813 119.920  0.00  0.00     0.028 C 
ATOM     10  C   LIG d   1      -3.493  95.729 118.702  0.00  0.00     0.006 C 
ENDBRANCH   8   9
BRANCH   8  11
ATOM     11  C   LIG d   1      -2.762  92.561 119.760  0.00  0.00     0.028 C 
ATOM     12  C   LIG d   1      -2.000  92.248 118.463  0.00  0.00     0.006 C 
ENDBRANCH   8  11
ENDBRANCH   7   8
ENDBRANCH   1   7
BRANCH   6  13
ATOM     13  N   LIG d   1      -7.012  94.872 117.974  0.00  0.00    -0.311 N 
ATOM     14  C   LIG d   1      -8.156  94.754 118.646  0.00  0.00     0.210 C 
ATOM     15  C   LIG d   1      -8.477  95.921 119.585  0.00  0.00     0.109 C 
ATOM     16  O   LIG d   1      -8.920  93.780 118.577  0.00  0.00    -0.276 OA
ATOM     17  H   LIG d   1      -6.439  95.680 118.115  0.00  0.00     0.149 HD
ENDBRANCH   6  13
BRANCH   5  18
ATOM     18  N   LIG d   1      -8.437  94.127 115.376  0.00  0.00     0.381 N 
ATOM     19  H   LIG d   1      -7.807  94.774 114.946  0.00  0.00    -0.090 HD
ATOM     20  H   LIG d   1      -9.076  94.646 115.953  0.00  0.00    -0.090 HD
ATOM     21  H   LIG d   1      -8.941  93.627 114.677  0.00  0.00    -0.090 HD
ENDBRANCH   5  18
BRANCH   3  22
ATOM     22  C   LIG d   1      -6.179  89.906 115.520  0.00  0.00     0.382 C 
ATOM     23  O   LIG d   1      -5.496  89.058 116.144  0.00  0.00    -0.241 OA
ATOM     24  O   LIG d   1      -6.745  89.578 114.461  0.00  0.00    -0.241 OA
ENDBRANCH   3  22
TORSDOF 7
ENDMDL
