MODEL 1
REMARK VINA RESULT:      -5.9      0.000      0.000
REMARK  7 active torsions:
REMARK  status: ('A' for Active; 'I' for Inactive)
REMARK    1  A    between atoms: C_2  and  C_3 
REMARK    2  A    between atoms: C_3  and  O_6 
REMARK    3  A    between atoms: C_3  and  C_4 
REMARK    4  A    between atoms: C_7  and  O_6 
REMARK    5  A    between atoms: C_9  and  C_10 
REMARK    6  A    between atoms: N_15  and  C_14 
REMARK    7  A    between atoms: N_20  and  C_19 
REMARK       I    between atoms: C_22  and  N_20 
ROOT
ATOM      1  C   LIG d   1      -3.492  90.983 117.271  0.00  0.00     0.161 C 
ATOM      2  C   LIG d   1      -3.978  90.291 116.149  0.00  0.00     0.016 C 
ATOM      3  C   LIG d   1      -5.217  90.580 115.533  0.00  0.00     0.038 C 
ATOM      4  C   LIG d   1      -5.991  91.689 115.908  0.00  0.00     0.028 C 
ATOM      5  C   LIG d   1      -5.785  92.109 117.359  0.00  0.00    -0.047 C 
ATOM      6  C   LIG d   1      -4.270  92.268 117.626  0.00  0.00     0.091 C 
ENDROOT
BRANCH   1   7
ATOM      7  O   LIG d   1      -2.092  91.277 117.095  0.00  0.00    -0.368 OA
BRANCH   7   8
ATOM      8  C   LIG d   1      -1.175  90.536 117.937  0.00  0.00     0.119 C 
BRANCH   8   9
ATOM      9  C   LIG d   1      -0.123  89.888 117.016  0.00  0.00     0.028 C 
ATOM     10  C   LIG d   1       1.252  89.762 117.693  0.00  0.00     0.006 C 
ENDBRANCH   8   9
BRANCH   8  11
ATOM     11  C   LIG d   1      -1.878  89.368 118.634  0.00  0.00     0.028 C 
ATOM     12  C   LIG d   1      -1.702  89.392 120.161  0.00  0.00     0.006 C 
ENDBRANCH   8  11
ENDBRANCH   7   8
ENDBRANCH   1   7
BRANCH   6  13
ATOM     13  N   LIG d   1      -3.975  92.595 119.045  0.00  0.00    -0.311 N 
ATOM     14  C   LIG d   1      -3.192  93.605 119.417  0.00  0.00     0.210 C 
ATOM     15  C   LIG d   1      -3.004  93.755 120.930  0.00  0.00     0.109 C 
ATOM     16  O   LIG d   1      -2.660  94.411 118.639  0.00  0.00    -0.276 OA
ATOM     17  H   LIG d   1      -4.391  92.010 119.744  0.00  0.00     0.149 HD
ENDBRANCH   6  13
BRANCH   5  18
ATOM     18  N   LIG d   1      -6.543  93.355 117.575  0.00  0.00     0.381 N 
ATOM     19  H   LIG d   1      -6.334  94.010 116.848  0.00  0.00    -0.090 HD
ATOM     20  H   LIG d   1      -6.264  93.758 118.452  0.00  0.00    -0.090 HD
ATOM     21  H   LIG d   1      -7.521  93.162 117.586  0.00  0.00    -0.090 HD
ENDBRANCH   5  18
BRANCH   3  22
ATOM     22  C   LIG d   1      -5.714  89.731 114.556  0.00  0.00     0.382 C 
ATOM     23  O   LIG d   1      -4.935  88.970 113.933  0.00  0.00    -0.241 OA
ATOM     24  O   LIG d   1      -6.923  89.749 114.258  0.00  0.00    -0.241 OA
ENDBRANCH   3  22
TORSDOF 7
ENDMDL
MODEL 2
REMARK VINA RESULT:      -5.6      1.709      4.788
REMARK  7 active torsions:
REMARK  status: ('A' for Active; 'I' for Inactive)
REMARK    1  A    between atoms: C_2  and  C_3 
REMARK    2  A    between atoms: C_3  and  O_6 
REMARK    3  A    between atoms: C_3  and  C_4 
REMARK    4  A    between atoms: C_7  and  O_6 
REMARK    5  A    between atoms: C_9  and  C_10 
REMARK    6  A    between atoms: N_15  and  C_14 
REMARK    7  A    between atoms: N_20  and  C_19 
REMARK       I    between atoms: C_22  and  N_20 
ROOT
ATOM      1  C   LIG d   1      -3.925  92.439 117.323  0.00  0.00     0.161 C 
ATOM      2  C   LIG d   1      -3.188  93.066 118.342  0.00  0.00     0.016 C 
ATOM      3  C   LIG d   1      -3.766  93.543 119.540  0.00  0.00     0.038 C 
ATOM      4  C   LIG d   1      -5.106  93.288 119.870  0.00  0.00     0.028 C 
ATOM      5  C   LIG d   1      -6.004  93.102 118.652  0.00  0.00    -0.047 C 
ATOM      6  C   LIG d   1      -5.367  92.052 117.713  0.00  0.00     0.091 C 
ENDROOT
BRANCH   1   7
ATOM      7  O   LIG d   1      -3.209  91.284 116.843  0.00  0.00    -0.368 OA
BRANCH   7   8
ATOM      8  C   LIG d   1      -2.112  90.824 117.670  0.00  0.00     0.119 C 
BRANCH   8   9
ATOM      9  C   LIG d   1      -0.881  90.662 116.757  0.00  0.00     0.028 C 
ATOM     10  C   LIG d   1       0.185  91.742 117.012  0.00  0.00     0.006 C 
ENDBRANCH   8   9
BRANCH   8  11
ATOM     11  C   LIG d   1      -2.385  89.427 118.233  0.00  0.00     0.028 C 
ATOM     12  C   LIG d   1      -1.981  89.290 119.710  0.00  0.00     0.006 C 
ENDBRANCH   8  11
ENDBRANCH   7   8
ENDBRANCH   1   7
BRANCH   6  13
ATOM     13  N   LIG d   1      -6.140  91.872 116.457  0.00  0.00    -0.311 N 
ATOM     14  C   LIG d   1      -6.374  90.682 115.905  0.00  0.00     0.210 C 
ATOM     15  C   LIG d   1      -7.174  90.722 114.599  0.00  0.00     0.109 C 
ATOM     16  O   LIG d   1      -6.024  89.596 116.390  0.00  0.00    -0.276 OA
ATOM     17  H   LIG d   1      -6.488  92.699 116.013  0.00  0.00     0.149 HD
ENDBRANCH   6  13
BRANCH   5  18
ATOM     18  N   LIG d   1      -7.340  92.707 119.139  0.00  0.00     0.381 N 
ATOM     19  H   LIG d   1      -7.687  91.944 118.594  0.00  0.00    -0.090 HD
ATOM     20  H   LIG d   1      -7.968  93.484 119.031  0.00  0.00    -0.090 HD
ATOM     21  H   LIG d   1      -7.288  92.443 120.098  0.00  0.00    -0.090 HD
ENDBRANCH   5  18
BRANCH   3  22
ATOM     22  C   LIG d   1      -3.011  94.320 120.406  0.00  0.00     0.382 C 
ATOM     23  O   LIG d   1      -1.885  93.919 120.786  0.00  0.00    -0.241 OA
ATOM     24  O   LIG d   1      -3.462  95.394 120.847  0.00  0.00    -0.241 OA
ENDBRANCH   3  22
TORSDOF 7
ENDMDL
MODEL 3
REMARK VINA RESULT:      -5.4      2.512      4.741
REMARK  7 active torsions:
REMARK  status: ('A' for Active; 'I' for Inactive)
REMARK    1  A    between atoms: C_2  and  C_3 
REMARK    2  A    between atoms: C_3  and  O_6 
REMARK    3  A    between atoms: C_3  and  C_4 
REMARK    4  A    between atoms: C_7  and  O_6 
REMARK    5  A    between atoms: C_9  and  C_10 
REMARK    6  A    between atoms: N_15  and  C_14 
REMARK    7  A    between atoms: N_20  and  C_19 
REMARK       I    between atoms: C_22  and  N_20 
ROOT
ATOM      1  C   LIG d   1      -4.811  92.022 118.156  0.00  0.00     0.161 C 
ATOM      2  C   LIG d   1      -5.828  92.092 117.190  0.00  0.00     0.016 C 
ATOM      3  C   LIG d   1      -5.836  91.311 116.012  0.00  0.00     0.038 C 
ATOM      4  C   LIG d   1      -4.899  90.291 115.791  0.00  0.00     0.028 C 
ATOM      5  C   LIG d   1      -3.568  90.528 116.497  0.00  0.00    -0.047 C 
ATOM      6  C   LIG d   1      -3.838  90.836 117.988  0.00  0.00     0.091 C 
ENDROOT
BRANCH   1   7
ATOM      7  O   LIG d   1      -5.390  92.011 119.476  0.00  0.00    -0.368 OA
BRANCH   7   8
ATOM      8  C   LIG d   1      -6.263  93.122 119.798  0.00  0.00     0.119 C 
BRANCH   8   9
ATOM      9  C   LIG d   1      -5.390  94.234 120.410  0.00  0.00     0.028 C 
ATOM     10  C   LIG d   1      -5.670  95.611 119.784  0.00  0.00     0.006 C 
ENDBRANCH   8   9
BRANCH   8  11
ATOM     11  C   LIG d   1      -7.265  92.744 120.893  0.00  0.00     0.028 C 
ATOM     12  C   LIG d   1      -8.622  93.445 120.727  0.00  0.00     0.006 C 
ENDBRANCH   8  11
ENDBRANCH   7   8
ENDBRANCH   1   7
BRANCH   6  13
ATOM     13  N   LIG d   1      -2.595  91.164 118.733  0.00  0.00    -0.311 N 
ATOM     14  C   LIG d   1      -1.868  90.255 119.381  0.00  0.00     0.210 C 
ATOM     15  C   LIG d   1      -0.634  90.808 120.101  0.00  0.00     0.109 C 
ATOM     16  O   LIG d   1      -2.109  89.039 119.400  0.00  0.00    -0.276 OA
ATOM     17  H   LIG d   1      -2.309  92.123 118.744  0.00  0.00     0.149 HD
ENDBRANCH   6  13
BRANCH   5  18
ATOM     18  N   LIG d   1      -2.737  89.327 116.296  0.00  0.00     0.381 N 
ATOM     19  H   LIG d   1      -3.280  88.608 115.861  0.00  0.00    -0.090 HD
ATOM     20  H   LIG d   1      -2.429  88.991 117.192  0.00  0.00    -0.090 HD
ATOM     21  H   LIG d   1      -1.949  89.548 115.728  0.00  0.00    -0.090 HD
ENDBRANCH   5  18
BRANCH   3  22
ATOM     22  C   LIG d   1      -6.768  91.575 115.019  0.00  0.00     0.382 C 
ATOM     23  O   LIG d   1      -6.989  90.723 114.125  0.00  0.00    -0.241 OA
ATOM     24  O   LIG d   1      -7.357  92.672 114.981  0.00  0.00    -0.241 OA
ENDBRANCH   3  22
TORSDOF 7
ENDMDL
MODEL 4
REMARK VINA RESULT:      -5.4      2.772      4.487
REMARK  7 active torsions:
REMARK  status: ('A' for Active; 'I' for Inactive)
REMARK    1  A    between atoms: C_2  and  C_3 
REMARK    2  A    between atoms: C_3  and  O_6 
REMARK    3  A    between atoms: C_3  and  C_4 
REMARK    4  A    between atoms: C_7  and  O_6 
REMARK    5  A    between atoms: C_9  and  C_10 
REMARK    6  A    between atoms: N_15  and  C_14 
REMARK    7  A    between atoms: N_20  and  C_19 
REMARK       I    between atoms: C_22  and  N_20 
ROOT
ATOM      1  C   LIG d   1      -4.804  92.528 118.379  0.00  0.00     0.161 C 
ATOM      2  C   LIG d   1      -6.192  92.717 118.487  0.00  0.00     0.016 C 
ATOM      3  C   LIG d   1      -6.778  93.823 119.143  0.00  0.00     0.038 C 
ATOM      4  C   LIG d   1      -6.011  94.902 119.608  0.00  0.00     0.028 C 
ATOM      5  C   LIG d   1      -4.580  94.517 119.969  0.00  0.00    -0.047 C 
ATOM      6  C   LIG d   1      -3.952  93.750 118.782  0.00  0.00     0.091 C 
ENDROOT
BRANCH   1   7
ATOM      7  O   LIG d   1      -4.471  92.104 117.043  0.00  0.00    -0.368 OA
BRANCH   7   8
ATOM      8  C   LIG d   1      -4.342  90.676 116.841  0.00  0.00     0.119 C 
BRANCH   8   9
ATOM      9  C   LIG d   1      -2.842  90.332 116.906  0.00  0.00     0.028 C 
ATOM     10  C   LIG d   1      -2.465  89.593 118.201  0.00  0.00     0.006 C 
ENDBRANCH   8   9
BRANCH   8  11
ATOM     11  C   LIG d   1      -4.790  90.269 115.434  0.00  0.00     0.028 C 
ATOM     12  C   LIG d   1      -6.064  91.000 114.979  0.00  0.00     0.006 C 
ENDBRANCH   8  11
ENDBRANCH   7   8
ENDBRANCH   1   7
BRANCH   6  13
ATOM     13  N   LIG d   1      -2.581  93.263 119.085  0.00  0.00    -0.311 N 
ATOM     14  C   LIG d   1      -1.525  93.524 118.316  0.00  0.00     0.210 C 
ATOM     15  C   LIG d   1      -0.207  92.909 118.799  0.00  0.00     0.109 C 
ATOM     16  O   LIG d   1      -1.548  94.232 117.299  0.00  0.00    -0.276 OA
ATOM     17  H   LIG d   1      -2.466  92.706 119.909  0.00  0.00     0.149 HD
ENDBRANCH   6  13
BRANCH   5  18
ATOM     18  N   LIG d   1      -3.856  95.757 120.305  0.00  0.00     0.381 N 
ATOM     19  H   LIG d   1      -3.199  95.972 119.582  0.00  0.00    -0.090 HD
ATOM     20  H   LIG d   1      -3.348  95.615 121.160  0.00  0.00    -0.090 HD
ATOM     21  H   LIG d   1      -4.500  96.509 120.413  0.00  0.00    -0.090 HD
ENDBRANCH   5  18
BRANCH   3  22
ATOM     22  C   LIG d   1      -8.145  93.839 119.376  0.00  0.00     0.382 C 
ATOM     23  O   LIG d   1      -8.667  92.963 120.107  0.00  0.00    -0.241 OA
ATOM     24  O   LIG d   1      -8.869  94.692 118.828  0.00  0.00    -0.241 OA
ENDBRANCH   3  22
TORSDOF 7
ENDMDL
MODEL 5
REMARK VINA RESULT:      -5.4      2.249      4.555
REMARK  7 active torsions:
REMARK  status: ('A' for Active; 'I' for Inactive)
REMARK    1  A    between atoms: C_2  and  C_3 
REMARK    2  A    between atoms: C_3  and  O_6 
REMARK    3  A    between atoms: C_3  and  C_4 
REMARK    4  A    between atoms: C_7  and  O_6 
REMARK    5  A    between atoms: C_9  and  C_10 
REMARK    6  A    between atoms: N_15  and  C_14 
REMARK    7  A    between atoms: N_20  and  C_19 
REMARK       I    between atoms: C_22  and  N_20 
ROOT
ATOM      1  C   LIG d   1      -4.848  91.995 118.191  0.00  0.00     0.161 C 
ATOM      2  C   LIG d   1      -5.849  92.067 117.208  0.00  0.00     0.016 C 
ATOM      3  C   LIG d   1      -5.825  91.308 116.016  0.00  0.00     0.038 C 
ATOM      4  C   LIG d   1      -4.868  90.306 115.794  0.00  0.00     0.028 C 
ATOM      5  C   LIG d   1      -3.554  90.550 116.528  0.00  0.00    -0.047 C 
ATOM      6  C   LIG d   1      -3.855  90.826 118.019  0.00  0.00     0.091 C 
ENDROOT
BRANCH   1   7
ATOM      7  O   LIG d   1      -5.451  91.951 119.500  0.00  0.00    -0.368 OA
BRANCH   7   8
ATOM      8  C   LIG d   1      -5.308  93.145 120.308  0.00  0.00     0.119 C 
BRANCH   8   9
ATOM      9  C   LIG d   1      -6.682  93.842 120.351  0.00  0.00     0.028 C 
ATOM     10  C   LIG d   1      -6.758  95.048 119.400  0.00  0.00     0.006 C 
ENDBRANCH   8   9
BRANCH   8  11
ATOM     11  C   LIG d   1      -4.362  94.154 119.649  0.00  0.00     0.028 C 
ATOM     12  C   LIG d   1      -3.076  94.382 120.460  0.00  0.00     0.006 C 
ENDBRANCH   8  11
ENDBRANCH   7   8
ENDBRANCH   1   7
BRANCH   6  13
ATOM     13  N   LIG d   1      -2.630  91.159 118.792  0.00  0.00    -0.311 N 
ATOM     14  C   LIG d   1      -1.908  90.251 119.446  0.00  0.00     0.210 C 
ATOM     15  C   LIG d   1      -0.694  90.810 120.197  0.00  0.00     0.109 C 
ATOM     16  O   LIG d   1      -2.138  89.033 119.450  0.00  0.00    -0.276 OA
ATOM     17  H   LIG d   1      -2.353  92.121 118.817  0.00  0.00     0.149 HD
ENDBRANCH   6  13
BRANCH   5  18
ATOM     18  N   LIG d   1      -2.701  89.365 116.321  0.00  0.00     0.381 N 
ATOM     19  H   LIG d   1      -1.816  89.645 115.947  0.00  0.00    -0.090 HD
ATOM     20  H   LIG d   1      -3.145  88.757 115.655  0.00  0.00    -0.090 HD
ATOM     21  H   LIG d   1      -2.568  88.885 117.183  0.00  0.00    -0.090 HD
ENDBRANCH   5  18
BRANCH   3  22
ATOM     22  C   LIG d   1      -6.742  91.576 115.012  0.00  0.00     0.382 C 
ATOM     23  O   LIG d   1      -7.354  92.671 114.997  0.00  0.00    -0.241 OA
ATOM     24  O   LIG d   1      -6.999  90.718 114.145  0.00  0.00    -0.241 OA
ENDBRANCH   3  22
TORSDOF 7
ENDMDL
MODEL 6
REMARK VINA RESULT:      -5.1      2.207      4.292
REMARK  7 active torsions:
REMARK  status: ('A' for Active; 'I' for Inactive)
REMARK    1  A    between atoms: C_2  and  C_3 
REMARK    2  A    between atoms: C_3  and  O_6 
REMARK    3  A    between atoms: C_3  and  C_4 
REMARK    4  A    between atoms: C_7  and  O_6 
REMARK    5  A    between atoms: C_9  and  C_10 
REMARK    6  A    between atoms: N_15  and  C_14 
REMARK    7  A    between atoms: N_20  and  C_19 
REMARK       I    between atoms: C_22  and  N_20 
ROOT
ATOM      1  C   LIG d   1      -4.366  91.830 117.225  0.00  0.00     0.161 C 
ATOM      2  C   LIG d   1      -5.551  92.104 116.522  0.00  0.00     0.016 C 
ATOM      3  C   LIG d   1      -6.041  91.290 115.475  0.00  0.00     0.038 C 
ATOM      4  C   LIG d   1      -5.453  90.056 115.159  0.00  0.00     0.028 C 
ATOM      5  C   LIG d   1      -3.969  89.986 115.502  0.00  0.00    -0.047 C 
ATOM      6  C   LIG d   1      -3.772  90.429 116.969  0.00  0.00     0.091 C 
ENDROOT
BRANCH   1   7
ATOM      7  O   LIG d   1      -4.577  92.034 118.637  0.00  0.00    -0.368 OA
BRANCH   7   8
ATOM      8  C   LIG d   1      -3.834  93.121 119.241  0.00  0.00     0.119 C 
BRANCH   8   9
ATOM      9  C   LIG d   1      -4.840  94.242 119.569  0.00  0.00     0.028 C 
ATOM     10  C   LIG d   1      -6.241  93.698 119.893  0.00  0.00     0.006 C 
ENDBRANCH   8   9
BRANCH   8  11
ATOM     11  C   LIG d   1      -2.846  93.741 118.248  0.00  0.00     0.028 C 
ATOM     12  C   LIG d   1      -1.395  93.705 118.752  0.00  0.00     0.006 C 
ENDBRANCH   8  11
ENDBRANCH   7   8
ENDBRANCH   1   7
BRANCH   6  13
ATOM     13  N   LIG d   1      -2.339  90.470 117.361  0.00  0.00    -0.311 N 
ATOM     14  C   LIG d   1      -1.818  89.703 118.317  0.00  0.00     0.210 C 
ATOM     15  C   LIG d   1      -0.323  89.919 118.577  0.00  0.00     0.109 C 
ATOM     16  O   LIG d   1      -2.444  88.843 118.953  0.00  0.00    -0.276 OA
ATOM     17  H   LIG d   1      -1.751  91.119 116.874  0.00  0.00     0.149 HD
ENDBRANCH   6  13
BRANCH   5  18
ATOM     18  N   LIG d   1      -3.518  88.604 115.249  0.00  0.00     0.381 N 
ATOM     19  H   LIG d   1      -3.201  88.190 116.103  0.00  0.00    -0.090 HD
ATOM     20  H   LIG d   1      -2.748  88.627 114.604  0.00  0.00    -0.090 HD
ATOM     21  H   LIG d   1      -4.265  88.066 114.868  0.00  0.00    -0.090 HD
ENDBRANCH   5  18
BRANCH   3  22
ATOM     22  C   LIG d   1      -7.107  91.729 114.705  0.00  0.00     0.382 C 
ATOM     23  O   LIG d   1      -7.488  91.053 113.719  0.00  0.00    -0.241 OA
ATOM     24  O   LIG d   1      -7.664  92.814 114.956  0.00  0.00    -0.241 OA
ENDBRANCH   3  22
TORSDOF 7
ENDMDL
MODEL 7
REMARK VINA RESULT:      -5.0      2.199      4.348
REMARK  7 active torsions:
REMARK  status: ('A' for Active; 'I' for Inactive)
REMARK    1  A    between atoms: C_2  and  C_3 
REMARK    2  A    between atoms: C_3  and  O_6 
REMARK    3  A    between atoms: C_3  and  C_4 
REMARK    4  A    between atoms: C_7  and  O_6 
REMARK    5  A    between atoms: C_9  and  C_10 
REMARK    6  A    between atoms: N_15  and  C_14 
REMARK    7  A    between atoms: N_20  and  C_19 
REMARK       I    between atoms: C_22  and  N_20 
ROOT
ATOM      1  C   LIG d   1      -4.337  92.244 117.803  0.00  0.00     0.161 C 
ATOM      2  C   LIG d   1      -5.340  92.139 116.824  0.00  0.00     0.016 C 
ATOM      3  C   LIG d   1      -5.367  91.121 115.844  0.00  0.00     0.038 C 
ATOM      4  C   LIG d   1      -4.470  90.042 115.870  0.00  0.00     0.028 C 
ATOM      5  C   LIG d   1      -3.139  90.378 116.533  0.00  0.00    -0.047 C 
ATOM      6  C   LIG d   1      -3.413  91.014 117.915  0.00  0.00     0.091 C 
ENDROOT
BRANCH   1   7
ATOM      7  O   LIG d   1      -4.932  92.543 119.081  0.00  0.00    -0.368 OA
BRANCH   7   8
ATOM      8  C   LIG d   1      -4.933  93.937 119.473  0.00  0.00     0.119 C 
BRANCH   8   9
ATOM      9  C   LIG d   1      -3.971  94.083 120.668  0.00  0.00     0.028 C 
ATOM     10  C   LIG d   1      -2.582  94.589 120.245  0.00  0.00     0.006 C 
ENDBRANCH   8   9
BRANCH   8  11
ATOM     11  C   LIG d   1      -6.305  94.366 120.003  0.00  0.00     0.028 C 
ATOM     12  C   LIG d   1      -6.693  95.788 119.567  0.00  0.00     0.006 C 
ENDBRANCH   8  11
ENDBRANCH   7   8
ENDBRANCH   1   7
BRANCH   6  13
ATOM     13  N   LIG d   1      -2.166  91.449 118.596  0.00  0.00    -0.311 N 
ATOM     14  C   LIG d   1      -1.489  90.681 119.449  0.00  0.00     0.210 C 
ATOM     15  C   LIG d   1      -0.241  91.331 120.054  0.00  0.00     0.109 C 
ATOM     16  O   LIG d   1      -1.786  89.512 119.736  0.00  0.00    -0.276 OA
ATOM     17  H   LIG d   1      -1.836  92.373 118.396  0.00  0.00     0.149 HD
ENDBRANCH   6  13
BRANCH   5  18
ATOM     18  N   LIG d   1      -2.355  89.131 116.615  0.00  0.00     0.381 N 
ATOM     19  H   LIG d   1      -1.928  88.941 115.731  0.00  0.00    -0.090 HD
ATOM     20  H   LIG d   1      -2.975  88.372 116.836  0.00  0.00    -0.090 HD
ATOM     21  H   LIG d   1      -1.655  89.214 117.320  0.00  0.00    -0.090 HD
ENDBRANCH   5  18
BRANCH   3  22
ATOM     22  C   LIG d   1      -6.276  91.196 114.800  0.00  0.00     0.382 C 
ATOM     23  O   LIG d   1      -6.758  90.146 114.311  0.00  0.00    -0.241 OA
ATOM     24  O   LIG d   1      -6.587  92.299 114.311  0.00  0.00    -0.241 OA
ENDBRANCH   3  22
TORSDOF 7
ENDMDL
MODEL 8
REMARK VINA RESULT:      -4.9      1.893      4.937
REMARK  7 active torsions:
REMARK  status: ('A' for Active; 'I' for Inactive)
REMARK    1  A    between atoms: C_2  and  C_3 
REMARK    2  A    between atoms: C_3  and  O_6 
REMARK    3  A    between atoms: C_3  and  C_4 
REMARK    4  A    between atoms: C_7  and  O_6 
REMARK    5  A    between atoms: C_9  and  C_10 
REMARK    6  A    between atoms: N_15  and  C_14 
REMARK    7  A    between atoms: N_20  and  C_19 
REMARK       I    between atoms: C_22  and  N_20 
ROOT
ATOM      1  C   LIG d   1      -3.707  92.606 118.254  0.00  0.00     0.161 C 
ATOM      2  C   LIG d   1      -3.358  93.879 118.735  0.00  0.00     0.016 C 
ATOM      3  C   LIG d   1      -4.252  94.716 119.440  0.00  0.00     0.038 C 
ATOM      4  C   LIG d   1      -5.519  94.272 119.847  0.00  0.00     0.028 C 
ATOM      5  C   LIG d   1      -6.097  93.184 118.948  0.00  0.00    -0.047 C 
ATOM      6  C   LIG d   1      -5.049  92.060 118.785  0.00  0.00     0.091 C 
ENDROOT
BRANCH   1   7
ATOM      7  O   LIG d   1      -2.643  91.672 118.526  0.00  0.00    -0.368 OA
BRANCH   7   8
ATOM      8  C   LIG d   1      -2.016  91.066 117.370  0.00  0.00     0.119 C 
BRANCH   8   9
ATOM      9  C   LIG d   1      -2.107  89.537 117.543  0.00  0.00     0.028 C 
ATOM     10  C   LIG d   1      -2.269  89.121 119.014  0.00  0.00     0.006 C 
ENDBRANCH   8   9
BRANCH   8  11
ATOM     11  C   LIG d   1      -0.517  91.379 117.320  0.00  0.00     0.028 C 
ATOM     12  C   LIG d   1       0.277  90.360 116.487  0.00  0.00     0.006 C 
ENDBRANCH   8  11
ENDBRANCH   7   8
ENDBRANCH   1   7
BRANCH   6  13
ATOM     13  N   LIG d   1      -5.501  90.994 117.852  0.00  0.00    -0.311 N 
ATOM     14  C   LIG d   1      -5.694  91.193 116.550  0.00  0.00     0.210 C 
ATOM     15  C   LIG d   1      -6.180  89.966 115.773  0.00  0.00     0.109 C 
ATOM     16  O   LIG d   1      -5.477  92.262 115.958  0.00  0.00    -0.276 OA
ATOM     17  H   LIG d   1      -5.670  90.088 118.243  0.00  0.00     0.149 HD
ENDBRANCH   6  13
BRANCH   5  18
ATOM     18  N   LIG d   1      -7.353  92.717 119.565  0.00  0.00     0.381 N 
ATOM     19  H   LIG d   1      -8.048  93.435 119.503  0.00  0.00    -0.090 HD
ATOM     20  H   LIG d   1      -7.186  92.523 120.536  0.00  0.00    -0.090 HD
ATOM     21  H   LIG d   1      -7.674  91.894 119.104  0.00  0.00    -0.090 HD
ENDBRANCH   5  18
BRANCH   3  22
ATOM     22  C   LIG d   1      -3.896  96.029 119.711  0.00  0.00     0.382 C 
ATOM     23  O   LIG d   1      -2.786  96.469 119.328  0.00  0.00    -0.241 OA
ATOM     24  O   LIG d   1      -4.653  96.765 120.372  0.00  0.00    -0.241 OA
ENDBRANCH   3  22
TORSDOF 7
ENDMDL
MODEL 9
REMARK VINA RESULT:      -4.8      3.913      6.365
REMARK  7 active torsions:
REMARK  status: ('A' for Active; 'I' for Inactive)
REMARK    1  A    between atoms: C_2  and  C_3 
REMARK    2  A    between atoms: C_3  and  O_6 
REMARK    3  A    between atoms: C_3  and  C_4 
REMARK    4  A    between atoms: C_7  and  O_6 
REMARK    5  A    between atoms: C_9  and  C_10 
REMARK    6  A    between atoms: N_15  and  C_14 
REMARK    7  A    between atoms: N_20  and  C_19 
REMARK       I    between atoms: C_22  and  N_20 
ROOT
ATOM      1  C   LIG d   1       1.441  89.519 116.613  0.00  0.00     0.161 C 
ATOM      2  C   LIG d   1       0.048  89.344 116.574  0.00  0.00     0.016 C 
ATOM      3  C   LIG d   1      -0.850  90.055 117.403  0.00  0.00     0.038 C 
ATOM      4  C   LIG d   1      -0.423  91.106 118.227  0.00  0.00     0.028 C 
ATOM      5  C   LIG d   1       1.030  90.976 118.671  0.00  0.00    -0.047 C 
ATOM      6  C   LIG d   1       1.916  90.741 117.427  0.00  0.00     0.091 C 
ENDROOT
BRANCH   1   7
ATOM      7  O   LIG d   1       1.964  89.577 115.271  0.00  0.00    -0.368 OA
BRANCH   7   8
ATOM      8  C   LIG d   1       2.895  88.529 114.904  0.00  0.00     0.119 C 
BRANCH   8   9
ATOM      9  C   LIG d   1       4.205  89.208 114.461  0.00  0.00     0.028 C 
ATOM     10  C   LIG d   1       5.452  88.443 114.936  0.00  0.00     0.006 C 
ENDBRANCH   8   9
BRANCH   8  11
ATOM     11  C   LIG d   1       2.405  87.753 113.677  0.00  0.00     0.028 C 
ATOM     12  C   LIG d   1       1.525  86.549 114.046  0.00  0.00     0.006 C 
ENDBRANCH   8  11
ENDBRANCH   7   8
ENDBRANCH   1   7
BRANCH   6  13
ATOM     13  N   LIG d   1       3.343  90.519 117.780  0.00  0.00    -0.311 N 
ATOM     14  C   LIG d   1       4.326  91.334 117.404  0.00  0.00     0.210 C 
ATOM     15  C   LIG d   1       5.727  90.910 117.858  0.00  0.00     0.109 C 
ATOM     16  O   LIG d   1       4.169  92.386 116.766  0.00  0.00    -0.276 OA
ATOM     17  H   LIG d   1       3.557  89.705 118.323  0.00  0.00     0.149 HD
ENDBRANCH   6  13
BRANCH   5  18
ATOM     18  N   LIG d   1       1.383  92.204 119.408  0.00  0.00     0.381 N 
ATOM     19  H   LIG d   1       0.649  92.877 119.316  0.00  0.00    -0.090 HD
ATOM     20  H   LIG d   1       2.219  92.594 119.010  0.00  0.00    -0.090 HD
ATOM     21  H   LIG d   1       1.532  91.994 120.371  0.00  0.00    -0.090 HD
ENDBRANCH   5  18
BRANCH   3  22
ATOM     22  C   LIG d   1      -2.187  89.689 117.442  0.00  0.00     0.382 C 
ATOM     23  O   LIG d   1      -3.002  90.207 116.642  0.00  0.00    -0.241 OA
ATOM     24  O   LIG d   1      -2.595  88.879 118.296  0.00  0.00    -0.241 OA
ENDBRANCH   3  22
TORSDOF 7
ENDMDL
