MODEL 1
REMARK VINA RESULT:      -5.1      0.000      0.000
REMARK  7 active torsions:
REMARK  status: ('A' for Active; 'I' for Inactive)
REMARK    1  A    between atoms: C_2  and  C_3 
REMARK    2  A    between atoms: C_3  and  O_6 
REMARK    3  A    between atoms: C_3  and  C_4 
REMARK    4  A    between atoms: C_7  and  O_6 
REMARK    5  A    between atoms: C_9  and  C_10 
REMARK    6  A    between atoms: N_15  and  C_14 
REMARK    7  A    between atoms: N_20  and  C_19 
REMARK       I    between atoms: C_22  and  N_20 
ROOT
ATOM      1  C   LIG d   1      -4.128  91.433 117.381  0.00  0.00     0.161 C 
ATOM      2  C   LIG d   1      -3.598  92.221 118.416  0.00  0.00     0.016 C 
ATOM      3  C   LIG d   1      -4.344  93.202 119.107  0.00  0.00     0.038 C 
ATOM      4  C   LIG d   1      -5.724  93.358 118.912  0.00  0.00     0.028 C 
ATOM      5  C   LIG d   1      -6.191  92.934 117.524  0.00  0.00    -0.047 C 
ATOM      6  C   LIG d   1      -5.662  91.512 117.229  0.00  0.00     0.091 C 
ENDROOT
BRANCH   1   7
ATOM      7  O   LIG d   1      -3.711  90.063 117.546  0.00  0.00    -0.368 OA
BRANCH   7   8
ATOM      8  C   LIG d   1      -2.512  89.853 118.332  0.00  0.00     0.119 C 
BRANCH   8   9
ATOM      9  C   LIG d   1      -1.366  89.534 117.352  0.00  0.00     0.028 C 
ATOM     10  C   LIG d   1      -0.349  90.683 117.246  0.00  0.00     0.006 C 
ENDBRANCH   8   9
BRANCH   8  11
ATOM     11  C   LIG d   1      -2.640  88.613 119.223  0.00  0.00     0.028 C 
ATOM     12  C   LIG d   1      -1.483  87.620 119.031  0.00  0.00     0.006 C 
ENDBRANCH   8  11
ENDBRANCH   7   8
ENDBRANCH   1   7
BRANCH   6  13
ATOM     13  N   LIG d   1      -6.003  91.053 115.857  0.00  0.00    -0.311 N 
ATOM     14  C   LIG d   1      -7.085  90.330 115.574  0.00  0.00     0.210 C 
ATOM     15  C   LIG d   1      -7.237  89.945 114.099  0.00  0.00     0.109 C 
ATOM     16  O   LIG d   1      -7.950  89.998 116.398  0.00  0.00    -0.276 OA
ATOM     17  H   LIG d   1      -5.371  91.304 115.122  0.00  0.00     0.149 HD
ENDBRANCH   6  13
BRANCH   5  18
ATOM     18  N   LIG d   1      -7.664  93.018 117.504  0.00  0.00     0.381 N 
ATOM     19  H   LIG d   1      -7.960  93.589 116.737  0.00  0.00    -0.090 HD
ATOM     20  H   LIG d   1      -7.976  93.449 118.356  0.00  0.00    -0.090 HD
ATOM     21  H   LIG d   1      -8.057  92.106 117.420  0.00  0.00    -0.090 HD
ENDBRANCH   5  18
BRANCH   3  22
ATOM     22  C   LIG d   1      -3.700  94.068 119.979  0.00  0.00     0.382 C 
ATOM     23  O   LIG d   1      -2.483  93.905 120.238  0.00  0.00    -0.241 OA
ATOM     24  O   LIG d   1      -4.331  94.982 120.542  0.00  0.00    -0.241 OA
ENDBRANCH   3  22
TORSDOF 7
ENDMDL
MODEL 2
REMARK VINA RESULT:      -4.9      1.522      4.653
REMARK  7 active torsions:
REMARK  status: ('A' for Active; 'I' for Inactive)
REMARK    1  A    between atoms: C_2  and  C_3 
REMARK    2  A    between atoms: C_3  and  O_6 
REMARK    3  A    between atoms: C_3  and  C_4 
REMARK    4  A    between atoms: C_7  and  O_6 
REMARK    5  A    between atoms: C_9  and  C_10 
REMARK    6  A    between atoms: N_15  and  C_14 
REMARK    7  A    between atoms: N_20  and  C_19 
REMARK       I    between atoms: C_22  and  N_20 
ROOT
ATOM      1  C   LIG d   1      -4.299  91.122 117.523  0.00  0.00     0.161 C 
ATOM      2  C   LIG d   1      -5.111  90.519 116.548  0.00  0.00     0.016 C 
ATOM      3  C   LIG d   1      -6.331  91.075 116.099  0.00  0.00     0.038 C 
ATOM      4  C   LIG d   1      -6.749  92.357 116.487  0.00  0.00     0.028 C 
ATOM      5  C   LIG d   1      -6.216  92.781 117.851  0.00  0.00    -0.047 C 
ATOM      6  C   LIG d   1      -4.684  92.574 117.877  0.00  0.00     0.091 C 
ENDROOT
BRANCH   1   7
ATOM      7  O   LIG d   1      -2.918  91.054 117.119  0.00  0.00    -0.368 OA
BRANCH   7   8
ATOM      8  C   LIG d   1      -2.024  90.354 118.019  0.00  0.00     0.119 C 
BRANCH   8   9
ATOM      9  C   LIG d   1      -0.585  90.775 117.663  0.00  0.00     0.028 C 
ATOM     10  C   LIG d   1       0.084  91.588 118.784  0.00  0.00     0.006 C 
ENDBRANCH   8   9
BRANCH   8  11
ATOM     11  C   LIG d   1      -2.073  88.841 117.788  0.00  0.00     0.028 C 
ATOM     12  C   LIG d   1      -2.061  88.038 119.098  0.00  0.00     0.006 C 
ENDBRANCH   8  11
ENDBRANCH   7   8
ENDBRANCH   1   7
BRANCH   6  13
ATOM     13  N   LIG d   1      -4.092  92.886 119.204  0.00  0.00    -0.311 N 
ATOM     14  C   LIG d   1      -3.030  93.673 119.367  0.00  0.00     0.210 C 
ATOM     15  C   LIG d   1      -2.570  93.846 120.818  0.00  0.00     0.109 C 
ATOM     16  O   LIG d   1      -2.445  94.270 118.451  0.00  0.00    -0.276 OA
ATOM     17  H   LIG d   1      -4.524  92.468 120.005  0.00  0.00     0.149 HD
ENDBRANCH   6  13
BRANCH   5  18
ATOM     18  N   LIG d   1      -6.614  94.184 118.068  0.00  0.00     0.381 N 
ATOM     19  H   LIG d   1      -7.215  94.246 118.865  0.00  0.00    -0.090 HD
ATOM     20  H   LIG d   1      -7.122  94.507 117.264  0.00  0.00    -0.090 HD
ATOM     21  H   LIG d   1      -5.806  94.750 118.208  0.00  0.00    -0.090 HD
ENDBRANCH   5  18
BRANCH   3  22
ATOM     22  C   LIG d   1      -7.166  90.329 115.281  0.00  0.00     0.382 C 
ATOM     23  O   LIG d   1      -7.429  90.729 114.121  0.00  0.00    -0.241 OA
ATOM     24  O   LIG d   1      -7.696  89.284 115.704  0.00  0.00    -0.241 OA
ENDBRANCH   3  22
TORSDOF 7
ENDMDL
MODEL 3
REMARK VINA RESULT:      -4.8      1.904      4.825
REMARK  7 active torsions:
REMARK  status: ('A' for Active; 'I' for Inactive)
REMARK    1  A    between atoms: C_2  and  C_3 
REMARK    2  A    between atoms: C_3  and  O_6 
REMARK    3  A    between atoms: C_3  and  C_4 
REMARK    4  A    between atoms: C_7  and  O_6 
REMARK    5  A    between atoms: C_9  and  C_10 
REMARK    6  A    between atoms: N_15  and  C_14 
REMARK    7  A    between atoms: N_20  and  C_19 
REMARK       I    between atoms: C_22  and  N_20 
ROOT
ATOM      1  C   LIG d   1      -4.611  91.852 117.732  0.00  0.00     0.161 C 
ATOM      2  C   LIG d   1      -4.764  90.949 116.667  0.00  0.00     0.016 C 
ATOM      3  C   LIG d   1      -5.912  90.907 115.842  0.00  0.00     0.038 C 
ATOM      4  C   LIG d   1      -6.926  91.871 115.932  0.00  0.00     0.028 C 
ATOM      5  C   LIG d   1      -7.050  92.491 117.320  0.00  0.00    -0.047 C 
ATOM      6  C   LIG d   1      -5.658  92.985 117.776  0.00  0.00     0.091 C 
ENDROOT
BRANCH   1   7
ATOM      7  O   LIG d   1      -3.279  92.402 117.719  0.00  0.00    -0.368 OA
BRANCH   7   8
ATOM      8  C   LIG d   1      -2.319  91.770 118.602  0.00  0.00     0.119 C 
BRANCH   8   9
ATOM      9  C   LIG d   1      -1.783  92.855 119.555  0.00  0.00     0.028 C 
ATOM     10  C   LIG d   1      -2.125  94.277 119.078  0.00  0.00     0.006 C 
ENDBRANCH   8   9
BRANCH   8  11
ATOM     11  C   LIG d   1      -1.096  91.268 117.828  0.00  0.00     0.028 C 
ATOM     12  C   LIG d   1      -1.055  89.737 117.706  0.00  0.00     0.006 C 
ENDBRANCH   8  11
ENDBRANCH   7   8
ENDBRANCH   1   7
BRANCH   6  13
ATOM     13  N   LIG d   1      -5.674  93.529 119.158  0.00  0.00    -0.311 N 
ATOM     14  C   LIG d   1      -5.930  94.805 119.441  0.00  0.00     0.210 C 
ATOM     15  C   LIG d   1      -5.876  95.161 120.930  0.00  0.00     0.109 C 
ATOM     16  O   LIG d   1      -6.227  95.669 118.602  0.00  0.00    -0.276 OA
ATOM     17  H   LIG d   1      -5.474  92.890 119.903  0.00  0.00     0.149 HD
ENDBRANCH   6  13
BRANCH   5  18
ATOM     18  N   LIG d   1      -8.048  93.574 117.237  0.00  0.00     0.381 N 
ATOM     19  H   LIG d   1      -7.970  94.169 118.037  0.00  0.00    -0.090 HD
ATOM     20  H   LIG d   1      -8.968  93.169 117.233  0.00  0.00    -0.090 HD
ATOM     21  H   LIG d   1      -7.908  94.104 116.405  0.00  0.00    -0.090 HD
ENDBRANCH   5  18
BRANCH   3  22
ATOM     22  C   LIG d   1      -6.071  89.866 114.940  0.00  0.00     0.382 C 
ATOM     23  O   LIG d   1      -7.217  89.564 114.527  0.00  0.00    -0.241 OA
ATOM     24  O   LIG d   1      -5.089  89.196 114.567  0.00  0.00    -0.241 OA
ENDBRANCH   3  22
TORSDOF 7
ENDMDL
MODEL 4
REMARK VINA RESULT:      -4.8      2.153      4.341
REMARK  7 active torsions:
REMARK  status: ('A' for Active; 'I' for Inactive)
REMARK    1  A    between atoms: C_2  and  C_3 
REMARK    2  A    between atoms: C_3  and  O_6 
REMARK    3  A    between atoms: C_3  and  C_4 
REMARK    4  A    between atoms: C_7  and  O_6 
REMARK    5  A    between atoms: C_9  and  C_10 
REMARK    6  A    between atoms: N_15  and  C_14 
REMARK    7  A    between atoms: N_20  and  C_19 
REMARK       I    between atoms: C_22  and  N_20 
ROOT
ATOM      1  C   LIG d   1      -4.471  93.036 119.111  0.00  0.00     0.161 C 
ATOM      2  C   LIG d   1      -5.676  93.734 119.297  0.00  0.00     0.016 C 
ATOM      3  C   LIG d   1      -6.795  93.595 118.444  0.00  0.00     0.038 C 
ATOM      4  C   LIG d   1      -6.838  92.628 117.429  0.00  0.00     0.028 C 
ATOM      5  C   LIG d   1      -5.462  92.255 116.889  0.00  0.00    -0.047 C 
ATOM      6  C   LIG d   1      -4.538  91.894 118.075  0.00  0.00     0.091 C 
ENDROOT
BRANCH   1   7
ATOM      7  O   LIG d   1      -3.996  92.536 120.377  0.00  0.00    -0.368 OA
BRANCH   7   8
ATOM      8  C   LIG d   1      -2.812  93.177 120.912  0.00  0.00     0.119 C 
BRANCH   8   9
ATOM      9  C   LIG d   1      -2.415  94.303 119.937  0.00  0.00     0.028 C 
ATOM     10  C   LIG d   1      -2.482  95.694 120.589  0.00  0.00     0.006 C 
ENDBRANCH   8   9
BRANCH   8  11
ATOM     11  C   LIG d   1      -1.619  92.217 120.930  0.00  0.00     0.028 C 
ATOM     12  C   LIG d   1      -0.456  92.695 120.045  0.00  0.00     0.006 C 
ENDBRANCH   8  11
ENDBRANCH   7   8
ENDBRANCH   1   7
BRANCH   6  13
ATOM     13  N   LIG d   1      -3.148  91.598 117.641  0.00  0.00    -0.311 N 
ATOM     14  C   LIG d   1      -2.565  90.412 117.808  0.00  0.00     0.210 C 
ATOM     15  C   LIG d   1      -1.120  90.326 117.307  0.00  0.00     0.109 C 
ATOM     16  O   LIG d   1      -3.119  89.414 118.293  0.00  0.00    -0.276 OA
ATOM     17  H   LIG d   1      -2.637  92.343 117.210  0.00  0.00     0.149 HD
ENDBRANCH   6  13
BRANCH   5  18
ATOM     18  N   LIG d   1      -5.643  91.142 115.938  0.00  0.00     0.381 N 
ATOM     19  H   LIG d   1      -5.445  91.455 115.009  0.00  0.00    -0.090 HD
ATOM     20  H   LIG d   1      -6.600  90.838 115.972  0.00  0.00    -0.090 HD
ATOM     21  H   LIG d   1      -5.039  90.387 116.178  0.00  0.00    -0.090 HD
ENDBRANCH   5  18
BRANCH   3  22
ATOM     22  C   LIG d   1      -7.872  94.458 118.579  0.00  0.00     0.382 C 
ATOM     23  O   LIG d   1      -7.815  95.411 119.392  0.00  0.00    -0.241 OA
ATOM     24  O   LIG d   1      -8.918  94.269 117.929  0.00  0.00    -0.241 OA
ENDBRANCH   3  22
TORSDOF 7
ENDMDL
MODEL 5
REMARK VINA RESULT:      -4.4      2.482      6.017
REMARK  7 active torsions:
REMARK  status: ('A' for Active; 'I' for Inactive)
REMARK    1  A    between atoms: C_2  and  C_3 
REMARK    2  A    between atoms: C_3  and  O_6 
REMARK    3  A    between atoms: C_3  and  C_4 
REMARK    4  A    between atoms: C_7  and  O_6 
REMARK    5  A    between atoms: C_9  and  C_10 
REMARK    6  A    between atoms: N_15  and  C_14 
REMARK    7  A    between atoms: N_20  and  C_19 
REMARK       I    between atoms: C_22  and  N_20 
ROOT
ATOM      1  C   LIG d   1      -4.891  92.722 118.176  0.00  0.00     0.161 C 
ATOM      2  C   LIG d   1      -5.922  92.613 117.228  0.00  0.00     0.016 C 
ATOM      3  C   LIG d   1      -5.971  91.598 116.245  0.00  0.00     0.038 C 
ATOM      4  C   LIG d   1      -5.065  90.527 116.239  0.00  0.00     0.028 C 
ATOM      5  C   LIG d   1      -3.717  90.871 116.863  0.00  0.00    -0.047 C 
ATOM      6  C   LIG d   1      -3.954  91.499 118.256  0.00  0.00     0.091 C 
ENDROOT
BRANCH   1   7
ATOM      7  O   LIG d   1      -5.449  93.011 119.474  0.00  0.00    -0.368 OA
BRANCH   7   8
ATOM      8  C   LIG d   1      -5.524  94.411 119.838  0.00  0.00     0.119 C 
BRANCH   8   9
ATOM      9  C   LIG d   1      -4.465  94.663 120.928  0.00  0.00     0.028 C 
ATOM     10  C   LIG d   1      -3.165  95.256 120.358  0.00  0.00     0.006 C 
ENDBRANCH   8   9
BRANCH   8  11
ATOM     11  C   LIG d   1      -6.867  94.745 120.493  0.00  0.00     0.028 C 
ATOM     12  C   LIG d   1      -8.018  94.840 119.478  0.00  0.00     0.006 C 
ENDBRANCH   8  11
ENDBRANCH   7   8
ENDBRANCH   1   7
BRANCH   6  13
ATOM     13  N   LIG d   1      -2.690  91.942 118.901  0.00  0.00    -0.311 N 
ATOM     14  C   LIG d   1      -1.997  91.187 119.751  0.00  0.00     0.210 C 
ATOM     15  C   LIG d   1      -0.733  91.843 120.316  0.00  0.00     0.109 C 
ATOM     16  O   LIG d   1      -2.291  90.024 120.066  0.00  0.00    -0.276 OA
ATOM     17  H   LIG d   1      -2.362  92.861 118.677  0.00  0.00     0.149 HD
ENDBRANCH   6  13
BRANCH   5  18
ATOM     18  N   LIG d   1      -2.920  89.631 116.916  0.00  0.00     0.381 N 
ATOM     19  H   LIG d   1      -2.414  89.589 117.778  0.00  0.00    -0.090 HD
ATOM     20  H   LIG d   1      -2.257  89.637 116.161  0.00  0.00    -0.090 HD
ATOM     21  H   LIG d   1      -3.518  88.838 116.836  0.00  0.00    -0.090 HD
ENDBRANCH   5  18
BRANCH   3  22
ATOM     22  C   LIG d   1      -6.912  91.670 115.229  0.00  0.00     0.382 C 
ATOM     23  O   LIG d   1      -8.001  91.058 115.338  0.00  0.00    -0.241 OA
ATOM     24  O   LIG d   1      -6.666  92.304 114.185  0.00  0.00    -0.241 OA
ENDBRANCH   3  22
TORSDOF 7
ENDMDL
MODEL 6
REMARK VINA RESULT:      -4.4      2.710      5.195
REMARK  7 active torsions:
REMARK  status: ('A' for Active; 'I' for Inactive)
REMARK    1  A    between atoms: C_2  and  C_3 
REMARK    2  A    between atoms: C_3  and  O_6 
REMARK    3  A    between atoms: C_3  and  C_4 
REMARK    4  A    between atoms: C_7  and  O_6 
REMARK    5  A    between atoms: C_9  and  C_10 
REMARK    6  A    between atoms: N_15  and  C_14 
REMARK    7  A    between atoms: N_20  and  C_19 
REMARK       I    between atoms: C_22  and  N_20 
ROOT
ATOM      1  C   LIG d   1      -2.945  92.878 119.294  0.00  0.00     0.161 C 
ATOM      2  C   LIG d   1      -2.785  94.248 119.027  0.00  0.00     0.016 C 
ATOM      3  C   LIG d   1      -1.812  94.759 118.137  0.00  0.00     0.038 C 
ATOM      4  C   LIG d   1      -1.029  93.918 117.333  0.00  0.00     0.028 C 
ATOM      5  C   LIG d   1      -0.807  92.535 117.937  0.00  0.00    -0.047 C 
ATOM      6  C   LIG d   1      -2.175  91.939 118.342  0.00  0.00     0.091 C 
ENDROOT
BRANCH   1   7
ATOM      7  O   LIG d   1      -4.347  92.543 119.302  0.00  0.00    -0.368 OA
BRANCH   7   8
ATOM      8  C   LIG d   1      -5.138  93.086 118.216  0.00  0.00     0.119 C 
BRANCH   8   9
ATOM      9  C   LIG d   1      -6.471  93.577 118.815  0.00  0.00     0.028 C 
ATOM     10  C   LIG d   1      -6.438  95.073 119.170  0.00  0.00     0.006 C 
ENDBRANCH   8   9
BRANCH   8  11
ATOM     11  C   LIG d   1      -5.523  91.998 117.209  0.00  0.00     0.028 C 
ATOM     12  C   LIG d   1      -6.762  92.367 116.378  0.00  0.00     0.006 C 
ENDBRANCH   8  11
ENDBRANCH   7   8
ENDBRANCH   1   7
BRANCH   6  13
ATOM     13  N   LIG d   1      -2.041  90.623 119.019  0.00  0.00    -0.311 N 
ATOM     14  C   LIG d   1      -2.547  89.492 118.530  0.00  0.00     0.210 C 
ATOM     15  C   LIG d   1      -2.313  88.251 119.396  0.00  0.00     0.109 C 
ATOM     16  O   LIG d   1      -3.138  89.394 117.444  0.00  0.00    -0.276 OA
ATOM     17  H   LIG d   1      -1.548  90.606 119.891  0.00  0.00     0.149 HD
ENDBRANCH   6  13
BRANCH   5  18
ATOM     18  N   LIG d   1      -0.094  91.720 116.936  0.00  0.00     0.381 N 
ATOM     19  H   LIG d   1       0.890  91.755 117.109  0.00  0.00    -0.090 HD
ATOM     20  H   LIG d   1      -0.268  92.102 116.023  0.00  0.00    -0.090 HD
ATOM     21  H   LIG d   1      -0.412  90.777 116.976  0.00  0.00    -0.090 HD
ENDBRANCH   5  18
BRANCH   3  22
ATOM     22  C   LIG d   1      -1.588  96.126 118.074  0.00  0.00     0.382 C 
ATOM     23  O   LIG d   1      -0.615  96.572 117.420  0.00  0.00    -0.241 OA
ATOM     24  O   LIG d   1      -2.321  96.915 118.700  0.00  0.00    -0.241 OA
ENDBRANCH   3  22
TORSDOF 7
ENDMDL
MODEL 7
REMARK VINA RESULT:      -4.3      2.734      6.332
REMARK  7 active torsions:
REMARK  status: ('A' for Active; 'I' for Inactive)
REMARK    1  A    between atoms: C_2  and  C_3 
REMARK    2  A    between atoms: C_3  and  O_6 
REMARK    3  A    between atoms: C_3  and  C_4 
REMARK    4  A    between atoms: C_7  and  O_6 
REMARK    5  A    between atoms: C_9  and  C_10 
REMARK    6  A    between atoms: N_15  and  C_14 
REMARK    7  A    between atoms: N_20  and  C_19 
REMARK       I    between atoms: C_22  and  N_20 
ROOT
ATOM      1  C   LIG d   1      -5.217  93.005 118.530  0.00  0.00     0.161 C 
ATOM      2  C   LIG d   1      -6.165  92.902 117.498  0.00  0.00     0.016 C 
ATOM      3  C   LIG d   1      -6.067  91.968 116.441  0.00  0.00     0.038 C 
ATOM      4  C   LIG d   1      -5.086  90.965 116.427  0.00  0.00     0.028 C 
ATOM      5  C   LIG d   1      -3.816  91.349 117.179  0.00  0.00    -0.047 C 
ATOM      6  C   LIG d   1      -4.200  91.846 118.592  0.00  0.00     0.091 C 
ENDROOT
BRANCH   1   7
ATOM      7  O   LIG d   1      -5.889  93.150 119.797  0.00  0.00    -0.368 OA
BRANCH   7   8
ATOM      8  C   LIG d   1      -6.034  94.505 120.289  0.00  0.00     0.119 C 
BRANCH   8   9
ATOM      9  C   LIG d   1      -7.375  95.049 119.758  0.00  0.00     0.028 C 
ATOM     10  C   LIG d   1      -8.394  95.298 120.883  0.00  0.00     0.006 C 
ENDBRANCH   8   9
BRANCH   8  11
ATOM     11  C   LIG d   1      -4.961  95.429 119.704  0.00  0.00     0.028 C 
ATOM     12  C   LIG d   1      -5.169  96.902 120.090  0.00  0.00     0.006 C 
ENDBRANCH   8  11
ENDBRANCH   7   8
ENDBRANCH   1   7
BRANCH   6  13
ATOM     13  N   LIG d   1      -3.024  92.321 119.365  0.00  0.00    -0.311 N 
ATOM     14  C   LIG d   1      -2.190  93.262 118.927  0.00  0.00     0.210 C 
ATOM     15  C   LIG d   1      -1.029  93.589 119.872  0.00  0.00     0.109 C 
ATOM     16  O   LIG d   1      -2.319  93.880 117.859  0.00  0.00    -0.276 OA
ATOM     17  H   LIG d   1      -2.862  91.895 120.257  0.00  0.00     0.149 HD
ENDBRANCH   6  13
BRANCH   5  18
ATOM     18  N   LIG d   1      -2.937  90.165 117.203  0.00  0.00     0.381 N 
ATOM     19  H   LIG d   1      -2.972  89.699 116.318  0.00  0.00    -0.090 HD
ATOM     20  H   LIG d   1      -3.266  89.529 117.907  0.00  0.00    -0.090 HD
ATOM     21  H   LIG d   1      -2.000  90.439 117.404  0.00  0.00    -0.090 HD
ENDBRANCH   5  18
BRANCH   3  22
ATOM     22  C   LIG d   1      -6.933  92.057 115.362  0.00  0.00     0.382 C 
ATOM     23  O   LIG d   1      -6.487  92.321 114.220  0.00  0.00    -0.241 OA
ATOM     24  O   LIG d   1      -8.160  91.919 115.525  0.00  0.00    -0.241 OA
ENDBRANCH   3  22
TORSDOF 7
ENDMDL
MODEL 8
REMARK VINA RESULT:      -4.3      4.544      7.398
REMARK  7 active torsions:
REMARK  status: ('A' for Active; 'I' for Inactive)
REMARK    1  A    between atoms: C_2  and  C_3 
REMARK    2  A    between atoms: C_3  and  O_6 
REMARK    3  A    between atoms: C_3  and  C_4 
REMARK    4  A    between atoms: C_7  and  O_6 
REMARK    5  A    between atoms: C_9  and  C_10 
REMARK    6  A    between atoms: N_15  and  C_14 
REMARK    7  A    between atoms: N_20  and  C_19 
REMARK       I    between atoms: C_22  and  N_20 
ROOT
ATOM      1  C   LIG d   1       1.068  89.165 117.119  0.00  0.00     0.161 C 
ATOM      2  C   LIG d   1      -0.315  88.919 117.148  0.00  0.00     0.016 C 
ATOM      3  C   LIG d   1      -1.262  89.858 117.618  0.00  0.00     0.038 C 
ATOM      4  C   LIG d   1      -0.901  91.172 117.952  0.00  0.00     0.028 C 
ATOM      5  C   LIG d   1       0.545  91.303 118.417  0.00  0.00    -0.047 C 
ATOM      6  C   LIG d   1       1.470  90.633 117.375  0.00  0.00     0.091 C 
ENDROOT
BRANCH   1   7
ATOM      7  O   LIG d   1       1.619  88.705 115.869  0.00  0.00    -0.368 OA
BRANCH   7   8
ATOM      8  C   LIG d   1       2.600  87.643 115.957  0.00  0.00     0.119 C 
BRANCH   8   9
ATOM      9  C   LIG d   1       3.930  88.194 115.408  0.00  0.00     0.028 C 
ATOM     10  C   LIG d   1       3.722  89.361 114.429  0.00  0.00     0.006 C 
ENDBRANCH   8   9
BRANCH   8  11
ATOM     11  C   LIG d   1       2.237  86.471 115.040  0.00  0.00     0.028 C 
ATOM     12  C   LIG d   1       0.822  86.591 114.453  0.00  0.00     0.006 C 
ENDBRANCH   8  11
ENDBRANCH   7   8
ENDBRANCH   1   7
BRANCH   6  13
ATOM     13  N   LIG d   1       2.896  90.642 117.793  0.00  0.00    -0.311 N 
ATOM     14  C   LIG d   1       3.759  91.590 117.433  0.00  0.00     0.210 C 
ATOM     15  C   LIG d   1       5.186  91.399 117.957  0.00  0.00     0.109 C 
ATOM     16  O   LIG d   1       3.471  92.589 116.756  0.00  0.00    -0.276 OA
ATOM     17  H   LIG d   1       3.207  89.885 118.370  0.00  0.00     0.149 HD
ENDBRANCH   6  13
BRANCH   5  18
ATOM     18  N   LIG d   1       0.826  92.740 118.599  0.00  0.00     0.381 N 
ATOM     19  H   LIG d   1       0.237  93.279 117.997  0.00  0.00    -0.090 HD
ATOM     20  H   LIG d   1       1.782  92.919 118.347  0.00  0.00    -0.090 HD
ATOM     21  H   LIG d   1       0.671  93.000 119.548  0.00  0.00    -0.090 HD
ENDBRANCH   5  18
BRANCH   3  22
ATOM     22  C   LIG d   1      -2.582  89.472 117.796  0.00  0.00     0.382 C 
ATOM     23  O   LIG d   1      -2.888  88.697 118.734  0.00  0.00    -0.241 OA
ATOM     24  O   LIG d   1      -3.464  89.853 117.004  0.00  0.00    -0.241 OA
ENDBRANCH   3  22
TORSDOF 7
ENDMDL
MODEL 9
REMARK VINA RESULT:      -4.1      2.731      3.840
REMARK  7 active torsions:
REMARK  status: ('A' for Active; 'I' for Inactive)
REMARK    1  A    between atoms: C_2  and  C_3 
REMARK    2  A    between atoms: C_3  and  O_6 
REMARK    3  A    between atoms: C_3  and  C_4 
REMARK    4  A    between atoms: C_7  and  O_6 
REMARK    5  A    between atoms: C_9  and  C_10 
REMARK    6  A    between atoms: N_15  and  C_14 
REMARK    7  A    between atoms: N_20  and  C_19 
REMARK       I    between atoms: C_22  and  N_20 
ROOT
ATOM      1  C   LIG d   1      -1.467  92.577 118.353  0.00  0.00     0.161 C 
ATOM      2  C   LIG d   1      -0.370  93.169 119.000  0.00  0.00     0.016 C 
ATOM      3  C   LIG d   1      -0.437  94.416 119.664  0.00  0.00     0.038 C 
ATOM      4  C   LIG d   1      -1.653  95.088 119.856  0.00  0.00     0.028 C 
ATOM      5  C   LIG d   1      -2.694  94.777 118.786  0.00  0.00    -0.047 C 
ATOM      6  C   LIG d   1      -2.828  93.243 118.648  0.00  0.00     0.091 C 
ENDROOT
BRANCH   1   7
ATOM      7  O   LIG d   1      -1.519  91.171 118.666  0.00  0.00    -0.368 OA
BRANCH   7   8
ATOM      8  C   LIG d   1      -1.130  90.266 117.603  0.00  0.00     0.119 C 
BRANCH   8   9
ATOM      9  C   LIG d   1      -2.144  89.106 117.589  0.00  0.00     0.028 C 
ATOM     10  C   LIG d   1      -2.479  88.602 119.003  0.00  0.00     0.006 C 
ENDBRANCH   8   9
BRANCH   8  11
ATOM     11  C   LIG d   1       0.226  89.616 117.893  0.00  0.00     0.028 C 
ATOM     12  C   LIG d   1       1.365  90.217 117.055  0.00  0.00     0.006 C 
ENDBRANCH   8  11
ENDBRANCH   7   8
ENDBRANCH   1   7
BRANCH   6  13
ATOM     13  N   LIG d   1      -3.764  92.851 117.562  0.00  0.00    -0.311 N 
ATOM     14  C   LIG d   1      -5.058  92.607 117.763  0.00  0.00     0.210 C 
ATOM     15  C   LIG d   1      -5.841  92.198 116.511  0.00  0.00     0.109 C 
ATOM     16  O   LIG d   1      -5.638  92.721 118.853  0.00  0.00    -0.276 OA
ATOM     17  H   LIG d   1      -3.384  92.765 116.640  0.00  0.00     0.149 HD
ENDBRANCH   6  13
BRANCH   5  18
ATOM     18  N   LIG d   1      -3.953  95.433 119.184  0.00  0.00     0.381 N 
ATOM     19  H   LIG d   1      -4.016  95.469 120.181  0.00  0.00    -0.090 HD
ATOM     20  H   LIG d   1      -4.726  94.892 118.838  0.00  0.00    -0.090 HD
ATOM     21  H   LIG d   1      -3.990  96.356 118.808  0.00  0.00    -0.090 HD
ENDBRANCH   5  18
BRANCH   3  22
ATOM     22  C   LIG d   1       0.728  95.021 120.109  0.00  0.00     0.382 C 
ATOM     23  O   LIG d   1       0.701  96.205 120.522  0.00  0.00    -0.241 OA
ATOM     24  O   LIG d   1       1.814  94.413 120.061  0.00  0.00    -0.241 OA
ENDBRANCH   3  22
TORSDOF 7
ENDMDL
