MODEL 1
REMARK VINA RESULT:      -5.9      0.000      0.000
REMARK  7 active torsions:
REMARK  status: ('A' for Active; 'I' for Inactive)
REMARK    1  A    between atoms: C_2  and  C_3 
REMARK    2  A    between atoms: C_3  and  O_6 
REMARK    3  A    between atoms: C_3  and  C_4 
REMARK    4  A    between atoms: C_7  and  O_6 
REMARK    5  A    between atoms: C_9  and  C_10 
REMARK    6  A    between atoms: N_15  and  C_14 
REMARK    7  A    between atoms: N_20  and  C_19 
REMARK       I    between atoms: C_22  and  N_20 
ROOT
ATOM      1  C   LIG d   1      -6.638  92.890 117.293  0.00  0.00     0.161 C 
ATOM      2  C   LIG d   1      -7.748  93.738 117.440  0.00  0.00     0.016 C 
ATOM      3  C   LIG d   1      -7.769  94.847 118.317  0.00  0.00     0.038 C 
ATOM      4  C   LIG d   1      -6.621  95.275 118.999  0.00  0.00     0.028 C 
ATOM      5  C   LIG d   1      -5.623  94.154 119.269  0.00  0.00    -0.047 C 
ATOM      6  C   LIG d   1      -5.339  93.406 117.946  0.00  0.00     0.091 C 
ENDROOT
BRANCH   1   7
ATOM      7  O   LIG d   1      -6.420  92.609 115.896  0.00  0.00    -0.368 OA
BRANCH   7   8
ATOM      8  C   LIG d   1      -7.338  91.670 115.284  0.00  0.00     0.119 C 
BRANCH   8   9
ATOM      9  C   LIG d   1      -7.620  90.560 116.315  0.00  0.00     0.028 C 
ATOM     10  C   LIG d   1      -8.759  89.625 115.874  0.00  0.00     0.006 C 
ENDBRANCH   8   9
BRANCH   8  11
ATOM     11  C   LIG d   1      -6.694  90.960 114.090  0.00  0.00     0.028 C 
ATOM     12  C   LIG d   1      -5.754  89.818 114.511  0.00  0.00     0.006 C 
ENDBRANCH   8  11
ENDBRANCH   7   8
ENDBRANCH   1   7
BRANCH   6  13
ATOM     13  N   LIG d   1      -4.437  92.241 118.136  0.00  0.00    -0.311 N 
ATOM     14  C   LIG d   1      -3.115  92.305 117.989  0.00  0.00     0.210 C 
ATOM     15  C   LIG d   1      -2.374  90.982 118.212  0.00  0.00     0.109 C 
ATOM     16  O   LIG d   1      -2.482  93.339 117.727  0.00  0.00    -0.276 OA
ATOM     17  H   LIG d   1      -4.864  91.369 118.381  0.00  0.00     0.149 HD
ENDBRANCH   6  13
BRANCH   5  18
ATOM     18  N   LIG d   1      -4.417  94.763 119.860  0.00  0.00     0.381 N 
ATOM     19  H   LIG d   1      -4.444  94.670 120.856  0.00  0.00    -0.090 HD
ATOM     20  H   LIG d   1      -4.404  95.742 119.635  0.00  0.00    -0.090 HD
ATOM     21  H   LIG d   1      -3.600  94.320 119.500  0.00  0.00    -0.090 HD
ENDBRANCH   5  18
BRANCH   3  22
ATOM     22  C   LIG d   1      -8.961  95.517 118.549  0.00  0.00     0.382 C 
ATOM     23  O   LIG d   1      -9.984  94.877 118.890  0.00  0.00    -0.241 OA
ATOM     24  O   LIG d   1      -9.037  96.749 118.377  0.00  0.00    -0.241 OA
ENDBRANCH   3  22
TORSDOF 7
ENDMDL
MODEL 2
REMARK VINA RESULT:      -5.8      1.971      5.148
REMARK  7 active torsions:
REMARK  status: ('A' for Active; 'I' for Inactive)
REMARK    1  A    between atoms: C_2  and  C_3 
REMARK    2  A    between atoms: C_3  and  O_6 
REMARK    3  A    between atoms: C_3  and  C_4 
REMARK    4  A    between atoms: C_7  and  O_6 
REMARK    5  A    between atoms: C_9  and  C_10 
REMARK    6  A    between atoms: N_15  and  C_14 
REMARK    7  A    between atoms: N_20  and  C_19 
REMARK       I    between atoms: C_22  and  N_20 
ROOT
ATOM      1  C   LIG d   1      -6.511  93.222 117.398  0.00  0.00     0.161 C 
ATOM      2  C   LIG d   1      -7.240  92.340 116.582  0.00  0.00     0.016 C 
ATOM      3  C   LIG d   1      -6.700  91.149 116.046  0.00  0.00     0.038 C 
ATOM      4  C   LIG d   1      -5.431  90.678 116.416  0.00  0.00     0.028 C 
ATOM      5  C   LIG d   1      -4.473  91.787 116.836  0.00  0.00    -0.047 C 
ATOM      6  C   LIG d   1      -5.162  92.669 117.902  0.00  0.00     0.091 C 
ENDROOT
BRANCH   1   7
ATOM      7  O   LIG d   1      -7.326  93.646 118.508  0.00  0.00    -0.368 OA
BRANCH   7   8
ATOM      8  C   LIG d   1      -7.409  95.075 118.728  0.00  0.00     0.119 C 
BRANCH   8   9
ATOM      9  C   LIG d   1      -7.275  95.319 120.244  0.00  0.00     0.028 C 
ATOM     10  C   LIG d   1      -6.114  96.269 120.585  0.00  0.00     0.006 C 
ENDBRANCH   8   9
BRANCH   8  11
ATOM     11  C   LIG d   1      -8.791  95.618 118.351  0.00  0.00     0.028 C 
ATOM     12  C   LIG d   1      -8.788  97.134 118.099  0.00  0.00     0.006 C 
ENDBRANCH   8  11
ENDBRANCH   7   8
ENDBRANCH   1   7
BRANCH   6  13
ATOM     13  N   LIG d   1      -4.325  93.828 118.307  0.00  0.00    -0.311 N 
ATOM     14  C   LIG d   1      -3.502  93.808 119.354  0.00  0.00     0.210 C 
ATOM     15  C   LIG d   1      -2.746  95.116 119.608  0.00  0.00     0.109 C 
ATOM     16  O   LIG d   1      -3.302  92.820 120.078  0.00  0.00    -0.276 OA
ATOM     17  H   LIG d   1      -4.401  94.661 117.757  0.00  0.00     0.149 HD
ENDBRANCH   6  13
BRANCH   5  18
ATOM     18  N   LIG d   1      -3.237  91.147 117.326  0.00  0.00     0.381 N 
ATOM     19  H   LIG d   1      -3.359  90.859 118.277  0.00  0.00    -0.090 HD
ATOM     20  H   LIG d   1      -2.489  91.816 117.294  0.00  0.00    -0.090 HD
ATOM     21  H   LIG d   1      -3.013  90.359 116.759  0.00  0.00    -0.090 HD
ENDBRANCH   5  18
BRANCH   3  22
ATOM     22  C   LIG d   1      -7.416  90.435 115.098  0.00  0.00     0.382 C 
ATOM     23  O   LIG d   1      -8.653  90.614 114.980  0.00  0.00    -0.241 OA
ATOM     24  O   LIG d   1      -6.850  89.582 114.388  0.00  0.00    -0.241 OA
ENDBRANCH   3  22
TORSDOF 7
ENDMDL
MODEL 3
REMARK VINA RESULT:      -5.6      2.625      4.962
REMARK  7 active torsions:
REMARK  status: ('A' for Active; 'I' for Inactive)
REMARK    1  A    between atoms: C_2  and  C_3 
REMARK    2  A    between atoms: C_3  and  O_6 
REMARK    3  A    between atoms: C_3  and  C_4 
REMARK    4  A    between atoms: C_7  and  O_6 
REMARK    5  A    between atoms: C_9  and  C_10 
REMARK    6  A    between atoms: N_15  and  C_14 
REMARK    7  A    between atoms: N_20  and  C_19 
REMARK       I    between atoms: C_22  and  N_20 
ROOT
ATOM      1  C   LIG d   1      -4.474  91.385 117.668  0.00  0.00     0.161 C 
ATOM      2  C   LIG d   1      -5.314  90.710 116.767  0.00  0.00     0.016 C 
ATOM      3  C   LIG d   1      -6.527  91.250 116.279  0.00  0.00     0.038 C 
ATOM      4  C   LIG d   1      -6.909  92.573 116.545  0.00  0.00     0.028 C 
ATOM      5  C   LIG d   1      -6.345  93.115 117.854  0.00  0.00    -0.047 C 
ATOM      6  C   LIG d   1      -4.819  92.874 117.882  0.00  0.00     0.091 C 
ENDROOT
BRANCH   1   7
ATOM      7  O   LIG d   1      -3.101  91.243 117.256  0.00  0.00    -0.368 OA
BRANCH   7   8
ATOM      8  C   LIG d   1      -2.222  90.567 118.188  0.00  0.00     0.119 C 
BRANCH   8   9
ATOM      9  C   LIG d   1      -0.773  90.831 117.734  0.00  0.00     0.028 C 
ATOM     10  C   LIG d   1      -0.047  91.836 118.645  0.00  0.00     0.006 C 
ENDBRANCH   8   9
BRANCH   8  11
ATOM     11  C   LIG d   1      -2.398  89.047 118.118  0.00  0.00     0.028 C 
ATOM     12  C   LIG d   1      -2.756  88.425 119.477  0.00  0.00     0.006 C 
ENDBRANCH   8  11
ENDBRANCH   7   8
ENDBRANCH   1   7
BRANCH   6  13
ATOM     13  N   LIG d   1      -4.201  93.298 119.165  0.00  0.00    -0.311 N 
ATOM     14  C   LIG d   1      -3.093  94.034 119.237  0.00  0.00     0.210 C 
ATOM     15  C   LIG d   1      -2.614  94.344 120.659  0.00  0.00     0.109 C 
ATOM     16  O   LIG d   1      -2.479  94.486 118.259  0.00  0.00    -0.276 OA
ATOM     17  H   LIG d   1      -4.652  93.001 120.009  0.00  0.00     0.149 HD
ENDBRANCH   6  13
BRANCH   5  18
ATOM     18  N   LIG d   1      -6.707  94.543 117.938  0.00  0.00     0.381 N 
ATOM     19  H   LIG d   1      -6.018  95.036 118.470  0.00  0.00    -0.090 HD
ATOM     20  H   LIG d   1      -7.590  94.628 118.410  0.00  0.00    -0.090 HD
ATOM     21  H   LIG d   1      -6.772  94.932 117.023  0.00  0.00    -0.090 HD
ENDBRANCH   5  18
BRANCH   3  22
ATOM     22  C   LIG d   1      -7.391  90.449 115.549  0.00  0.00     0.382 C 
ATOM     23  O   LIG d   1      -6.932  89.576 114.773  0.00  0.00    -0.241 OA
ATOM     24  O   LIG d   1      -8.623  90.618 115.622  0.00  0.00    -0.241 OA
ENDBRANCH   3  22
TORSDOF 7
ENDMDL
MODEL 4
REMARK VINA RESULT:      -5.6      1.631      2.261
REMARK  7 active torsions:
REMARK  status: ('A' for Active; 'I' for Inactive)
REMARK    1  A    between atoms: C_2  and  C_3 
REMARK    2  A    between atoms: C_3  and  O_6 
REMARK    3  A    between atoms: C_3  and  C_4 
REMARK    4  A    between atoms: C_7  and  O_6 
REMARK    5  A    between atoms: C_9  and  C_10 
REMARK    6  A    between atoms: N_15  and  C_14 
REMARK    7  A    between atoms: N_20  and  C_19 
REMARK       I    between atoms: C_22  and  N_20 
ROOT
ATOM      1  C   LIG d   1      -6.248  93.145 119.509  0.00  0.00     0.161 C 
ATOM      2  C   LIG d   1      -7.506  93.660 119.155  0.00  0.00     0.016 C 
ATOM      3  C   LIG d   1      -7.736  95.026 118.870  0.00  0.00     0.038 C 
ATOM      4  C   LIG d   1      -6.685  95.950 118.772  0.00  0.00     0.028 C 
ATOM      5  C   LIG d   1      -5.470  95.577 119.616  0.00  0.00    -0.047 C 
ATOM      6  C   LIG d   1      -5.069  94.118 119.300  0.00  0.00     0.091 C 
ENDROOT
BRANCH   1   7
ATOM      7  O   LIG d   1      -6.009  91.910 118.806  0.00  0.00    -0.368 OA
BRANCH   7   8
ATOM      8  C   LIG d   1      -5.633  92.033 117.412  0.00  0.00     0.119 C 
BRANCH   8   9
ATOM      9  C   LIG d   1      -6.727  91.342 116.574  0.00  0.00     0.028 C 
ATOM     10  C   LIG d   1      -7.227  92.225 115.419  0.00  0.00     0.006 C 
ENDBRANCH   8   9
BRANCH   8  11
ATOM     11  C   LIG d   1      -4.345  91.261 117.112  0.00  0.00     0.028 C 
ATOM     12  C   LIG d   1      -3.855  90.432 118.310  0.00  0.00     0.006 C 
ENDBRANCH   8  11
ENDBRANCH   7   8
ENDBRANCH   1   7
BRANCH   6  13
ATOM     13  N   LIG d   1      -3.940  93.646 120.143  0.00  0.00    -0.311 N 
ATOM     14  C   LIG d   1      -2.670  93.659 119.743  0.00  0.00     0.210 C 
ATOM     15  C   LIG d   1      -1.666  93.108 120.761  0.00  0.00     0.109 C 
ATOM     16  O   LIG d   1      -2.276  94.104 118.655  0.00  0.00    -0.276 OA
ATOM     17  H   LIG d   1      -4.166  93.297 121.054  0.00  0.00     0.149 HD
ENDBRANCH   6  13
BRANCH   5  18
ATOM     18  N   LIG d   1      -4.403  96.549 119.314  0.00  0.00     0.381 N 
ATOM     19  H   LIG d   1      -3.533  96.223 119.684  0.00  0.00    -0.090 HD
ATOM     20  H   LIG d   1      -4.625  97.424 119.755  0.00  0.00    -0.090 HD
ATOM     21  H   LIG d   1      -4.326  96.676 118.329  0.00  0.00    -0.090 HD
ENDBRANCH   5  18
BRANCH   3  22
ATOM     22  C   LIG d   1      -9.035  95.487 118.718  0.00  0.00     0.382 C 
ATOM     23  O   LIG d   1     -10.002  94.748 119.023  0.00  0.00    -0.241 OA
ATOM     24  O   LIG d   1      -9.252  96.616 118.239  0.00  0.00    -0.241 OA
ENDBRANCH   3  22
TORSDOF 7
ENDMDL
MODEL 5
REMARK VINA RESULT:      -5.3      2.730      5.286
REMARK  7 active torsions:
REMARK  status: ('A' for Active; 'I' for Inactive)
REMARK    1  A    between atoms: C_2  and  C_3 
REMARK    2  A    between atoms: C_3  and  O_6 
REMARK    3  A    between atoms: C_3  and  C_4 
REMARK    4  A    between atoms: C_7  and  O_6 
REMARK    5  A    between atoms: C_9  and  C_10 
REMARK    6  A    between atoms: N_15  and  C_14 
REMARK    7  A    between atoms: N_20  and  C_19 
REMARK       I    between atoms: C_22  and  N_20 
ROOT
ATOM      1  C   LIG d   1      -4.173  91.383 117.652  0.00  0.00     0.161 C 
ATOM      2  C   LIG d   1      -3.787  92.180 118.742  0.00  0.00     0.016 C 
ATOM      3  C   LIG d   1      -4.564  93.253 119.235  0.00  0.00     0.038 C 
ATOM      4  C   LIG d   1      -5.861  93.507 118.765  0.00  0.00     0.028 C 
ATOM      5  C   LIG d   1      -6.085  93.047 117.328  0.00  0.00    -0.047 C 
ATOM      6  C   LIG d   1      -5.635  91.574 117.197  0.00  0.00     0.091 C 
ENDROOT
BRANCH   1   7
ATOM      7  O   LIG d   1      -3.918  89.995 117.948  0.00  0.00    -0.368 OA
BRANCH   7   8
ATOM      8  C   LIG d   1      -2.751  89.721 118.761  0.00  0.00     0.119 C 
BRANCH   8   9
ATOM      9  C   LIG d   1      -1.592  89.376 117.806  0.00  0.00     0.028 C 
ATOM     10  C   LIG d   1      -0.608  90.544 117.631  0.00  0.00     0.006 C 
ENDBRANCH   8   9
BRANCH   8  11
ATOM     11  C   LIG d   1      -2.953  88.471 119.622  0.00  0.00     0.028 C 
ATOM     12  C   LIG d   1      -1.714  87.562 119.654  0.00  0.00     0.006 C 
ENDBRANCH   8  11
ENDBRANCH   7   8
ENDBRANCH   1   7
BRANCH   6  13
ATOM     13  N   LIG d   1      -5.742  91.070 115.803  0.00  0.00    -0.311 N 
ATOM     14  C   LIG d   1      -6.605  90.128 115.428  0.00  0.00     0.210 C 
ATOM     15  C   LIG d   1      -6.536  89.741 113.947  0.00  0.00     0.109 C 
ATOM     16  O   LIG d   1      -7.443  89.599 116.173  0.00  0.00    -0.276 OA
ATOM     17  H   LIG d   1      -5.120  91.467 115.126  0.00  0.00     0.149 HD
ENDBRANCH   6  13
BRANCH   5  18
ATOM     18  N   LIG d   1      -7.512  93.246 117.014  0.00  0.00     0.381 N 
ATOM     19  H   LIG d   1      -8.077  92.765 117.684  0.00  0.00    -0.090 HD
ATOM     20  H   LIG d   1      -7.702  92.860 116.106  0.00  0.00    -0.090 HD
ATOM     21  H   LIG d   1      -7.731  94.218 117.021  0.00  0.00    -0.090 HD
ENDBRANCH   5  18
BRANCH   3  22
ATOM     22  C   LIG d   1      -4.028  94.111 120.184  0.00  0.00     0.382 C 
ATOM     23  O   LIG d   1      -2.842  93.962 120.565  0.00  0.00    -0.241 OA
ATOM     24  O   LIG d   1      -4.730  95.004 120.697  0.00  0.00    -0.241 OA
ENDBRANCH   3  22
TORSDOF 7
ENDMDL
MODEL 6
REMARK VINA RESULT:      -5.2      2.344      4.722
REMARK  7 active torsions:
REMARK  status: ('A' for Active; 'I' for Inactive)
REMARK    1  A    between atoms: C_2  and  C_3 
REMARK    2  A    between atoms: C_3  and  O_6 
REMARK    3  A    between atoms: C_3  and  C_4 
REMARK    4  A    between atoms: C_7  and  O_6 
REMARK    5  A    between atoms: C_9  and  C_10 
REMARK    6  A    between atoms: N_15  and  C_14 
REMARK    7  A    between atoms: N_20  and  C_19 
REMARK       I    between atoms: C_22  and  N_20 
ROOT
ATOM      1  C   LIG d   1      -4.905  92.034 117.733  0.00  0.00     0.161 C 
ATOM      2  C   LIG d   1      -5.074  93.139 118.585  0.00  0.00     0.016 C 
ATOM      3  C   LIG d   1      -6.174  94.023 118.504  0.00  0.00     0.038 C 
ATOM      4  C   LIG d   1      -7.265  93.772 117.658  0.00  0.00     0.028 C 
ATOM      5  C   LIG d   1      -6.902  92.949 116.427  0.00  0.00    -0.047 C 
ATOM      6  C   LIG d   1      -6.140  91.682 116.879  0.00  0.00     0.091 C 
ENDROOT
BRANCH   1   7
ATOM      7  O   LIG d   1      -4.481  90.888 118.498  0.00  0.00    -0.368 OA
BRANCH   7   8
ATOM      8  C   LIG d   1      -3.061  90.599 118.479  0.00  0.00     0.119 C 
BRANCH   8   9
ATOM      9  C   LIG d   1      -2.900  89.086 118.235  0.00  0.00     0.028 C 
ATOM     10  C   LIG d   1      -2.735  88.295 119.543  0.00  0.00     0.006 C 
ENDBRANCH   8   9
BRANCH   8  11
ATOM     11  C   LIG d   1      -2.422  90.860 119.846  0.00  0.00     0.028 C 
ATOM     12  C   LIG d   1      -1.209  91.801 119.767  0.00  0.00     0.006 C 
ENDBRANCH   8  11
ENDBRANCH   7   8
ENDBRANCH   1   7
BRANCH   6  13
ATOM     13  N   LIG d   1      -5.674  90.862 115.730  0.00  0.00    -0.311 N 
ATOM     14  C   LIG d   1      -6.389  89.874 115.196  0.00  0.00     0.210 C 
ATOM     15  C   LIG d   1      -5.714  89.143 114.031  0.00  0.00     0.109 C 
ATOM     16  O   LIG d   1      -7.533  89.555 115.554  0.00  0.00    -0.276 OA
ATOM     17  H   LIG d   1      -4.769  91.073 115.356  0.00  0.00     0.149 HD
ENDBRANCH   6  13
BRANCH   5  18
ATOM     18  N   LIG d   1      -8.153  92.646 115.708  0.00  0.00     0.381 N 
ATOM     19  H   LIG d   1      -7.943  92.311 114.789  0.00  0.00    -0.090 HD
ATOM     20  H   LIG d   1      -8.691  93.491 115.621  0.00  0.00    -0.090 HD
ATOM     21  H   LIG d   1      -8.676  91.961 116.207  0.00  0.00    -0.090 HD
ENDBRANCH   5  18
BRANCH   3  22
ATOM     22  C   LIG d   1      -6.172  95.193 119.246  0.00  0.00     0.382 C 
ATOM     23  O   LIG d   1      -5.269  95.396 120.093  0.00  0.00    -0.241 OA
ATOM     24  O   LIG d   1      -7.085  96.029 119.112  0.00  0.00    -0.241 OA
ENDBRANCH   3  22
TORSDOF 7
ENDMDL
MODEL 7
REMARK VINA RESULT:      -5.2      1.989      2.155
REMARK  7 active torsions:
REMARK  status: ('A' for Active; 'I' for Inactive)
REMARK    1  A    between atoms: C_2  and  C_3 
REMARK    2  A    between atoms: C_3  and  O_6 
REMARK    3  A    between atoms: C_3  and  C_4 
REMARK    4  A    between atoms: C_7  and  O_6 
REMARK    5  A    between atoms: C_9  and  C_10 
REMARK    6  A    between atoms: N_15  and  C_14 
REMARK    7  A    between atoms: N_20  and  C_19 
REMARK       I    between atoms: C_22  and  N_20 
ROOT
ATOM      1  C   LIG d   1      -5.402  91.320 118.092  0.00  0.00     0.161 C 
ATOM      2  C   LIG d   1      -6.506  91.791 118.821  0.00  0.00     0.016 C 
ATOM      3  C   LIG d   1      -6.577  93.090 119.375  0.00  0.00     0.038 C 
ATOM      4  C   LIG d   1      -5.604  94.064 119.107  0.00  0.00     0.028 C 
ATOM      5  C   LIG d   1      -4.230  93.479 118.797  0.00  0.00    -0.047 C 
ATOM      6  C   LIG d   1      -4.379  92.405 117.695  0.00  0.00     0.091 C 
ENDROOT
BRANCH   1   7
ATOM      7  O   LIG d   1      -5.854  90.607 116.925  0.00  0.00    -0.368 OA
BRANCH   7   8
ATOM      8  C   LIG d   1      -7.199  90.906 116.477  0.00  0.00     0.119 C 
BRANCH   8   9
ATOM      9  C   LIG d   1      -7.692  89.701 115.654  0.00  0.00     0.028 C 
ATOM     10  C   LIG d   1      -9.124  89.281 116.026  0.00  0.00     0.006 C 
ENDBRANCH   8   9
BRANCH   8  11
ATOM     11  C   LIG d   1      -7.213  92.092 115.508  0.00  0.00     0.028 C 
ATOM     12  C   LIG d   1      -6.716  91.718 114.102  0.00  0.00     0.006 C 
ENDBRANCH   8  11
ENDBRANCH   7   8
ENDBRANCH   1   7
BRANCH   6  13
ATOM     13  N   LIG d   1      -3.094  91.723 117.392  0.00  0.00    -0.311 N 
ATOM     14  C   LIG d   1      -2.382  91.061 118.303  0.00  0.00     0.210 C 
ATOM     15  C   LIG d   1      -1.078  90.448 117.784  0.00  0.00     0.109 C 
ATOM     16  O   LIG d   1      -2.723  90.897 119.484  0.00  0.00    -0.276 OA
ATOM     17  H   LIG d   1      -2.759  91.779 116.450  0.00  0.00     0.149 HD
ENDBRANCH   6  13
BRANCH   5  18
ATOM     18  N   LIG d   1      -3.349  94.594 118.402  0.00  0.00     0.381 N 
ATOM     19  H   LIG d   1      -3.270  94.627 117.405  0.00  0.00    -0.090 HD
ATOM     20  H   LIG d   1      -2.434  94.437 118.786  0.00  0.00    -0.090 HD
ATOM     21  H   LIG d   1      -3.716  95.456 118.742  0.00  0.00    -0.090 HD
ENDBRANCH   5  18
BRANCH   3  22
ATOM     22  C   LIG d   1      -7.611  93.413 120.240  0.00  0.00     0.382 C 
ATOM     23  O   LIG d   1      -8.630  92.683 120.300  0.00  0.00    -0.241 OA
ATOM     24  O   LIG d   1      -7.557  94.449 120.930  0.00  0.00    -0.241 OA
ENDBRANCH   3  22
TORSDOF 7
ENDMDL
MODEL 8
REMARK VINA RESULT:      -5.1      3.505      6.230
REMARK  7 active torsions:
REMARK  status: ('A' for Active; 'I' for Inactive)
REMARK    1  A    between atoms: C_2  and  C_3 
REMARK    2  A    between atoms: C_3  and  O_6 
REMARK    3  A    between atoms: C_3  and  C_4 
REMARK    4  A    between atoms: C_7  and  O_6 
REMARK    5  A    between atoms: C_9  and  C_10 
REMARK    6  A    between atoms: N_15  and  C_14 
REMARK    7  A    between atoms: N_20  and  C_19 
REMARK       I    between atoms: C_22  and  N_20 
ROOT
ATOM      1  C   LIG d   1      -1.710  91.141 118.002  0.00  0.00     0.161 C 
ATOM      2  C   LIG d   1      -2.944  90.644 117.551  0.00  0.00     0.016 C 
ATOM      3  C   LIG d   1      -4.104  91.441 117.422  0.00  0.00     0.038 C 
ATOM      4  C   LIG d   1      -4.070  92.833 117.593  0.00  0.00     0.028 C 
ATOM      5  C   LIG d   1      -2.967  93.300 118.538  0.00  0.00    -0.047 C 
ATOM      6  C   LIG d   1      -1.625  92.679 118.088  0.00  0.00     0.091 C 
ENDROOT
BRANCH   1   7
ATOM      7  O   LIG d   1      -0.645  90.625 117.180  0.00  0.00    -0.368 OA
BRANCH   7   8
ATOM      8  C   LIG d   1       0.317  89.770 117.845  0.00  0.00     0.119 C 
BRANCH   8   9
ATOM      9  C   LIG d   1       1.676  89.970 117.145  0.00  0.00     0.028 C 
ATOM     10  C   LIG d   1       2.772  90.439 118.116  0.00  0.00     0.006 C 
ENDBRANCH   8   9
BRANCH   8  11
ATOM     11  C   LIG d   1      -0.025  88.290 117.651  0.00  0.00     0.028 C 
ATOM     12  C   LIG d   1      -0.578  87.634 118.926  0.00  0.00     0.006 C 
ENDBRANCH   8  11
ENDBRANCH   7   8
ENDBRANCH   1   7
BRANCH   6  13
ATOM     13  N   LIG d   1      -0.507  93.017 119.008  0.00  0.00    -0.311 N 
ATOM     14  C   LIG d   1       0.661  93.503 118.594  0.00  0.00     0.210 C 
ATOM     15  C   LIG d   1       1.683  93.764 119.705  0.00  0.00     0.109 C 
ATOM     16  O   LIG d   1       0.937  93.773 117.415  0.00  0.00    -0.276 OA
ATOM     17  H   LIG d   1      -0.657  92.858 119.985  0.00  0.00     0.149 HD
ENDBRANCH   6  13
BRANCH   5  18
ATOM     18  N   LIG d   1      -2.957  94.775 118.517  0.00  0.00     0.381 N 
ATOM     19  H   LIG d   1      -3.682  95.127 119.110  0.00  0.00    -0.090 HD
ATOM     20  H   LIG d   1      -3.137  95.088 117.580  0.00  0.00    -0.090 HD
ATOM     21  H   LIG d   1      -2.073  95.114 118.825  0.00  0.00    -0.090 HD
ENDBRANCH   5  18
BRANCH   3  22
ATOM     22  C   LIG d   1      -5.325  90.840 117.156  0.00  0.00     0.382 C 
ATOM     23  O   LIG d   1      -6.286  90.995 117.949  0.00  0.00    -0.241 OA
ATOM     24  O   LIG d   1      -5.466  90.110 116.158  0.00  0.00    -0.241 OA
ENDBRANCH   3  22
TORSDOF 7
ENDMDL
MODEL 9
REMARK VINA RESULT:      -4.9      2.167      4.946
REMARK  7 active torsions:
REMARK  status: ('A' for Active; 'I' for Inactive)
REMARK    1  A    between atoms: C_2  and  C_3 
REMARK    2  A    between atoms: C_3  and  O_6 
REMARK    3  A    between atoms: C_3  and  C_4 
REMARK    4  A    between atoms: C_7  and  O_6 
REMARK    5  A    between atoms: C_9  and  C_10 
REMARK    6  A    between atoms: N_15  and  C_14 
REMARK    7  A    between atoms: N_20  and  C_19 
REMARK       I    between atoms: C_22  and  N_20 
ROOT
ATOM      1  C   LIG d   1      -5.698  93.314 118.514  0.00  0.00     0.161 C 
ATOM      2  C   LIG d   1      -6.584  92.991 117.472  0.00  0.00     0.016 C 
ATOM      3  C   LIG d   1      -6.279  92.062 116.451  0.00  0.00     0.038 C 
ATOM      4  C   LIG d   1      -5.118  91.275 116.488  0.00  0.00     0.028 C 
ATOM      5  C   LIG d   1      -3.967  91.928 117.245  0.00  0.00    -0.047 C 
ATOM      6  C   LIG d   1      -4.473  92.384 118.632  0.00  0.00     0.091 C 
ENDROOT
BRANCH   1   7
ATOM      7  O   LIG d   1      -6.413  93.363 119.765  0.00  0.00    -0.368 OA
BRANCH   7   8
ATOM      8  C   LIG d   1      -6.390  94.633 120.462  0.00  0.00     0.119 C 
BRANCH   8   9
ATOM      9  C   LIG d   1      -7.835  94.950 120.893  0.00  0.00     0.028 C 
ATOM     10  C   LIG d   1      -8.798  95.039 119.698  0.00  0.00     0.006 C 
ENDBRANCH   8   9
BRANCH   8  11
ATOM     11  C   LIG d   1      -5.986  95.776 119.526  0.00  0.00     0.028 C 
ATOM     12  C   LIG d   1      -5.640  97.069 120.279  0.00  0.00     0.006 C 
ENDBRANCH   8  11
ENDBRANCH   7   8
ENDBRANCH   1   7
BRANCH   6  13
ATOM     13  N   LIG d   1      -3.431  93.109 119.406  0.00  0.00    -0.311 N 
ATOM     14  C   LIG d   1      -2.561  92.502 120.211  0.00  0.00     0.210 C 
ATOM     15  C   LIG d   1      -1.584  93.438 120.930  0.00  0.00     0.109 C 
ATOM     16  O   LIG d   1      -2.485  91.275 120.374  0.00  0.00    -0.276 OA
ATOM     17  H   LIG d   1      -3.401  94.105 119.309  0.00  0.00     0.149 HD
ENDBRANCH   6  13
BRANCH   5  18
ATOM     18  N   LIG d   1      -2.870  90.945 117.323  0.00  0.00     0.381 N 
ATOM     19  H   LIG d   1      -3.186  90.122 117.795  0.00  0.00    -0.090 HD
ATOM     20  H   LIG d   1      -2.115  91.342 117.854  0.00  0.00    -0.090 HD
ATOM     21  H   LIG d   1      -2.555  90.712 116.407  0.00  0.00    -0.090 HD
ENDBRANCH   5  18
BRANCH   3  22
ATOM     22  C   LIG d   1      -7.122  91.941 115.357  0.00  0.00     0.382 C 
ATOM     23  O   LIG d   1      -6.641  91.785 114.209  0.00  0.00    -0.241 OA
ATOM     24  O   LIG d   1      -8.356  92.032 115.498  0.00  0.00    -0.241 OA
ENDBRANCH   3  22
TORSDOF 7
ENDMDL
