MODEL 1
REMARK VINA RESULT:      -5.7      0.000      0.000
REMARK  7 active torsions:
REMARK  status: ('A' for Active; 'I' for Inactive)
REMARK    1  A    between atoms: C_2  and  C_3 
REMARK    2  A    between atoms: C_3  and  O_6 
REMARK    3  A    between atoms: C_3  and  C_4 
REMARK    4  A    between atoms: C_7  and  O_6 
REMARK    5  A    between atoms: C_9  and  C_10 
REMARK    6  A    between atoms: N_15  and  C_14 
REMARK    7  A    between atoms: N_20  and  C_19 
REMARK       I    between atoms: C_22  and  N_20 
ROOT
ATOM      1  C   LIG d   1      -6.359  93.371 117.918  0.00  0.00     0.161 C 
ATOM      2  C   LIG d   1      -6.924  92.383 117.095  0.00  0.00     0.016 C 
ATOM      3  C   LIG d   1      -6.198  91.277 116.597  0.00  0.00     0.038 C 
ATOM      4  C   LIG d   1      -4.887  91.002 117.015  0.00  0.00     0.028 C 
ATOM      5  C   LIG d   1      -4.115  92.244 117.446  0.00  0.00    -0.047 C 
ATOM      6  C   LIG d   1      -4.962  93.029 118.475  0.00  0.00     0.091 C 
ENDROOT
BRANCH   1   7
ATOM      7  O   LIG d   1      -7.264  93.686 118.995  0.00  0.00    -0.368 OA
BRANCH   7   8
ATOM      8  C   LIG d   1      -8.217  94.747 118.738  0.00  0.00     0.119 C 
BRANCH   8   9
ATOM      9  C   LIG d   1      -7.415  96.012 118.379  0.00  0.00     0.028 C 
ATOM     10  C   LIG d   1      -8.289  97.277 118.365  0.00  0.00     0.006 C 
ENDBRANCH   8   9
BRANCH   8  11
ATOM     11  C   LIG d   1      -9.001  95.110 120.003  0.00  0.00     0.028 C 
ATOM     12  C   LIG d   1     -10.273  94.264 120.178  0.00  0.00     0.006 C 
ENDBRANCH   8  11
ENDBRANCH   7   8
ENDBRANCH   1   7
BRANCH   6  13
ATOM     13  N   LIG d   1      -4.316  94.303 118.886  0.00  0.00    -0.311 N 
ATOM     14  C   LIG d   1      -3.528  94.414 119.954  0.00  0.00     0.210 C 
ATOM     15  C   LIG d   1      -2.981  95.822 120.210  0.00  0.00     0.109 C 
ATOM     16  O   LIG d   1      -3.204  93.474 120.695  0.00  0.00    -0.276 OA
ATOM     17  H   LIG d   1      -4.500  95.110 118.322  0.00  0.00     0.149 HD
ENDBRANCH   6  13
BRANCH   5  18
ATOM     18  N   LIG d   1      -2.817  91.797 117.986  0.00  0.00     0.381 N 
ATOM     19  H   LIG d   1      -2.451  92.492 118.606  0.00  0.00    -0.090 HD
ATOM     20  H   LIG d   1      -2.171  91.682 117.225  0.00  0.00    -0.090 HD
ATOM     21  H   LIG d   1      -2.928  90.934 118.471  0.00  0.00    -0.090 HD
ENDBRANCH   5  18
BRANCH   3  22
ATOM     22  C   LIG d   1      -6.770  90.454 115.639  0.00  0.00     0.382 C 
ATOM     23  O   LIG d   1      -6.443  90.573 114.434  0.00  0.00    -0.241 OA
ATOM     24  O   LIG d   1      -7.642  89.624 115.959  0.00  0.00    -0.241 OA
ENDBRANCH   3  22
TORSDOF 7
ENDMDL
MODEL 2
REMARK VINA RESULT:      -5.5      2.682      6.800
REMARK  7 active torsions:
REMARK  status: ('A' for Active; 'I' for Inactive)
REMARK    1  A    between atoms: C_2  and  C_3 
REMARK    2  A    between atoms: C_3  and  O_6 
REMARK    3  A    between atoms: C_3  and  C_4 
REMARK    4  A    between atoms: C_7  and  O_6 
REMARK    5  A    between atoms: C_9  and  C_10 
REMARK    6  A    between atoms: N_15  and  C_14 
REMARK    7  A    between atoms: N_20  and  C_19 
REMARK       I    between atoms: C_22  and  N_20 
ROOT
ATOM      1  C   LIG d   1      -4.171  91.359 117.506  0.00  0.00     0.161 C 
ATOM      2  C   LIG d   1      -3.701  91.994 118.667  0.00  0.00     0.016 C 
ATOM      3  C   LIG d   1      -4.492  92.860 119.456  0.00  0.00     0.038 C 
ATOM      4  C   LIG d   1      -5.864  93.033 119.219  0.00  0.00     0.028 C 
ATOM      5  C   LIG d   1      -6.260  92.809 117.763  0.00  0.00    -0.047 C 
ATOM      6  C   LIG d   1      -5.697  91.448 117.294  0.00  0.00     0.091 C 
ENDROOT
BRANCH   1   7
ATOM      7  O   LIG d   1      -3.743  89.983 117.493  0.00  0.00    -0.368 OA
BRANCH   7   8
ATOM      8  C   LIG d   1      -2.542  89.683 118.246  0.00  0.00     0.119 C 
BRANCH   8   9
ATOM      9  C   LIG d   1      -1.397  89.488 117.232  0.00  0.00     0.028 C 
ATOM     10  C   LIG d   1      -0.301  90.558 117.372  0.00  0.00     0.006 C 
ENDBRANCH   8   9
BRANCH   8  11
ATOM     11  C   LIG d   1      -2.665  88.345 118.981  0.00  0.00     0.028 C 
ATOM     12  C   LIG d   1      -1.995  88.361 120.364  0.00  0.00     0.006 C 
ENDBRANCH   8  11
ENDBRANCH   7   8
ENDBRANCH   1   7
BRANCH   6  13
ATOM     13  N   LIG d   1      -5.967  91.189 115.855  0.00  0.00    -0.311 N 
ATOM     14  C   LIG d   1      -6.923  90.366 115.425  0.00  0.00     0.210 C 
ATOM     15  C   LIG d   1      -7.018  90.227 113.903  0.00  0.00     0.109 C 
ATOM     16  O   LIG d   1      -7.721  89.764 116.159  0.00  0.00    -0.276 OA
ATOM     17  H   LIG d   1      -5.386  91.660 115.190  0.00  0.00     0.149 HD
ENDBRANCH   6  13
BRANCH   5  18
ATOM     18  N   LIG d   1      -7.731  92.884 117.685  0.00  0.00     0.381 N 
ATOM     19  H   LIG d   1      -8.014  93.834 117.544  0.00  0.00    -0.090 HD
ATOM     20  H   LIG d   1      -8.120  92.564 118.554  0.00  0.00    -0.090 HD
ATOM     21  H   LIG d   1      -8.062  92.317 116.935  0.00  0.00    -0.090 HD
ENDBRANCH   5  18
BRANCH   3  22
ATOM     22  C   LIG d   1      -3.902  93.596 120.472  0.00  0.00     0.382 C 
ATOM     23  O   LIG d   1      -4.482  94.610 120.930  0.00  0.00    -0.241 OA
ATOM     24  O   LIG d   1      -2.777  93.284 120.907  0.00  0.00    -0.241 OA
ENDBRANCH   3  22
TORSDOF 7
ENDMDL
MODEL 3
REMARK VINA RESULT:      -5.4      2.719      5.450
REMARK  7 active torsions:
REMARK  status: ('A' for Active; 'I' for Inactive)
REMARK    1  A    between atoms: C_2  and  C_3 
REMARK    2  A    between atoms: C_3  and  O_6 
REMARK    3  A    between atoms: C_3  and  C_4 
REMARK    4  A    between atoms: C_7  and  O_6 
REMARK    5  A    between atoms: C_9  and  C_10 
REMARK    6  A    between atoms: N_15  and  C_14 
REMARK    7  A    between atoms: N_20  and  C_19 
REMARK       I    between atoms: C_22  and  N_20 
ROOT
ATOM      1  C   LIG d   1      -4.050  90.963 117.612  0.00  0.00     0.161 C 
ATOM      2  C   LIG d   1      -4.888  90.346 116.668  0.00  0.00     0.016 C 
ATOM      3  C   LIG d   1      -6.093  90.922 116.203  0.00  0.00     0.038 C 
ATOM      4  C   LIG d   1      -6.467  92.232 116.540  0.00  0.00     0.028 C 
ATOM      5  C   LIG d   1      -5.909  92.695 117.881  0.00  0.00    -0.047 C 
ATOM      6  C   LIG d   1      -4.385  92.440 117.906  0.00  0.00     0.091 C 
ENDROOT
BRANCH   1   7
ATOM      7  O   LIG d   1      -2.674  90.833 117.202  0.00  0.00    -0.368 OA
BRANCH   7   8
ATOM      8  C   LIG d   1      -2.008  89.605 117.586  0.00  0.00     0.119 C 
BRANCH   8   9
ATOM      9  C   LIG d   1      -2.354  89.333 119.063  0.00  0.00     0.028 C 
ATOM     10  C   LIG d   1      -2.434  87.831 119.380  0.00  0.00     0.006 C 
ENDBRANCH   8   9
BRANCH   8  11
ATOM     11  C   LIG d   1      -0.485  89.763 117.549  0.00  0.00     0.028 C 
ATOM     12  C   LIG d   1      -0.037  91.233 117.577  0.00  0.00     0.006 C 
ENDBRANCH   8  11
ENDBRANCH   7   8
ENDBRANCH   1   7
BRANCH   6  13
ATOM     13  N   LIG d   1      -3.773  92.788 119.215  0.00  0.00    -0.311 N 
ATOM     14  C   LIG d   1      -2.708  93.577 119.340  0.00  0.00     0.210 C 
ATOM     15  C   LIG d   1      -2.227  93.790 120.779  0.00  0.00     0.109 C 
ATOM     16  O   LIG d   1      -2.136  94.148 118.399  0.00  0.00    -0.276 OA
ATOM     17  H   LIG d   1      -4.193  92.393 120.034  0.00  0.00     0.149 HD
ENDBRANCH   6  13
BRANCH   5  18
ATOM     18  N   LIG d   1      -6.260  94.119 118.042  0.00  0.00     0.381 N 
ATOM     19  H   LIG d   1      -6.554  94.291 118.983  0.00  0.00    -0.090 HD
ATOM     20  H   LIG d   1      -7.025  94.337 117.428  0.00  0.00    -0.090 HD
ATOM     21  H   LIG d   1      -5.474  94.691 117.822  0.00  0.00    -0.090 HD
ENDBRANCH   5  18
BRANCH   3  22
ATOM     22  C   LIG d   1      -6.958  90.170 115.423  0.00  0.00     0.382 C 
ATOM     23  O   LIG d   1      -7.902  89.542 115.961  0.00  0.00    -0.241 OA
ATOM     24  O   LIG d   1      -6.780  90.076 114.194  0.00  0.00    -0.241 OA
ENDBRANCH   3  22
TORSDOF 7
ENDMDL
MODEL 4
REMARK VINA RESULT:      -5.1      2.149      4.629
REMARK  7 active torsions:
REMARK  status: ('A' for Active; 'I' for Inactive)
REMARK    1  A    between atoms: C_2  and  C_3 
REMARK    2  A    between atoms: C_3  and  O_6 
REMARK    3  A    between atoms: C_3  and  C_4 
REMARK    4  A    between atoms: C_7  and  O_6 
REMARK    5  A    between atoms: C_9  and  C_10 
REMARK    6  A    between atoms: N_15  and  C_14 
REMARK    7  A    between atoms: N_20  and  C_19 
REMARK       I    between atoms: C_22  and  N_20 
ROOT
ATOM      1  C   LIG d   1      -4.809  92.624 118.149  0.00  0.00     0.161 C 
ATOM      2  C   LIG d   1      -5.027  91.559 117.260  0.00  0.00     0.016 C 
ATOM      3  C   LIG d   1      -6.256  91.339 116.596  0.00  0.00     0.038 C 
ATOM      4  C   LIG d   1      -7.309  92.263 116.659  0.00  0.00     0.028 C 
ATOM      5  C   LIG d   1      -7.313  93.090 117.940  0.00  0.00    -0.047 C 
ATOM      6  C   LIG d   1      -5.910  93.706 118.145  0.00  0.00     0.091 C 
ENDROOT
BRANCH   1   7
ATOM      7  O   LIG d   1      -3.522  93.219 117.892  0.00  0.00    -0.368 OA
BRANCH   7   8
ATOM      8  C   LIG d   1      -2.370  92.474 118.359  0.00  0.00     0.119 C 
BRANCH   8   9
ATOM      9  C   LIG d   1      -2.520  92.299 119.883  0.00  0.00     0.028 C 
ATOM     10  C   LIG d   1      -2.052  93.537 120.665  0.00  0.00     0.006 C 
ENDBRANCH   8   9
BRANCH   8  11
ATOM     11  C   LIG d   1      -1.076  93.270 118.168  0.00  0.00     0.028 C 
ATOM     12  C   LIG d   1      -1.304  94.619 117.468  0.00  0.00     0.006 C 
ENDBRANCH   8  11
ENDBRANCH   7   8
ENDBRANCH   1   7
BRANCH   6  13
ATOM     13  N   LIG d   1      -5.803  94.462 119.420  0.00  0.00    -0.311 N 
ATOM     14  C   LIG d   1      -6.082  95.759 119.529  0.00  0.00     0.210 C 
ATOM     15  C   LIG d   1      -5.887  96.348 120.929  0.00  0.00     0.109 C 
ATOM     16  O   LIG d   1      -6.505  96.472 118.605  0.00  0.00    -0.276 OA
ATOM     17  H   LIG d   1      -5.497  93.954 120.227  0.00  0.00     0.149 HD
ENDBRANCH   6  13
BRANCH   5  18
ATOM     18  N   LIG d   1      -8.376  94.104 117.813  0.00  0.00     0.381 N 
ATOM     19  H   LIG d   1      -7.977  95.021 117.850  0.00  0.00    -0.090 HD
ATOM     20  H   LIG d   1      -9.012  94.007 118.585  0.00  0.00    -0.090 HD
ATOM     21  H   LIG d   1      -8.864  93.981 116.954  0.00  0.00    -0.090 HD
ENDBRANCH   5  18
BRANCH   3  22
ATOM     22  C   LIG d   1      -6.454  90.162 115.889  0.00  0.00     0.382 C 
ATOM     23  O   LIG d   1      -7.584  89.618 115.882  0.00  0.00    -0.241 OA
ATOM     24  O   LIG d   1      -5.506  89.615 115.294  0.00  0.00    -0.241 OA
ENDBRANCH   3  22
TORSDOF 7
ENDMDL
MODEL 5
REMARK VINA RESULT:      -5.1      3.495      6.340
REMARK  7 active torsions:
REMARK  status: ('A' for Active; 'I' for Inactive)
REMARK    1  A    between atoms: C_2  and  C_3 
REMARK    2  A    between atoms: C_3  and  O_6 
REMARK    3  A    between atoms: C_3  and  C_4 
REMARK    4  A    between atoms: C_7  and  O_6 
REMARK    5  A    between atoms: C_9  and  C_10 
REMARK    6  A    between atoms: N_15  and  C_14 
REMARK    7  A    between atoms: N_20  and  C_19 
REMARK       I    between atoms: C_22  and  N_20 
ROOT
ATOM      1  C   LIG d   1      -2.785  90.479 117.927  0.00  0.00     0.161 C 
ATOM      2  C   LIG d   1      -3.993  90.219 117.259  0.00  0.00     0.016 C 
ATOM      3  C   LIG d   1      -4.995  91.195 117.053  0.00  0.00     0.038 C 
ATOM      4  C   LIG d   1      -4.790  92.546 117.372  0.00  0.00     0.028 C 
ATOM      5  C   LIG d   1      -3.791  92.756 118.504  0.00  0.00    -0.047 C 
ATOM      6  C   LIG d   1      -2.497  91.973 118.184  0.00  0.00     0.091 C 
ENDROOT
BRANCH   1   7
ATOM      7  O   LIG d   1      -1.690  89.874 117.212  0.00  0.00    -0.368 OA
BRANCH   7   8
ATOM      8  C   LIG d   1      -1.359  88.514 117.585  0.00  0.00     0.119 C 
BRANCH   8   9
ATOM      9  C   LIG d   1      -1.337  88.449 119.125  0.00  0.00     0.028 C 
ATOM     10  C   LIG d   1      -2.162  87.274 119.675  0.00  0.00     0.006 C 
ENDBRANCH   8   9
BRANCH   8  11
ATOM     11  C   LIG d   1       0.060  88.144 117.143  0.00  0.00     0.028 C 
ATOM     12  C   LIG d   1       1.057  89.301 117.310  0.00  0.00     0.006 C 
ENDBRANCH   8  11
ENDBRANCH   7   8
ENDBRANCH   1   7
BRANCH   6  13
ATOM     13  N   LIG d   1      -1.497  92.057 119.280  0.00  0.00    -0.311 N 
ATOM     14  C   LIG d   1      -0.247  92.480 119.102  0.00  0.00     0.210 C 
ATOM     15  C   LIG d   1       0.625  92.469 120.361  0.00  0.00     0.109 C 
ATOM     16  O   LIG d   1       0.213  92.893 118.027  0.00  0.00    -0.276 OA
ATOM     17  H   LIG d   1      -1.795  91.770 120.192  0.00  0.00     0.149 HD
ENDBRANCH   6  13
BRANCH   5  18
ATOM     18  N   LIG d   1      -3.569  94.209 118.639  0.00  0.00     0.381 N 
ATOM     19  H   LIG d   1      -3.948  94.684 117.845  0.00  0.00    -0.090 HD
ATOM     20  H   LIG d   1      -2.580  94.385 118.670  0.00  0.00    -0.090 HD
ATOM     21  H   LIG d   1      -4.000  94.543 119.473  0.00  0.00    -0.090 HD
ENDBRANCH   5  18
BRANCH   3  22
ATOM     22  C   LIG d   1      -6.233  90.815 116.559  0.00  0.00     0.382 C 
ATOM     23  O   LIG d   1      -6.323  89.842 115.773  0.00  0.00    -0.241 OA
ATOM     24  O   LIG d   1      -7.256  91.461 116.855  0.00  0.00    -0.241 OA
ENDBRANCH   3  22
TORSDOF 7
ENDMDL
MODEL 6
REMARK VINA RESULT:      -5.0      2.421      6.606
REMARK  7 active torsions:
REMARK  status: ('A' for Active; 'I' for Inactive)
REMARK    1  A    between atoms: C_2  and  C_3 
REMARK    2  A    between atoms: C_3  and  O_6 
REMARK    3  A    between atoms: C_3  and  C_4 
REMARK    4  A    between atoms: C_7  and  O_6 
REMARK    5  A    between atoms: C_9  and  C_10 
REMARK    6  A    between atoms: N_15  and  C_14 
REMARK    7  A    between atoms: N_20  and  C_19 
REMARK       I    between atoms: C_22  and  N_20 
ROOT
ATOM      1  C   LIG d   1      -4.177  92.759 118.138  0.00  0.00     0.161 C 
ATOM      2  C   LIG d   1      -4.041  93.717 119.156  0.00  0.00     0.016 C 
ATOM      3  C   LIG d   1      -5.121  94.481 119.655  0.00  0.00     0.038 C 
ATOM      4  C   LIG d   1      -6.447  94.228 119.273  0.00  0.00     0.028 C 
ATOM      5  C   LIG d   1      -6.570  93.617 117.881  0.00  0.00    -0.047 C 
ATOM      6  C   LIG d   1      -5.634  92.391 117.787  0.00  0.00     0.091 C 
ENDROOT
BRANCH   1   7
ATOM      7  O   LIG d   1      -3.429  91.574 118.479  0.00  0.00    -0.368 OA
BRANCH   7   8
ATOM      8  C   LIG d   1      -2.001  91.634 118.246  0.00  0.00     0.119 C 
BRANCH   8   9
ATOM      9  C   LIG d   1      -1.584  90.305 117.586  0.00  0.00     0.028 C 
ATOM     10  C   LIG d   1      -2.743  89.297 117.513  0.00  0.00     0.006 C 
ENDBRANCH   8   9
BRANCH   8  11
ATOM     11  C   LIG d   1      -1.223  91.692 119.565  0.00  0.00     0.028 C 
ATOM     12  C   LIG d   1      -0.286  92.907 119.650  0.00  0.00     0.006 C 
ENDBRANCH   8  11
ENDBRANCH   7   8
ENDBRANCH   1   7
BRANCH   6  13
ATOM     13  N   LIG d   1      -5.630  91.784 116.430  0.00  0.00    -0.311 N 
ATOM     14  C   LIG d   1      -6.482  90.833 116.050  0.00  0.00     0.210 C 
ATOM     15  C   LIG d   1      -6.293  90.331 114.615  0.00  0.00     0.109 C 
ATOM     16  O   LIG d   1      -7.398  90.382 116.754  0.00  0.00    -0.276 OA
ATOM     17  H   LIG d   1      -4.939  92.114 115.785  0.00  0.00     0.149 HD
ENDBRANCH   6  13
BRANCH   5  18
ATOM     18  N   LIG d   1      -7.990  93.279 117.667  0.00  0.00     0.381 N 
ATOM     19  H   LIG d   1      -8.245  92.506 118.248  0.00  0.00    -0.090 HD
ATOM     20  H   LIG d   1      -8.118  93.008 116.708  0.00  0.00    -0.090 HD
ATOM     21  H   LIG d   1      -8.563  94.066 117.877  0.00  0.00    -0.090 HD
ENDBRANCH   5  18
BRANCH   3  22
ATOM     22  C   LIG d   1      -4.875  95.537 120.519  0.00  0.00     0.382 C 
ATOM     23  O   LIG d   1      -5.810  96.303 120.855  0.00  0.00    -0.241 OA
ATOM     24  O   LIG d   1      -3.720  95.761 120.930  0.00  0.00    -0.241 OA
ENDBRANCH   3  22
TORSDOF 7
ENDMDL
MODEL 7
REMARK VINA RESULT:      -4.9      2.032      5.030
REMARK  7 active torsions:
REMARK  status: ('A' for Active; 'I' for Inactive)
REMARK    1  A    between atoms: C_2  and  C_3 
REMARK    2  A    between atoms: C_3  and  O_6 
REMARK    3  A    between atoms: C_3  and  C_4 
REMARK    4  A    between atoms: C_7  and  O_6 
REMARK    5  A    between atoms: C_9  and  C_10 
REMARK    6  A    between atoms: N_15  and  C_14 
REMARK    7  A    between atoms: N_20  and  C_19 
REMARK       I    between atoms: C_22  and  N_20 
ROOT
ATOM      1  C   LIG d   1      -5.647  92.990 118.229  0.00  0.00     0.161 C 
ATOM      2  C   LIG d   1      -6.880  93.625 118.009  0.00  0.00     0.016 C 
ATOM      3  C   LIG d   1      -7.218  94.882 118.561  0.00  0.00     0.038 C 
ATOM      4  C   LIG d   1      -6.280  95.664 119.252  0.00  0.00     0.028 C 
ATOM      5  C   LIG d   1      -5.187  94.844 119.926  0.00  0.00    -0.047 C 
ATOM      6  C   LIG d   1      -4.571  93.878 118.888  0.00  0.00     0.091 C 
ENDROOT
BRANCH   1   7
ATOM      7  O   LIG d   1      -5.153  92.440 116.991  0.00  0.00    -0.368 OA
BRANCH   7   8
ATOM      8  C   LIG d   1      -5.929  91.358 116.420  0.00  0.00     0.119 C 
BRANCH   8   9
ATOM      9  C   LIG d   1      -4.954  90.207 116.103  0.00  0.00     0.028 C 
ATOM     10  C   LIG d   1      -3.787  90.135 117.102  0.00  0.00     0.006 C 
ENDBRANCH   8   9
BRANCH   8  11
ATOM     11  C   LIG d   1      -6.535  91.759 115.072  0.00  0.00     0.028 C 
ATOM     12  C   LIG d   1      -7.008  90.550 114.249  0.00  0.00     0.006 C 
ENDBRANCH   8  11
ENDBRANCH   7   8
ENDBRANCH   1   7
BRANCH   6  13
ATOM     13  N   LIG d   1      -3.550  92.979 119.486  0.00  0.00    -0.311 N 
ATOM     14  C   LIG d   1      -2.305  92.873 119.023  0.00  0.00     0.210 C 
ATOM     15  C   LIG d   1      -1.420  91.873 119.773  0.00  0.00     0.109 C 
ATOM     16  O   LIG d   1      -1.841  93.535 118.083  0.00  0.00    -0.276 OA
ATOM     17  H   LIG d   1      -3.832  92.428 120.272  0.00  0.00     0.149 HD
ENDBRANCH   6  13
BRANCH   5  18
ATOM     18  N   LIG d   1      -4.205  95.788 120.491  0.00  0.00     0.381 N 
ATOM     19  H   LIG d   1      -3.336  95.319 120.652  0.00  0.00    -0.090 HD
ATOM     20  H   LIG d   1      -4.548  96.126 121.373  0.00  0.00    -0.090 HD
ATOM     21  H   LIG d   1      -4.067  96.552 119.866  0.00  0.00    -0.090 HD
ENDBRANCH   5  18
BRANCH   3  22
ATOM     22  C   LIG d   1      -8.519  95.351 118.457  0.00  0.00     0.382 C 
ATOM     23  O   LIG d   1      -9.483  94.569 118.635  0.00  0.00    -0.241 OA
ATOM     24  O   LIG d   1      -8.740  96.537 118.145  0.00  0.00    -0.241 OA
ENDBRANCH   3  22
TORSDOF 7
ENDMDL
MODEL 8
REMARK VINA RESULT:      -4.7      2.323      4.388
REMARK  7 active torsions:
REMARK  status: ('A' for Active; 'I' for Inactive)
REMARK    1  A    between atoms: C_2  and  C_3 
REMARK    2  A    between atoms: C_3  and  O_6 
REMARK    3  A    between atoms: C_3  and  C_4 
REMARK    4  A    between atoms: C_7  and  O_6 
REMARK    5  A    between atoms: C_9  and  C_10 
REMARK    6  A    between atoms: N_15  and  C_14 
REMARK    7  A    between atoms: N_20  and  C_19 
REMARK       I    between atoms: C_22  and  N_20 
ROOT
ATOM      1  C   LIG d   1      -5.262  92.855 119.940  0.00  0.00     0.161 C 
ATOM      2  C   LIG d   1      -4.186  92.080 119.477  0.00  0.00     0.016 C 
ATOM      3  C   LIG d   1      -4.133  91.516 118.181  0.00  0.00     0.038 C 
ATOM      4  C   LIG d   1      -5.092  91.817 117.202  0.00  0.00     0.028 C 
ATOM      5  C   LIG d   1      -6.454  92.184 117.781  0.00  0.00    -0.047 C 
ATOM      6  C   LIG d   1      -6.265  93.286 118.849  0.00  0.00     0.091 C 
ENDROOT
BRANCH   1   7
ATOM      7  O   LIG d   1      -4.766  94.008 120.648  0.00  0.00    -0.368 OA
BRANCH   7   8
ATOM      8  C   LIG d   1      -4.404  95.149 119.832  0.00  0.00     0.119 C 
BRANCH   8   9
ATOM      9  C   LIG d   1      -2.875  95.320 119.927  0.00  0.00     0.028 C 
ATOM     10  C   LIG d   1      -2.156  94.894 118.637  0.00  0.00     0.006 C 
ENDBRANCH   8   9
BRANCH   8  11
ATOM     11  C   LIG d   1      -4.993  96.446 120.396  0.00  0.00     0.028 C 
ATOM     12  C   LIG d   1      -5.437  97.425 119.298  0.00  0.00     0.006 C 
ENDBRANCH   8  11
ENDBRANCH   7   8
ENDBRANCH   1   7
BRANCH   6  13
ATOM     13  N   LIG d   1      -7.539  93.644 119.526  0.00  0.00    -0.311 N 
ATOM     14  C   LIG d   1      -8.311  94.660 119.145  0.00  0.00     0.210 C 
ATOM     15  C   LIG d   1      -9.571  94.868 119.991  0.00  0.00     0.109 C 
ATOM     16  O   LIG d   1      -8.089  95.389 118.166  0.00  0.00    -0.276 OA
ATOM     17  H   LIG d   1      -7.812  93.085 120.310  0.00  0.00     0.149 HD
ENDBRANCH   6  13
BRANCH   5  18
ATOM     18  N   LIG d   1      -7.316  92.607 116.661  0.00  0.00     0.381 N 
ATOM     19  H   LIG d   1      -7.749  91.806 116.246  0.00  0.00    -0.090 HD
ATOM     20  H   LIG d   1      -6.746  93.054 115.964  0.00  0.00    -0.090 HD
ATOM     21  H   LIG d   1      -8.013  93.239 116.986  0.00  0.00    -0.090 HD
ENDBRANCH   5  18
BRANCH   3  22
ATOM     22  C   LIG d   1      -3.133  90.609 117.867  0.00  0.00     0.382 C 
ATOM     23  O   LIG d   1      -1.929  90.928 118.013  0.00  0.00    -0.241 OA
ATOM     24  O   LIG d   1      -3.419  89.491 117.397  0.00  0.00    -0.241 OA
ENDBRANCH   3  22
TORSDOF 7
ENDMDL
MODEL 9
REMARK VINA RESULT:      -4.7      3.396      5.017
REMARK  7 active torsions:
REMARK  status: ('A' for Active; 'I' for Inactive)
REMARK    1  A    between atoms: C_2  and  C_3 
REMARK    2  A    between atoms: C_3  and  O_6 
REMARK    3  A    between atoms: C_3  and  C_4 
REMARK    4  A    between atoms: C_7  and  O_6 
REMARK    5  A    between atoms: C_9  and  C_10 
REMARK    6  A    between atoms: N_15  and  C_14 
REMARK    7  A    between atoms: N_20  and  C_19 
REMARK       I    between atoms: C_22  and  N_20 
ROOT
ATOM      1  C   LIG d   1      -3.290  90.700 117.770  0.00  0.00     0.161 C 
ATOM      2  C   LIG d   1      -2.570  89.540 117.440  0.00  0.00     0.016 C 
ATOM      3  C   LIG d   1      -1.454  89.080 118.177  0.00  0.00     0.038 C 
ATOM      4  C   LIG d   1      -1.074  89.670 119.391  0.00  0.00     0.028 C 
ATOM      5  C   LIG d   1      -1.459  91.142 119.496  0.00  0.00    -0.047 C 
ATOM      6  C   LIG d   1      -2.959  91.294 119.155  0.00  0.00     0.091 C 
ENDROOT
BRANCH   1   7
ATOM      7  O   LIG d   1      -4.704  90.444 117.660  0.00  0.00    -0.368 OA
BRANCH   7   8
ATOM      8  C   LIG d   1      -5.412  91.202 116.648  0.00  0.00     0.119 C 
BRANCH   8   9
ATOM      9  C   LIG d   1      -6.755  91.647 117.258  0.00  0.00     0.028 C 
ATOM     10  C   LIG d   1      -6.859  93.176 117.397  0.00  0.00     0.006 C 
ENDBRANCH   8   9
BRANCH   8  11
ATOM     11  C   LIG d   1      -5.783  90.322 115.451  0.00  0.00     0.028 C 
ATOM     12  C   LIG d   1      -6.663  91.052 114.424  0.00  0.00     0.006 C 
ENDBRANCH   8  11
ENDBRANCH   7   8
ENDBRANCH   1   7
BRANCH   6  13
ATOM     13  N   LIG d   1      -3.398  92.714 119.152  0.00  0.00    -0.311 N 
ATOM     14  C   LIG d   1      -4.292  93.207 120.007  0.00  0.00     0.210 C 
ATOM     15  C   LIG d   1      -4.619  94.691 119.817  0.00  0.00     0.109 C 
ATOM     16  O   LIG d   1      -4.823  92.563 120.925  0.00  0.00    -0.276 OA
ATOM     17  H   LIG d   1      -2.995  93.315 118.460  0.00  0.00     0.149 HD
ENDBRANCH   6  13
BRANCH   5  18
ATOM     18  N   LIG d   1      -1.127  91.593 120.861  0.00  0.00     0.381 N 
ATOM     19  H   LIG d   1      -0.907  92.569 120.851  0.00  0.00    -0.090 HD
ATOM     20  H   LIG d   1      -0.319  91.091 121.182  0.00  0.00    -0.090 HD
ATOM     21  H   LIG d   1      -1.896  91.425 121.472  0.00  0.00    -0.090 HD
ENDBRANCH   5  18
BRANCH   3  22
ATOM     22  C   LIG d   1      -0.682  88.042 117.679  0.00  0.00     0.382 C 
ATOM     23  O   LIG d   1      -0.273  87.139 118.449  0.00  0.00    -0.241 OA
ATOM     24  O   LIG d   1      -0.352  88.020 116.478  0.00  0.00    -0.241 OA
ENDBRANCH   3  22
TORSDOF 7
ENDMDL
