MODEL 1
REMARK VINA RESULT:      -4.7      0.000      0.000
REMARK  7 active torsions:
REMARK  status: ('A' for Active; 'I' for Inactive)
REMARK    1  A    between atoms: C_2  and  C_3 
REMARK    2  A    between atoms: C_3  and  O_6 
REMARK    3  A    between atoms: C_3  and  C_4 
REMARK    4  A    between atoms: C_7  and  O_6 
REMARK    5  A    between atoms: C_9  and  C_10 
REMARK    6  A    between atoms: N_15  and  C_14 
REMARK    7  A    between atoms: N_20  and  C_19 
REMARK       I    between atoms: C_22  and  N_20 
ROOT
ATOM      1  C   LIG d   1       2.519  91.061 116.502  0.00  0.00     0.161 C 
ATOM      2  C   LIG d   1       1.910  90.103 115.674  0.00  0.00     0.016 C 
ATOM      3  C   LIG d   1       2.636  89.166 114.903  0.00  0.00     0.038 C 
ATOM      4  C   LIG d   1       4.026  89.024 115.025  0.00  0.00     0.028 C 
ATOM      5  C   LIG d   1       4.729  90.304 115.467  0.00  0.00    -0.047 C 
ATOM      6  C   LIG d   1       4.030  90.849 116.733  0.00  0.00     0.091 C 
ENDROOT
BRANCH   1   7
ATOM      7  O   LIG d   1       1.824  91.130 117.763  0.00  0.00    -0.368 OA
BRANCH   7   8
ATOM      8  C   LIG d   1       1.075  89.950 118.143  0.00  0.00     0.119 C 
BRANCH   8   9
ATOM      9  C   LIG d   1      -0.213  90.425 118.842  0.00  0.00     0.028 C 
ATOM     10  C   LIG d   1      -1.448  90.318 117.932  0.00  0.00     0.006 C 
ENDBRANCH   8   9
BRANCH   8  11
ATOM     11  C   LIG d   1       1.827  89.128 119.194  0.00  0.00     0.028 C 
ATOM     12  C   LIG d   1       2.383  87.809 118.633  0.00  0.00     0.006 C 
ENDBRANCH   8  11
ENDBRANCH   7   8
ENDBRANCH   1   7
BRANCH   6  13
ATOM     13  N   LIG d   1       4.602  92.145 117.183  0.00  0.00    -0.311 N 
ATOM     14  C   LIG d   1       5.014  92.371 118.429  0.00  0.00     0.210 C 
ATOM     15  C   LIG d   1       5.553  93.782 118.686  0.00  0.00     0.109 C 
ATOM     16  O   LIG d   1       5.014  91.527 119.338  0.00  0.00    -0.276 OA
ATOM     17  H   LIG d   1       4.668  92.875 116.501  0.00  0.00     0.149 HD
ENDBRANCH   6  13
BRANCH   5  18
ATOM     18  N   LIG d   1       6.151  89.978 115.686  0.00  0.00     0.381 N 
ATOM     19  H   LIG d   1       6.488  89.409 114.935  0.00  0.00    -0.090 HD
ATOM     20  H   LIG d   1       6.237  89.455 116.540  0.00  0.00    -0.090 HD
ATOM     21  H   LIG d   1       6.687  90.815 115.745  0.00  0.00    -0.090 HD
ENDBRANCH   5  18
BRANCH   3  22
ATOM     22  C   LIG d   1       1.973  88.385 113.969  0.00  0.00     0.382 C 
ATOM     23  O   LIG d   1       0.922  88.808 113.430  0.00  0.00    -0.241 OA
ATOM     24  O   LIG d   1       2.389  87.245 113.690  0.00  0.00    -0.241 OA
ENDBRANCH   3  22
TORSDOF 7
ENDMDL
MODEL 2
REMARK VINA RESULT:      -4.6      1.040      1.450
REMARK  7 active torsions:
REMARK  status: ('A' for Active; 'I' for Inactive)
REMARK    1  A    between atoms: C_2  and  C_3 
REMARK    2  A    between atoms: C_3  and  O_6 
REMARK    3  A    between atoms: C_3  and  C_4 
REMARK    4  A    between atoms: C_7  and  O_6 
REMARK    5  A    between atoms: C_9  and  C_10 
REMARK    6  A    between atoms: N_15  and  C_14 
REMARK    7  A    between atoms: N_20  and  C_19 
REMARK       I    between atoms: C_22  and  N_20 
ROOT
ATOM      1  C   LIG d   1       2.491  91.055 116.541  0.00  0.00     0.161 C 
ATOM      2  C   LIG d   1       1.913  90.073 115.718  0.00  0.00     0.016 C 
ATOM      3  C   LIG d   1       2.669  89.161 114.947  0.00  0.00     0.038 C 
ATOM      4  C   LIG d   1       4.064  89.069 115.064  0.00  0.00     0.028 C 
ATOM      5  C   LIG d   1       4.722  90.373 115.499  0.00  0.00    -0.047 C 
ATOM      6  C   LIG d   1       4.009  90.897 116.767  0.00  0.00     0.091 C 
ENDROOT
BRANCH   1   7
ATOM      7  O   LIG d   1       1.799  91.103 117.804  0.00  0.00    -0.368 OA
BRANCH   7   8
ATOM      8  C   LIG d   1       0.388  91.428 117.746  0.00  0.00     0.119 C 
BRANCH   8   9
ATOM      9  C   LIG d   1       0.162  92.668 118.632  0.00  0.00     0.028 C 
ATOM     10  C   LIG d   1       1.463  93.443 118.900  0.00  0.00     0.006 C 
ENDBRANCH   8   9
BRANCH   8  11
ATOM     11  C   LIG d   1      -0.465  90.321 118.373  0.00  0.00     0.028 C 
ATOM     12  C   LIG d   1       0.330  89.432 119.342  0.00  0.00     0.006 C 
ENDBRANCH   8  11
ENDBRANCH   7   8
ENDBRANCH   1   7
BRANCH   6  13
ATOM     13  N   LIG d   1       4.537  92.214 117.211  0.00  0.00    -0.311 N 
ATOM     14  C   LIG d   1       4.981  92.446 118.445  0.00  0.00     0.210 C 
ATOM     15  C   LIG d   1       5.463  93.878 118.699  0.00  0.00     0.109 C 
ATOM     16  O   LIG d   1       5.053  91.595 119.343  0.00  0.00    -0.276 OA
ATOM     17  H   LIG d   1       4.544  92.953 116.536  0.00  0.00     0.149 HD
ENDBRANCH   6  13
BRANCH   5  18
ATOM     18  N   LIG d   1       6.156  90.099 115.714  0.00  0.00     0.381 N 
ATOM     19  H   LIG d   1       6.667  90.959 115.726  0.00  0.00    -0.090 HD
ATOM     20  H   LIG d   1       6.497  89.539 114.953  0.00  0.00    -0.090 HD
ATOM     21  H   LIG d   1       6.285  89.616 116.576  0.00  0.00    -0.090 HD
ENDBRANCH   5  18
BRANCH   3  22
ATOM     22  C   LIG d   1       2.031  88.354 114.017  0.00  0.00     0.382 C 
ATOM     23  O   LIG d   1       1.002  88.767 113.430  0.00  0.00    -0.241 OA
ATOM     24  O   LIG d   1       2.447  87.202 113.789  0.00  0.00    -0.241 OA
ENDBRANCH   3  22
TORSDOF 7
ENDMDL
MODEL 3
REMARK VINA RESULT:      -4.5      2.466      4.776
REMARK  7 active torsions:
REMARK  status: ('A' for Active; 'I' for Inactive)
REMARK    1  A    between atoms: C_2  and  C_3 
REMARK    2  A    between atoms: C_3  and  O_6 
REMARK    3  A    between atoms: C_3  and  C_4 
REMARK    4  A    between atoms: C_7  and  O_6 
REMARK    5  A    between atoms: C_9  and  C_10 
REMARK    6  A    between atoms: N_15  and  C_14 
REMARK    7  A    between atoms: N_20  and  C_19 
REMARK       I    between atoms: C_22  and  N_20 
ROOT
ATOM      1  C   LIG d   1       1.171  90.648 118.398  0.00  0.00     0.161 C 
ATOM      2  C   LIG d   1      -0.188  90.321 118.255  0.00  0.00     0.016 C 
ATOM      3  C   LIG d   1      -1.218  91.287 118.183  0.00  0.00     0.038 C 
ATOM      4  C   LIG d   1      -0.942  92.660 118.098  0.00  0.00     0.028 C 
ATOM      5  C   LIG d   1       0.381  93.053 118.747  0.00  0.00    -0.047 C 
ATOM      6  C   LIG d   1       1.501  92.142 118.195  0.00  0.00     0.091 C 
ENDROOT
BRANCH   1   7
ATOM      7  O   LIG d   1       1.965  89.835 117.512  0.00  0.00    -0.368 OA
BRANCH   7   8
ATOM      8  C   LIG d   1       2.126  90.333 116.162  0.00  0.00     0.119 C 
BRANCH   8   9
ATOM      9  C   LIG d   1       1.235  89.476 115.242  0.00  0.00     0.028 C 
ATOM     10  C   LIG d   1       2.055  88.611 114.270  0.00  0.00     0.006 C 
ENDBRANCH   8   9
BRANCH   8  11
ATOM     11  C   LIG d   1       3.556  90.119 115.656  0.00  0.00     0.028 C 
ATOM     12  C   LIG d   1       4.515  89.649 116.761  0.00  0.00     0.006 C 
ENDBRANCH   8  11
ENDBRANCH   7   8
ENDBRANCH   1   7
BRANCH   6  13
ATOM     13  N   LIG d   1       2.814  92.404 118.840  0.00  0.00    -0.311 N 
ATOM     14  C   LIG d   1       3.847  92.953 118.203  0.00  0.00     0.210 C 
ATOM     15  C   LIG d   1       5.115  93.116 119.047  0.00  0.00     0.109 C 
ATOM     16  O   LIG d   1       3.824  93.349 117.028  0.00  0.00    -0.276 OA
ATOM     17  H   LIG d   1       2.911  92.141 119.801  0.00  0.00     0.149 HD
ENDBRANCH   6  13
BRANCH   5  18
ATOM     18  N   LIG d   1       0.608  94.483 118.465  0.00  0.00     0.381 N 
ATOM     19  H   LIG d   1       1.590  94.668 118.420  0.00  0.00    -0.090 HD
ATOM     20  H   LIG d   1       0.218  95.028 119.213  0.00  0.00    -0.090 HD
ATOM     21  H   LIG d   1       0.176  94.733 117.602  0.00  0.00    -0.090 HD
ENDBRANCH   5  18
BRANCH   3  22
ATOM     22  C   LIG d   1      -2.543  90.884 118.237  0.00  0.00     0.382 C 
ATOM     23  O   LIG d   1      -2.824  89.667 118.358  0.00  0.00    -0.241 OA
ATOM     24  O   LIG d   1      -3.462  91.717 118.122  0.00  0.00    -0.241 OA
ENDBRANCH   3  22
TORSDOF 7
ENDMDL
MODEL 4
REMARK VINA RESULT:      -4.3      1.874      2.874
REMARK  7 active torsions:
REMARK  status: ('A' for Active; 'I' for Inactive)
REMARK    1  A    between atoms: C_2  and  C_3 
REMARK    2  A    between atoms: C_3  and  O_6 
REMARK    3  A    between atoms: C_3  and  C_4 
REMARK    4  A    between atoms: C_7  and  O_6 
REMARK    5  A    between atoms: C_9  and  C_10 
REMARK    6  A    between atoms: N_15  and  C_14 
REMARK    7  A    between atoms: N_20  and  C_19 
REMARK       I    between atoms: C_22  and  N_20 
ROOT
ATOM      1  C   LIG d   1       0.853  91.085 117.045  0.00  0.00     0.161 C 
ATOM      2  C   LIG d   1       0.746  90.108 116.042  0.00  0.00     0.016 C 
ATOM      3  C   LIG d   1       1.863  89.473 115.452  0.00  0.00     0.038 C 
ATOM      4  C   LIG d   1       3.166  89.664 115.935  0.00  0.00     0.028 C 
ATOM      5  C   LIG d   1       3.370  91.018 116.607  0.00  0.00    -0.047 C 
ATOM      6  C   LIG d   1       2.260  91.227 117.663  0.00  0.00     0.091 C 
ENDROOT
BRANCH   1   7
ATOM      7  O   LIG d   1      -0.123  90.837 118.076  0.00  0.00    -0.368 OA
BRANCH   7   8
ATOM      8  C   LIG d   1      -1.277  91.713 118.085  0.00  0.00     0.119 C 
BRANCH   8   9
ATOM      9  C   LIG d   1      -1.048  92.771 119.182  0.00  0.00     0.028 C 
ATOM     10  C   LIG d   1      -0.982  94.199 118.616  0.00  0.00     0.006 C 
ENDBRANCH   8   9
BRANCH   8  11
ATOM     11  C   LIG d   1      -2.544  90.962 118.504  0.00  0.00     0.028 C 
ATOM     12  C   LIG d   1      -3.824  91.578 117.918  0.00  0.00     0.006 C 
ENDBRANCH   8  11
ENDBRANCH   7   8
ENDBRANCH   1   7
BRANCH   6  13
ATOM     13  N   LIG d   1       2.336  92.563 118.308  0.00  0.00    -0.311 N 
ATOM     14  C   LIG d   1       2.950  92.783 119.470  0.00  0.00     0.210 C 
ATOM     15  C   LIG d   1       2.893  94.231 119.967  0.00  0.00     0.109 C 
ATOM     16  O   LIG d   1       3.563  91.923 120.119  0.00  0.00    -0.276 OA
ATOM     17  H   LIG d   1       1.892  93.325 117.834  0.00  0.00     0.149 HD
ENDBRANCH   6  13
BRANCH   5  18
ATOM     18  N   LIG d   1       4.727  91.029 117.184  0.00  0.00     0.381 N 
ATOM     19  H   LIG d   1       4.683  90.803 118.157  0.00  0.00    -0.090 HD
ATOM     20  H   LIG d   1       5.112  91.953 117.092  0.00  0.00    -0.090 HD
ATOM     21  H   LIG d   1       5.305  90.372 116.709  0.00  0.00    -0.090 HD
ENDBRANCH   5  18
BRANCH   3  22
ATOM     22  C   LIG d   1       1.685  88.664 114.340  0.00  0.00     0.382 C 
ATOM     23  O   LIG d   1       2.346  87.604 114.223  0.00  0.00    -0.241 OA
ATOM     24  O   LIG d   1       0.905  89.004 113.430  0.00  0.00    -0.241 OA
ENDBRANCH   3  22
TORSDOF 7
ENDMDL
MODEL 5
REMARK VINA RESULT:      -4.3      2.366      2.959
REMARK  7 active torsions:
REMARK  status: ('A' for Active; 'I' for Inactive)
REMARK    1  A    between atoms: C_2  and  C_3 
REMARK    2  A    between atoms: C_3  and  O_6 
REMARK    3  A    between atoms: C_3  and  C_4 
REMARK    4  A    between atoms: C_7  and  O_6 
REMARK    5  A    between atoms: C_9  and  C_10 
REMARK    6  A    between atoms: N_15  and  C_14 
REMARK    7  A    between atoms: N_20  and  C_19 
REMARK       I    between atoms: C_22  and  N_20 
ROOT
ATOM      1  C   LIG d   1       3.989  89.251 116.606  0.00  0.00     0.161 C 
ATOM      2  C   LIG d   1       2.833  88.860 115.910  0.00  0.00     0.016 C 
ATOM      3  C   LIG d   1       2.750  88.822 114.499  0.00  0.00     0.038 C 
ATOM      4  C   LIG d   1       3.874  89.028 113.685  0.00  0.00     0.028 C 
ATOM      5  C   LIG d   1       4.933  89.917 114.327  0.00  0.00    -0.047 C 
ATOM      6  C   LIG d   1       5.258  89.373 115.737  0.00  0.00     0.091 C 
ENDROOT
BRANCH   1   7
ATOM      7  O   LIG d   1       4.221  88.354 117.710  0.00  0.00    -0.368 OA
BRANCH   7   8
ATOM      8  C   LIG d   1       3.569  87.063 117.629  0.00  0.00     0.119 C 
BRANCH   8   9
ATOM      9  C   LIG d   1       3.132  86.675 119.056  0.00  0.00     0.028 C 
ATOM     10  C   LIG d   1       2.143  85.498 119.067  0.00  0.00     0.006 C 
ENDBRANCH   8   9
BRANCH   8  11
ATOM     11  C   LIG d   1       4.549  85.969 117.194  0.00  0.00     0.028 C 
ATOM     12  C   LIG d   1       4.254  85.431 115.785  0.00  0.00     0.006 C 
ENDBRANCH   8  11
ENDBRANCH   7   8
ENDBRANCH   1   7
BRANCH   6  13
ATOM     13  N   LIG d   1       6.224  90.233 116.468  0.00  0.00    -0.311 N 
ATOM     14  C   LIG d   1       5.890  91.392 117.035  0.00  0.00     0.210 C 
ATOM     15  C   LIG d   1       7.043  92.131 117.722  0.00  0.00     0.109 C 
ATOM     16  O   LIG d   1       4.743  91.862 117.061  0.00  0.00    -0.276 OA
ATOM     17  H   LIG d   1       7.171  89.912 116.522  0.00  0.00     0.149 HD
ENDBRANCH   6  13
BRANCH   5  18
ATOM     18  N   LIG d   1       6.104  89.935 113.430  0.00  0.00     0.381 N 
ATOM     19  H   LIG d   1       6.839  90.474 113.843  0.00  0.00    -0.090 HD
ATOM     20  H   LIG d   1       5.842  90.372 112.563  0.00  0.00    -0.090 HD
ATOM     21  H   LIG d   1       6.418  89.005 113.261  0.00  0.00    -0.090 HD
ENDBRANCH   5  18
BRANCH   3  22
ATOM     22  C   LIG d   1       1.523  88.613 113.888  0.00  0.00     0.382 C 
ATOM     23  O   LIG d   1       0.684  89.544 113.833  0.00  0.00    -0.241 OA
ATOM     24  O   LIG d   1       1.228  87.493 113.430  0.00  0.00    -0.241 OA
ENDBRANCH   3  22
TORSDOF 7
ENDMDL
MODEL 6
REMARK VINA RESULT:      -4.2      2.240      4.666
REMARK  7 active torsions:
REMARK  status: ('A' for Active; 'I' for Inactive)
REMARK    1  A    between atoms: C_2  and  C_3 
REMARK    2  A    between atoms: C_3  and  O_6 
REMARK    3  A    between atoms: C_3  and  C_4 
REMARK    4  A    between atoms: C_7  and  O_6 
REMARK    5  A    between atoms: C_9  and  C_10 
REMARK    6  A    between atoms: N_15  and  C_14 
REMARK    7  A    between atoms: N_20  and  C_19 
REMARK       I    between atoms: C_22  and  N_20 
ROOT
ATOM      1  C   LIG d   1       2.795  90.280 116.357  0.00  0.00     0.161 C 
ATOM      2  C   LIG d   1       1.539  90.858 116.607  0.00  0.00     0.016 C 
ATOM      3  C   LIG d   1       1.293  91.753 117.674  0.00  0.00     0.038 C 
ATOM      4  C   LIG d   1       2.329  92.251 118.478  0.00  0.00     0.028 C 
ATOM      5  C   LIG d   1       3.524  91.309 118.580  0.00  0.00    -0.047 C 
ATOM      6  C   LIG d   1       3.962  90.897 117.156  0.00  0.00     0.091 C 
ENDROOT
BRANCH   1   7
ATOM      7  O   LIG d   1       3.078  90.319 114.945  0.00  0.00    -0.368 OA
BRANCH   7   8
ATOM      8  C   LIG d   1       2.984  89.056 114.241  0.00  0.00     0.119 C 
BRANCH   8   9
ATOM      9  C   LIG d   1       2.908  87.940 115.300  0.00  0.00     0.028 C 
ATOM     10  C   LIG d   1       3.598  86.645 114.839  0.00  0.00     0.006 C 
ENDBRANCH   8   9
BRANCH   8  11
ATOM     11  C   LIG d   1       4.258  88.768 113.440  0.00  0.00     0.028 C 
ATOM     12  C   LIG d   1       5.308  89.883 113.569  0.00  0.00     0.006 C 
ENDBRANCH   8  11
ENDBRANCH   7   8
ENDBRANCH   1   7
BRANCH   6  13
ATOM     13  N   LIG d   1       5.072  89.909 117.168  0.00  0.00    -0.311 N 
ATOM     14  C   LIG d   1       6.356  90.248 117.066  0.00  0.00     0.210 C 
ATOM     15  C   LIG d   1       7.338  89.072 117.080  0.00  0.00     0.109 C 
ATOM     16  O   LIG d   1       6.777  91.412 117.000  0.00  0.00    -0.276 OA
ATOM     17  H   LIG d   1       4.822  88.943 117.250  0.00  0.00     0.149 HD
ENDBRANCH   6  13
BRANCH   5  18
ATOM     18  N   LIG d   1       4.582  92.010 119.331  0.00  0.00     0.381 N 
ATOM     19  H   LIG d   1       4.734  91.554 120.209  0.00  0.00    -0.090 HD
ATOM     20  H   LIG d   1       4.282  92.952 119.513  0.00  0.00    -0.090 HD
ATOM     21  H   LIG d   1       5.427  92.018 118.803  0.00  0.00    -0.090 HD
ENDBRANCH   5  18
BRANCH   3  22
ATOM     22  C   LIG d   1      -0.008  92.128 117.970  0.00  0.00     0.382 C 
ATOM     23  O   LIG d   1      -0.239  93.258 118.463  0.00  0.00    -0.241 OA
ATOM     24  O   LIG d   1      -0.951  91.333 117.792  0.00  0.00    -0.241 OA
ENDBRANCH   3  22
TORSDOF 7
ENDMDL
MODEL 7
REMARK VINA RESULT:      -4.1      2.846      6.051
REMARK  7 active torsions:
REMARK  status: ('A' for Active; 'I' for Inactive)
REMARK    1  A    between atoms: C_2  and  C_3 
REMARK    2  A    between atoms: C_3  and  O_6 
REMARK    3  A    between atoms: C_3  and  C_4 
REMARK    4  A    between atoms: C_7  and  O_6 
REMARK    5  A    between atoms: C_9  and  C_10 
REMARK    6  A    between atoms: N_15  and  C_14 
REMARK    7  A    between atoms: N_20  and  C_19 
REMARK       I    between atoms: C_22  and  N_20 
ROOT
ATOM      1  C   LIG d   1       3.018  92.939 117.283  0.00  0.00     0.161 C 
ATOM      2  C   LIG d   1       4.330  93.339 117.585  0.00  0.00     0.016 C 
ATOM      3  C   LIG d   1       4.712  93.875 118.836  0.00  0.00     0.038 C 
ATOM      4  C   LIG d   1       3.833  93.907 119.929  0.00  0.00     0.028 C 
ATOM      5  C   LIG d   1       2.365  93.982 119.523  0.00  0.00    -0.047 C 
ATOM      6  C   LIG d   1       2.070  92.863 118.498  0.00  0.00     0.091 C 
ENDROOT
BRANCH   1   7
ATOM      7  O   LIG d   1       3.040  91.679 116.585  0.00  0.00    -0.368 OA
BRANCH   7   8
ATOM      8  C   LIG d   1       3.233  90.499 117.404  0.00  0.00     0.119 C 
BRANCH   8   9
ATOM      9  C   LIG d   1       4.492  89.777 116.885  0.00  0.00     0.028 C 
ATOM     10  C   LIG d   1       4.924  90.275 115.496  0.00  0.00     0.006 C 
ENDBRANCH   8   9
BRANCH   8  11
ATOM     11  C   LIG d   1       2.088  89.500 117.221  0.00  0.00     0.028 C 
ATOM     12  C   LIG d   1       1.184  89.842 116.025  0.00  0.00     0.006 C 
ENDBRANCH   8  11
ENDBRANCH   7   8
ENDBRANCH   1   7
BRANCH   6  13
ATOM     13  N   LIG d   1       0.676  92.917 117.985  0.00  0.00    -0.311 N 
ATOM     14  C   LIG d   1      -0.324  92.204 118.500  0.00  0.00     0.210 C 
ATOM     15  C   LIG d   1      -1.677  92.394 117.809  0.00  0.00     0.109 C 
ATOM     16  O   LIG d   1      -0.225  91.456 119.485  0.00  0.00    -0.276 OA
ATOM     17  H   LIG d   1       0.500  93.522 117.207  0.00  0.00     0.149 HD
ENDBRANCH   6  13
BRANCH   5  18
ATOM     18  N   LIG d   1       1.556  93.869 120.751  0.00  0.00     0.381 N 
ATOM     19  H   LIG d   1       0.765  93.280 120.583  0.00  0.00    -0.090 HD
ATOM     20  H   LIG d   1       1.221  94.782 121.005  0.00  0.00    -0.090 HD
ATOM     21  H   LIG d   1       2.109  93.493 121.490  0.00  0.00    -0.090 HD
ENDBRANCH   5  18
BRANCH   3  22
ATOM     22  C   LIG d   1       5.976  94.424 118.992  0.00  0.00     0.382 C 
ATOM     23  O   LIG d   1       6.977  93.674 119.095  0.00  0.00    -0.241 OA
ATOM     24  O   LIG d   1       6.123  95.658 119.076  0.00  0.00    -0.241 OA
ENDBRANCH   3  22
TORSDOF 7
ENDMDL
MODEL 8
REMARK VINA RESULT:      -4.1      2.325      4.325
REMARK  7 active torsions:
REMARK  status: ('A' for Active; 'I' for Inactive)
REMARK    1  A    between atoms: C_2  and  C_3 
REMARK    2  A    between atoms: C_3  and  O_6 
REMARK    3  A    between atoms: C_3  and  C_4 
REMARK    4  A    between atoms: C_7  and  O_6 
REMARK    5  A    between atoms: C_9  and  C_10 
REMARK    6  A    between atoms: N_15  and  C_14 
REMARK    7  A    between atoms: N_20  and  C_19 
REMARK       I    between atoms: C_22  and  N_20 
ROOT
ATOM      1  C   LIG d   1       3.686  90.843 116.677  0.00  0.00     0.161 C 
ATOM      2  C   LIG d   1       2.318  90.696 116.393  0.00  0.00     0.016 C 
ATOM      3  C   LIG d   1       1.295  91.306 117.154  0.00  0.00     0.038 C 
ATOM      4  C   LIG d   1       1.578  92.233 118.168  0.00  0.00     0.028 C 
ATOM      5  C   LIG d   1       2.942  92.022 118.818  0.00  0.00    -0.047 C 
ATOM      6  C   LIG d   1       4.017  91.939 117.711  0.00  0.00     0.091 C 
ENDROOT
BRANCH   1   7
ATOM      7  O   LIG d   1       4.418  91.068 115.456  0.00  0.00    -0.368 OA
BRANCH   7   8
ATOM      8  C   LIG d   1       5.461  90.110 115.152  0.00  0.00     0.119 C 
BRANCH   8   9
ATOM      9  C   LIG d   1       5.295  89.698 113.676  0.00  0.00     0.028 C 
ATOM     10  C   LIG d   1       4.001  88.905 113.430  0.00  0.00     0.006 C 
ENDBRANCH   8   9
BRANCH   8  11
ATOM     11  C   LIG d   1       5.283  88.819 115.956  0.00  0.00     0.028 C 
ATOM     12  C   LIG d   1       6.513  88.475 116.811  0.00  0.00     0.006 C 
ENDBRANCH   8  11
ENDBRANCH   7   8
ENDBRANCH   1   7
BRANCH   6  13
ATOM     13  N   LIG d   1       5.370  91.650 118.256  0.00  0.00    -0.311 N 
ATOM     14  C   LIG d   1       6.239  92.598 118.601  0.00  0.00     0.210 C 
ATOM     15  C   LIG d   1       7.585  92.083 119.122  0.00  0.00     0.109 C 
ATOM     16  O   LIG d   1       6.011  93.817 118.557  0.00  0.00    -0.276 OA
ATOM     17  H   LIG d   1       5.625  90.687 118.354  0.00  0.00     0.149 HD
ENDBRANCH   6  13
BRANCH   5  18
ATOM     18  N   LIG d   1       3.164  93.137 119.758  0.00  0.00     0.381 N 
ATOM     19  H   LIG d   1       2.407  93.187 120.410  0.00  0.00    -0.090 HD
ATOM     20  H   LIG d   1       3.193  93.998 119.241  0.00  0.00    -0.090 HD
ATOM     21  H   LIG d   1       4.023  93.006 120.246  0.00  0.00    -0.090 HD
ENDBRANCH   5  18
BRANCH   3  22
ATOM     22  C   LIG d   1      -0.028  90.959 116.930  0.00  0.00     0.382 C 
ATOM     23  O   LIG d   1      -0.948  91.597 117.496  0.00  0.00    -0.241 OA
ATOM     24  O   LIG d   1      -0.312  89.988 116.203  0.00  0.00    -0.241 OA
ENDBRANCH   3  22
TORSDOF 7
ENDMDL
MODEL 9
REMARK VINA RESULT:      -4.1      2.340      4.403
REMARK  7 active torsions:
REMARK  status: ('A' for Active; 'I' for Inactive)
REMARK    1  A    between atoms: C_2  and  C_3 
REMARK    2  A    between atoms: C_3  and  O_6 
REMARK    3  A    between atoms: C_3  and  C_4 
REMARK    4  A    between atoms: C_7  and  O_6 
REMARK    5  A    between atoms: C_9  and  C_10 
REMARK    6  A    between atoms: N_15  and  C_14 
REMARK    7  A    between atoms: N_20  and  C_19 
REMARK       I    between atoms: C_22  and  N_20 
ROOT
ATOM      1  C   LIG d   1       2.776  91.176 117.049  0.00  0.00     0.161 C 
ATOM      2  C   LIG d   1       2.913  90.324 115.940  0.00  0.00     0.016 C 
ATOM      3  C   LIG d   1       1.825  89.656 115.333  0.00  0.00     0.038 C 
ATOM      4  C   LIG d   1       0.497  89.915 115.702  0.00  0.00     0.028 C 
ATOM      5  C   LIG d   1       0.349  90.382 117.146  0.00  0.00    -0.047 C 
ATOM      6  C   LIG d   1       1.322  91.558 117.395  0.00  0.00     0.091 C 
ENDROOT
BRANCH   1   7
ATOM      7  O   LIG d   1       3.573  92.362 116.855  0.00  0.00    -0.368 OA
BRANCH   7   8
ATOM      8  C   LIG d   1       4.718  92.510 117.730  0.00  0.00     0.119 C 
BRANCH   8   9
ATOM      9  C   LIG d   1       4.795  91.248 118.610  0.00  0.00     0.028 C 
ATOM     10  C   LIG d   1       4.672  91.569 120.109  0.00  0.00     0.006 C 
ENDBRANCH   8   9
BRANCH   8  11
ATOM     11  C   LIG d   1       4.527  93.674 118.706  0.00  0.00     0.028 C 
ATOM     12  C   LIG d   1       5.717  94.647 118.714  0.00  0.00     0.006 C 
ENDBRANCH   8  11
ENDBRANCH   7   8
ENDBRANCH   1   7
BRANCH   6  13
ATOM     13  N   LIG d   1       1.302  92.020 118.808  0.00  0.00    -0.311 N 
ATOM     14  C   LIG d   1       0.550  93.032 119.237  0.00  0.00     0.210 C 
ATOM     15  C   LIG d   1       0.695  93.358 120.727  0.00  0.00     0.109 C 
ATOM     16  O   LIG d   1      -0.248  93.668 118.533  0.00  0.00    -0.276 OA
ATOM     17  H   LIG d   1       1.897  91.539 119.453  0.00  0.00     0.149 HD
ENDBRANCH   6  13
BRANCH   5  18
ATOM     18  N   LIG d   1      -1.064  90.747 117.355  0.00  0.00     0.381 N 
ATOM     19  H   LIG d   1      -1.637  90.282 116.679  0.00  0.00    -0.090 HD
ATOM     20  H   LIG d   1      -1.167  91.739 117.226  0.00  0.00    -0.090 HD
ATOM     21  H   LIG d   1      -1.350  90.493 118.275  0.00  0.00    -0.090 HD
ENDBRANCH   5  18
BRANCH   3  22
ATOM     22  C   LIG d   1       2.064  88.686 114.371  0.00  0.00     0.382 C 
ATOM     23  O   LIG d   1       3.219  88.215 114.229  0.00  0.00    -0.241 OA
ATOM     24  O   LIG d   1       1.150  88.309 113.614  0.00  0.00    -0.241 OA
ENDBRANCH   3  22
TORSDOF 7
ENDMDL
