MODEL 1
REMARK VINA RESULT:      -5.3      0.000      0.000
REMARK  7 active torsions:
REMARK  status: ('A' for Active; 'I' for Inactive)
REMARK    1  A    between atoms: C_2  and  C_3 
REMARK    2  A    between atoms: C_3  and  O_6 
REMARK    3  A    between atoms: C_3  and  C_4 
REMARK    4  A    between atoms: C_7  and  O_6 
REMARK    5  A    between atoms: C_9  and  C_10 
REMARK    6  A    between atoms: N_15  and  C_14 
REMARK    7  A    between atoms: N_20  and  C_19 
REMARK       I    between atoms: C_22  and  N_20 
ROOT
ATOM      1  C   LIG d   1      -6.061  92.468 118.865  0.00  0.00     0.161 C 
ATOM      2  C   LIG d   1      -4.945  92.976 119.551  0.00  0.00     0.016 C 
ATOM      3  C   LIG d   1      -3.615  92.588 119.269  0.00  0.00     0.038 C 
ATOM      4  C   LIG d   1      -3.297  91.772 118.173  0.00  0.00     0.028 C 
ATOM      5  C   LIG d   1      -4.430  90.836 117.766  0.00  0.00    -0.047 C 
ATOM      6  C   LIG d   1      -5.726  91.661 117.593  0.00  0.00     0.091 C 
ENDROOT
BRANCH   1   7
ATOM      7  O   LIG d   1      -6.973  93.539 118.553  0.00  0.00    -0.368 OA
BRANCH   7   8
ATOM      8  C   LIG d   1      -6.936  94.685 119.439  0.00  0.00     0.119 C 
BRANCH   8   9
ATOM      9  C   LIG d   1      -8.362  94.894 119.984  0.00  0.00     0.028 C 
ATOM     10  C   LIG d   1      -9.130  95.984 119.217  0.00  0.00     0.006 C 
ENDBRANCH   8   9
BRANCH   8  11
ATOM     11  C   LIG d   1      -6.602  95.970 118.675  0.00  0.00     0.028 C 
ATOM     12  C   LIG d   1      -5.264  96.589 119.107  0.00  0.00     0.006 C 
ENDBRANCH   8  11
ENDBRANCH   7   8
ENDBRANCH   1   7
BRANCH   6  13
ATOM     13  N   LIG d   1      -6.902  90.810 117.277  0.00  0.00    -0.311 N 
ATOM     14  C   LIG d   1      -7.265  90.491 116.036  0.00  0.00     0.210 C 
ATOM     15  C   LIG d   1      -8.520  89.619 115.932  0.00  0.00     0.109 C 
ATOM     16  O   LIG d   1      -6.647  90.821 115.012  0.00  0.00    -0.276 OA
ATOM     17  H   LIG d   1      -7.442  90.473 118.050  0.00  0.00     0.149 HD
ENDBRANCH   6  13
BRANCH   5  18
ATOM     18  N   LIG d   1      -4.016  90.144 116.531  0.00  0.00     0.381 N 
ATOM     19  H   LIG d   1      -3.673  90.811 115.868  0.00  0.00    -0.090 HD
ATOM     20  H   LIG d   1      -4.815  89.685 116.132  0.00  0.00    -0.090 HD
ATOM     21  H   LIG d   1      -3.306  89.475 116.736  0.00  0.00    -0.090 HD
ENDBRANCH   5  18
BRANCH   3  22
ATOM     22  C   LIG d   1      -2.590  92.985 120.113  0.00  0.00     0.382 C 
ATOM     23  O   LIG d   1      -2.516  94.180 120.491  0.00  0.00    -0.241 OA
ATOM     24  O   LIG d   1      -1.712  92.175 120.467  0.00  0.00    -0.241 OA
ENDBRANCH   3  22
TORSDOF 7
ENDMDL
MODEL 2
REMARK VINA RESULT:      -4.9      2.351      4.960
REMARK  7 active torsions:
REMARK  status: ('A' for Active; 'I' for Inactive)
REMARK    1  A    between atoms: C_2  and  C_3 
REMARK    2  A    between atoms: C_3  and  O_6 
REMARK    3  A    between atoms: C_3  and  C_4 
REMARK    4  A    between atoms: C_7  and  O_6 
REMARK    5  A    between atoms: C_9  and  C_10 
REMARK    6  A    between atoms: N_15  and  C_14 
REMARK    7  A    between atoms: N_20  and  C_19 
REMARK       I    between atoms: C_22  and  N_20 
ROOT
ATOM      1  C   LIG d   1      -4.889  91.219 117.529  0.00  0.00     0.161 C 
ATOM      2  C   LIG d   1      -3.867  90.266 117.384  0.00  0.00     0.016 C 
ATOM      3  C   LIG d   1      -2.646  90.320 118.093  0.00  0.00     0.038 C 
ATOM      4  C   LIG d   1      -2.423  91.255 119.116  0.00  0.00     0.028 C 
ATOM      5  C   LIG d   1      -3.223  92.542 118.944  0.00  0.00    -0.047 C 
ATOM      6  C   LIG d   1      -4.710  92.183 118.720  0.00  0.00     0.091 C 
ENDROOT
BRANCH   1   7
ATOM      7  O   LIG d   1      -6.167  90.557 117.608  0.00  0.00    -0.368 OA
BRANCH   7   8
ATOM      8  C   LIG d   1      -6.820  90.280 116.345  0.00  0.00     0.119 C 
BRANCH   8   9
ATOM      9  C   LIG d   1      -7.166  91.634 115.695  0.00  0.00     0.028 C 
ATOM     10  C   LIG d   1      -6.487  91.819 114.327  0.00  0.00     0.006 C 
ENDBRANCH   8   9
BRANCH   8  11
ATOM     11  C   LIG d   1      -8.164  89.576 116.555  0.00  0.00     0.028 C 
ATOM     12  C   LIG d   1      -9.126  89.763 115.371  0.00  0.00     0.006 C 
ENDBRANCH   8  11
ENDBRANCH   7   8
ENDBRANCH   1   7
BRANCH   6  13
ATOM     13  N   LIG d   1      -5.549  93.381 118.459  0.00  0.00    -0.311 N 
ATOM     14  C   LIG d   1      -6.244  94.010 119.406  0.00  0.00     0.210 C 
ATOM     15  C   LIG d   1      -7.060  95.212 118.920  0.00  0.00     0.109 C 
ATOM     16  O   LIG d   1      -6.237  93.705 120.608  0.00  0.00    -0.276 OA
ATOM     17  H   LIG d   1      -5.588  93.715 117.516  0.00  0.00     0.149 HD
ENDBRANCH   6  13
BRANCH   5  18
ATOM     18  N   LIG d   1      -3.002  93.368 120.146  0.00  0.00     0.381 N 
ATOM     19  H   LIG d   1      -2.416  94.146 119.920  0.00  0.00    -0.090 HD
ATOM     20  H   LIG d   1      -2.534  92.812 120.841  0.00  0.00    -0.090 HD
ATOM     21  H   LIG d   1      -3.875  93.692 120.502  0.00  0.00    -0.090 HD
ENDBRANCH   5  18
BRANCH   3  22
ATOM     22  C   LIG d   1      -1.615  89.457 117.755  0.00  0.00     0.382 C 
ATOM     23  O   LIG d   1      -0.530  89.915 117.322  0.00  0.00    -0.241 OA
ATOM     24  O   LIG d   1      -1.772  88.224 117.835  0.00  0.00    -0.241 OA
ENDBRANCH   3  22
TORSDOF 7
ENDMDL
MODEL 3
REMARK VINA RESULT:      -4.9      2.365      5.168
REMARK  7 active torsions:
REMARK  status: ('A' for Active; 'I' for Inactive)
REMARK    1  A    between atoms: C_2  and  C_3 
REMARK    2  A    between atoms: C_3  and  O_6 
REMARK    3  A    between atoms: C_3  and  C_4 
REMARK    4  A    between atoms: C_7  and  O_6 
REMARK    5  A    between atoms: C_9  and  C_10 
REMARK    6  A    between atoms: N_15  and  C_14 
REMARK    7  A    between atoms: N_20  and  C_19 
REMARK       I    between atoms: C_22  and  N_20 
ROOT
ATOM      1  C   LIG d   1      -3.824  90.854 117.614  0.00  0.00     0.161 C 
ATOM      2  C   LIG d   1      -2.963  91.501 118.516  0.00  0.00     0.016 C 
ATOM      3  C   LIG d   1      -3.396  92.483 119.437  0.00  0.00     0.038 C 
ATOM      4  C   LIG d   1      -4.755  92.777 119.623  0.00  0.00     0.028 C 
ATOM      5  C   LIG d   1      -5.606  92.515 118.385  0.00  0.00    -0.047 C 
ATOM      6  C   LIG d   1      -5.327  91.082 117.878  0.00  0.00     0.091 C 
ENDROOT
BRANCH   1   7
ATOM      7  O   LIG d   1      -3.528  89.444 117.583  0.00  0.00    -0.368 OA
BRANCH   7   8
ATOM      8  C   LIG d   1      -2.432  89.003 118.421  0.00  0.00     0.119 C 
BRANCH   8   9
ATOM      9  C   LIG d   1      -1.514  88.118 117.556  0.00  0.00     0.028 C 
ATOM     10  C   LIG d   1      -0.110  88.721 117.383  0.00  0.00     0.006 C 
ENDBRANCH   8   9
BRANCH   8  11
ATOM     11  C   LIG d   1      -2.924  88.094 119.551  0.00  0.00     0.028 C 
ATOM     12  C   LIG d   1      -2.889  88.780 120.926  0.00  0.00     0.006 C 
ENDBRANCH   8  11
ENDBRANCH   7   8
ENDBRANCH   1   7
BRANCH   6  13
ATOM     13  N   LIG d   1      -6.056  90.773 116.621  0.00  0.00    -0.311 N 
ATOM     14  C   LIG d   1      -7.288  90.268 116.593  0.00  0.00     0.210 C 
ATOM     15  C   LIG d   1      -7.848  90.005 115.191  0.00  0.00     0.109 C 
ATOM     16  O   LIG d   1      -7.983  90.043 117.595  0.00  0.00    -0.276 OA
ATOM     17  H   LIG d   1      -5.578  90.954 115.760  0.00  0.00     0.149 HD
ENDBRANCH   6  13
BRANCH   5  18
ATOM     18  N   LIG d   1      -7.016  92.732 118.759  0.00  0.00     0.381 N 
ATOM     19  H   LIG d   1      -7.260  93.692 118.619  0.00  0.00    -0.090 HD
ATOM     20  H   LIG d   1      -7.130  92.517 119.734  0.00  0.00    -0.090 HD
ATOM     21  H   LIG d   1      -7.608  92.147 118.212  0.00  0.00    -0.090 HD
ENDBRANCH   5  18
BRANCH   3  22
ATOM     22  C   LIG d   1      -2.460  93.211 120.156  0.00  0.00     0.382 C 
ATOM     23  O   LIG d   1      -1.666  92.621 120.928  0.00  0.00    -0.241 OA
ATOM     24  O   LIG d   1      -2.429  94.453 120.077  0.00  0.00    -0.241 OA
ENDBRANCH   3  22
TORSDOF 7
ENDMDL
MODEL 4
REMARK VINA RESULT:      -4.9      1.558      4.563
REMARK  7 active torsions:
REMARK  status: ('A' for Active; 'I' for Inactive)
REMARK    1  A    between atoms: C_2  and  C_3 
REMARK    2  A    between atoms: C_3  and  O_6 
REMARK    3  A    between atoms: C_3  and  C_4 
REMARK    4  A    between atoms: C_7  and  O_6 
REMARK    5  A    between atoms: C_9  and  C_10 
REMARK    6  A    between atoms: N_15  and  C_14 
REMARK    7  A    between atoms: N_20  and  C_19 
REMARK       I    between atoms: C_22  and  N_20 
ROOT
ATOM      1  C   LIG d   1      -6.129  92.919 118.010  0.00  0.00     0.161 C 
ATOM      2  C   LIG d   1      -6.980  92.529 116.963  0.00  0.00     0.016 C 
ATOM      3  C   LIG d   1      -6.670  91.492 116.053  0.00  0.00     0.038 C 
ATOM      4  C   LIG d   1      -5.548  90.667 116.223  0.00  0.00     0.028 C 
ATOM      5  C   LIG d   1      -4.404  91.347 116.968  0.00  0.00    -0.047 C 
ATOM      6  C   LIG d   1      -4.952  91.958 118.279  0.00  0.00     0.091 C 
ENDROOT
BRANCH   1   7
ATOM      7  O   LIG d   1      -6.896  93.120 119.214  0.00  0.00    -0.368 OA
BRANCH   7   8
ATOM      8  C   LIG d   1      -6.954  94.479 119.713  0.00  0.00     0.119 C 
BRANCH   8   9
ATOM      9  C   LIG d   1      -8.440  94.877 119.800  0.00  0.00     0.028 C 
ATOM     10  C   LIG d   1      -8.838  95.897 118.720  0.00  0.00     0.006 C 
ENDBRANCH   8   9
BRANCH   8  11
ATOM     11  C   LIG d   1      -6.328  95.464 118.721  0.00  0.00     0.028 C 
ATOM     12  C   LIG d   1      -5.160  96.258 119.328  0.00  0.00     0.006 C 
ENDBRANCH   8  11
ENDBRANCH   7   8
ENDBRANCH   1   7
BRANCH   6  13
ATOM     13  N   LIG d   1      -3.915  92.715 119.028  0.00  0.00    -0.311 N 
ATOM     14  C   LIG d   1      -3.173  92.180 119.996  0.00  0.00     0.210 C 
ATOM     15  C   LIG d   1      -2.177  93.140 120.653  0.00  0.00     0.109 C 
ATOM     16  O   LIG d   1      -3.223  90.993 120.351  0.00  0.00    -0.276 OA
ATOM     17  H   LIG d   1      -3.786  93.677 118.783  0.00  0.00     0.149 HD
ENDBRANCH   6  13
BRANCH   5  18
ATOM     18  N   LIG d   1      -3.356  90.335 117.196  0.00  0.00     0.381 N 
ATOM     19  H   LIG d   1      -2.829  90.198 116.356  0.00  0.00    -0.090 HD
ATOM     20  H   LIG d   1      -3.793  89.464 117.440  0.00  0.00    -0.090 HD
ATOM     21  H   LIG d   1      -2.752  90.629 117.931  0.00  0.00    -0.090 HD
ENDBRANCH   5  18
BRANCH   3  22
ATOM     22  C   LIG d   1      -7.468  91.296 114.936  0.00  0.00     0.382 C 
ATOM     23  O   LIG d   1      -7.187  91.871 113.857  0.00  0.00    -0.241 OA
ATOM     24  O   LIG d   1      -8.490  90.588 115.006  0.00  0.00    -0.241 OA
ENDBRANCH   3  22
TORSDOF 7
ENDMDL
MODEL 5
REMARK VINA RESULT:      -4.8      2.549      5.867
REMARK  7 active torsions:
REMARK  status: ('A' for Active; 'I' for Inactive)
REMARK    1  A    between atoms: C_2  and  C_3 
REMARK    2  A    between atoms: C_3  and  O_6 
REMARK    3  A    between atoms: C_3  and  C_4 
REMARK    4  A    between atoms: C_7  and  O_6 
REMARK    5  A    between atoms: C_9  and  C_10 
REMARK    6  A    between atoms: N_15  and  C_14 
REMARK    7  A    between atoms: N_20  and  C_19 
REMARK       I    between atoms: C_22  and  N_20 
ROOT
ATOM      1  C   LIG d   1      -5.755  93.392 120.185  0.00  0.00     0.161 C 
ATOM      2  C   LIG d   1      -7.085  93.726 119.880  0.00  0.00     0.016 C 
ATOM      3  C   LIG d   1      -7.460  94.942 119.264  0.00  0.00     0.038 C 
ATOM      4  C   LIG d   1      -6.509  95.847 118.770  0.00  0.00     0.028 C 
ATOM      5  C   LIG d   1      -5.175  95.786 119.506  0.00  0.00    -0.047 C 
ATOM      6  C   LIG d   1      -4.694  94.318 119.553  0.00  0.00     0.091 C 
ENDROOT
BRANCH   1   7
ATOM      7  O   LIG d   1      -5.501  92.020 119.824  0.00  0.00    -0.368 OA
BRANCH   7   8
ATOM      8  C   LIG d   1      -5.092  91.786 118.454  0.00  0.00     0.119 C 
BRANCH   8   9
ATOM      9  C   LIG d   1      -6.296  91.180 117.708  0.00  0.00     0.028 C 
ATOM     10  C   LIG d   1      -6.525  91.833 116.335  0.00  0.00     0.006 C 
ENDBRANCH   8   9
BRANCH   8  11
ATOM     11  C   LIG d   1      -3.990  90.726 118.375  0.00  0.00     0.028 C 
ATOM     12  C   LIG d   1      -3.605  90.162 119.752  0.00  0.00     0.006 C 
ENDBRANCH   8  11
ENDBRANCH   7   8
ENDBRANCH   1   7
BRANCH   6  13
ATOM     13  N   LIG d   1      -3.437  94.158 120.329  0.00  0.00    -0.311 N 
ATOM     14  C   LIG d   1      -2.269  93.838 119.775  0.00  0.00     0.210 C 
ATOM     15  C   LIG d   1      -1.102  93.703 120.758  0.00  0.00     0.109 C 
ATOM     16  O   LIG d   1      -2.082  93.684 118.558  0.00  0.00    -0.276 OA
ATOM     17  H   LIG d   1      -3.492  94.295 121.319  0.00  0.00     0.149 HD
ENDBRANCH   6  13
BRANCH   5  18
ATOM     18  N   LIG d   1      -4.236  96.680 118.801  0.00  0.00     0.381 N 
ATOM     19  H   LIG d   1      -3.594  97.080 119.456  0.00  0.00    -0.090 HD
ATOM     20  H   LIG d   1      -4.756  97.426 118.374  0.00  0.00    -0.090 HD
ATOM     21  H   LIG d   1      -3.738  96.171 118.105  0.00  0.00    -0.090 HD
ENDBRANCH   5  18
BRANCH   3  22
ATOM     22  C   LIG d   1      -8.802  95.281 119.173  0.00  0.00     0.382 C 
ATOM     23  O   LIG d   1      -9.653  94.658 119.852  0.00  0.00    -0.241 OA
ATOM     24  O   LIG d   1      -9.176  96.171 118.386  0.00  0.00    -0.241 OA
ENDBRANCH   3  22
TORSDOF 7
ENDMDL
MODEL 6
REMARK VINA RESULT:      -4.6      2.177      4.163
REMARK  7 active torsions:
REMARK  status: ('A' for Active; 'I' for Inactive)
REMARK    1  A    between atoms: C_2  and  C_3 
REMARK    2  A    between atoms: C_3  and  O_6 
REMARK    3  A    between atoms: C_3  and  C_4 
REMARK    4  A    between atoms: C_7  and  O_6 
REMARK    5  A    between atoms: C_9  and  C_10 
REMARK    6  A    between atoms: N_15  and  C_14 
REMARK    7  A    between atoms: N_20  and  C_19 
REMARK       I    between atoms: C_22  and  N_20 
ROOT
ATOM      1  C   LIG d   1      -5.074  92.435 120.032  0.00  0.00     0.161 C 
ATOM      2  C   LIG d   1      -4.093  91.490 119.688  0.00  0.00     0.016 C 
ATOM      3  C   LIG d   1      -4.039  90.846 118.431  0.00  0.00     0.038 C 
ATOM      4  C   LIG d   1      -4.880  91.218 117.371  0.00  0.00     0.028 C 
ATOM      5  C   LIG d   1      -6.209  91.807 117.831  0.00  0.00    -0.047 C 
ATOM      6  C   LIG d   1      -5.932  92.935 118.851  0.00  0.00     0.091 C 
ENDROOT
BRANCH   1   7
ATOM      7  O   LIG d   1      -4.462  93.548 120.714  0.00  0.00    -0.368 OA
BRANCH   7   8
ATOM      8  C   LIG d   1      -3.795  94.521 119.874  0.00  0.00     0.119 C 
BRANCH   8   9
ATOM      9  C   LIG d   1      -2.278  94.360 120.093  0.00  0.00     0.028 C 
ATOM     10  C   LIG d   1      -1.528  94.032 118.792  0.00  0.00     0.006 C 
ENDBRANCH   8   9
BRANCH   8  11
ATOM     11  C   LIG d   1      -4.119  95.952 120.313  0.00  0.00     0.028 C 
ATOM     12  C   LIG d   1      -3.877  96.986 119.202  0.00  0.00     0.006 C 
ENDBRANCH   8  11
ENDBRANCH   7   8
ENDBRANCH   1   7
BRANCH   6  13
ATOM     13  N   LIG d   1      -7.181  93.509 119.415  0.00  0.00    -0.311 N 
ATOM     14  C   LIG d   1      -7.584  94.757 119.184  0.00  0.00     0.210 C 
ATOM     15  C   LIG d   1      -8.891  95.154 119.878  0.00  0.00     0.109 C 
ATOM     16  O   LIG d   1      -6.999  95.563 118.444  0.00  0.00    -0.276 OA
ATOM     17  H   LIG d   1      -7.733  92.914 120.001  0.00  0.00     0.149 HD
ENDBRANCH   6  13
BRANCH   5  18
ATOM     18  N   LIG d   1      -6.926  92.277 116.631  0.00  0.00     0.381 N 
ATOM     19  H   LIG d   1      -6.602  91.780 115.825  0.00  0.00    -0.090 HD
ATOM     20  H   LIG d   1      -6.732  93.254 116.498  0.00  0.00    -0.090 HD
ATOM     21  H   LIG d   1      -7.907  92.138 116.743  0.00  0.00    -0.090 HD
ENDBRANCH   5  18
BRANCH   3  22
ATOM     22  C   LIG d   1      -3.162  89.789 118.236  0.00  0.00     0.382 C 
ATOM     23  O   LIG d   1      -3.407  88.670 118.747  0.00  0.00    -0.241 OA
ATOM     24  O   LIG d   1      -2.108  89.953 117.594  0.00  0.00    -0.241 OA
ENDBRANCH   3  22
TORSDOF 7
ENDMDL
MODEL 7
REMARK VINA RESULT:      -4.5      3.794      6.463
REMARK  7 active torsions:
REMARK  status: ('A' for Active; 'I' for Inactive)
REMARK    1  A    between atoms: C_2  and  C_3 
REMARK    2  A    between atoms: C_3  and  O_6 
REMARK    3  A    between atoms: C_3  and  C_4 
REMARK    4  A    between atoms: C_7  and  O_6 
REMARK    5  A    between atoms: C_9  and  C_10 
REMARK    6  A    between atoms: N_15  and  C_14 
REMARK    7  A    between atoms: N_20  and  C_19 
REMARK       I    between atoms: C_22  and  N_20 
ROOT
ATOM      1  C   LIG d   1      -0.748  91.184 117.906  0.00  0.00     0.161 C 
ATOM      2  C   LIG d   1       0.590  91.527 118.163  0.00  0.00     0.016 C 
ATOM      3  C   LIG d   1       1.023  92.853 118.393  0.00  0.00     0.038 C 
ATOM      4  C   LIG d   1       0.117  93.916 118.532  0.00  0.00     0.028 C 
ATOM      5  C   LIG d   1      -1.192  93.697 117.780  0.00  0.00    -0.047 C 
ATOM      6  C   LIG d   1      -1.766  92.314 118.164  0.00  0.00     0.091 C 
ENDROOT
BRANCH   1   7
ATOM      7  O   LIG d   1      -1.104  90.008 118.659  0.00  0.00    -0.368 OA
BRANCH   7   8
ATOM      8  C   LIG d   1      -1.624  88.894 117.893  0.00  0.00     0.119 C 
BRANCH   8   9
ATOM      9  C   LIG d   1      -2.512  88.058 118.836  0.00  0.00     0.028 C 
ATOM     10  C   LIG d   1      -2.859  88.808 120.133  0.00  0.00     0.006 C 
ENDBRANCH   8   9
BRANCH   8  11
ATOM     11  C   LIG d   1      -0.503  87.950 117.450  0.00  0.00     0.028 C 
ATOM     12  C   LIG d   1      -0.053  86.994 118.566  0.00  0.00     0.006 C 
ENDBRANCH   8  11
ENDBRANCH   7   8
ENDBRANCH   1   7
BRANCH   6  13
ATOM     13  N   LIG d   1      -3.004  91.985 117.409  0.00  0.00    -0.311 N 
ATOM     14  C   LIG d   1      -4.174  91.735 117.994  0.00  0.00     0.210 C 
ATOM     15  C   LIG d   1      -5.318  91.398 117.032  0.00  0.00     0.109 C 
ATOM     16  O   LIG d   1      -4.381  91.793 119.215  0.00  0.00    -0.276 OA
ATOM     17  H   LIG d   1      -2.933  91.948 116.411  0.00  0.00     0.149 HD
ENDBRANCH   6  13
BRANCH   5  18
ATOM     18  N   LIG d   1      -2.094  94.813 118.123  0.00  0.00     0.381 N 
ATOM     19  H   LIG d   1      -2.057  95.510 117.406  0.00  0.00    -0.090 HD
ATOM     20  H   LIG d   1      -1.784  95.229 118.983  0.00  0.00    -0.090 HD
ATOM     21  H   LIG d   1      -3.027  94.479 118.224  0.00  0.00    -0.090 HD
ENDBRANCH   5  18
BRANCH   3  22
ATOM     22  C   LIG d   1       2.380  93.134 118.446  0.00  0.00     0.382 C 
ATOM     23  O   LIG d   1       2.876  93.635 119.484  0.00  0.00    -0.241 OA
ATOM     24  O   LIG d   1       3.106  92.934 117.454  0.00  0.00    -0.241 OA
ENDBRANCH   3  22
TORSDOF 7
ENDMDL
MODEL 8
REMARK VINA RESULT:      -4.2      2.546      4.005
REMARK  7 active torsions:
REMARK  status: ('A' for Active; 'I' for Inactive)
REMARK    1  A    between atoms: C_2  and  C_3 
REMARK    2  A    between atoms: C_3  and  O_6 
REMARK    3  A    between atoms: C_3  and  C_4 
REMARK    4  A    between atoms: C_7  and  O_6 
REMARK    5  A    between atoms: C_9  and  C_10 
REMARK    6  A    between atoms: N_15  and  C_14 
REMARK    7  A    between atoms: N_20  and  C_19 
REMARK       I    between atoms: C_22  and  N_20 
ROOT
ATOM      1  C   LIG d   1      -3.071  92.490 119.850  0.00  0.00     0.161 C 
ATOM      2  C   LIG d   1      -2.822  93.849 119.596  0.00  0.00     0.016 C 
ATOM      3  C   LIG d   1      -1.901  94.303 118.624  0.00  0.00     0.038 C 
ATOM      4  C   LIG d   1      -1.274  93.424 117.729  0.00  0.00     0.028 C 
ATOM      5  C   LIG d   1      -1.111  92.011 118.281  0.00  0.00    -0.047 C 
ATOM      6  C   LIG d   1      -2.479  91.519 118.808  0.00  0.00     0.091 C 
ENDROOT
BRANCH   1   7
ATOM      7  O   LIG d   1      -4.489  92.272 119.990  0.00  0.00    -0.368 OA
BRANCH   7   8
ATOM      8  C   LIG d   1      -5.314  92.710 118.883  0.00  0.00     0.119 C 
BRANCH   8   9
ATOM      9  C   LIG d   1      -6.479  93.529 119.470  0.00  0.00     0.028 C 
ATOM     10  C   LIG d   1      -6.771  94.801 118.656  0.00  0.00     0.006 C 
ENDBRANCH   8   9
BRANCH   8  11
ATOM     11  C   LIG d   1      -5.971  91.522 118.173  0.00  0.00     0.028 C 
ATOM     12  C   LIG d   1      -5.695  91.506 116.661  0.00  0.00     0.006 C 
ENDBRANCH   8  11
ENDBRANCH   7   8
ENDBRANCH   1   7
BRANCH   6  13
ATOM     13  N   LIG d   1      -2.392  90.177 119.442  0.00  0.00    -0.311 N 
ATOM     14  C   LIG d   1      -2.910  89.076 118.902  0.00  0.00     0.210 C 
ATOM     15  C   LIG d   1      -2.726  87.801 119.731  0.00  0.00     0.109 C 
ATOM     16  O   LIG d   1      -3.477  89.028 117.800  0.00  0.00    -0.276 OA
ATOM     17  H   LIG d   1      -1.921  90.120 120.324  0.00  0.00     0.149 HD
ENDBRANCH   6  13
BRANCH   5  18
ATOM     18  N   LIG d   1      -0.571  91.168 117.198  0.00  0.00     0.381 N 
ATOM     19  H   LIG d   1       0.312  90.787 117.474  0.00  0.00    -0.090 HD
ATOM     20  H   LIG d   1      -0.427  91.739 116.383  0.00  0.00    -0.090 HD
ATOM     21  H   LIG d   1      -1.208  90.432 116.989  0.00  0.00    -0.090 HD
ENDBRANCH   5  18
BRANCH   3  22
ATOM     22  C   LIG d   1      -1.569  95.648 118.566  0.00  0.00     0.382 C 
ATOM     23  O   LIG d   1      -0.365  95.995 118.501  0.00  0.00    -0.241 OA
ATOM     24  O   LIG d   1      -2.457  96.521 118.624  0.00  0.00    -0.241 OA
ENDBRANCH   3  22
TORSDOF 7
ENDMDL
MODEL 9
REMARK VINA RESULT:      -4.2      3.698      6.320
REMARK  7 active torsions:
REMARK  status: ('A' for Active; 'I' for Inactive)
REMARK    1  A    between atoms: C_2  and  C_3 
REMARK    2  A    between atoms: C_3  and  O_6 
REMARK    3  A    between atoms: C_3  and  C_4 
REMARK    4  A    between atoms: C_7  and  O_6 
REMARK    5  A    between atoms: C_9  and  C_10 
REMARK    6  A    between atoms: N_15  and  C_14 
REMARK    7  A    between atoms: N_20  and  C_19 
REMARK       I    between atoms: C_22  and  N_20 
ROOT
ATOM      1  C   LIG d   1      -1.297  90.195 117.674  0.00  0.00     0.161 C 
ATOM      2  C   LIG d   1      -0.233  90.664 118.462  0.00  0.00     0.016 C 
ATOM      3  C   LIG d   1      -0.325  91.802 119.295  0.00  0.00     0.038 C 
ATOM      4  C   LIG d   1      -1.541  92.465 119.514  0.00  0.00     0.028 C 
ATOM      5  C   LIG d   1      -2.520  92.333 118.352  0.00  0.00    -0.047 C 
ATOM      6  C   LIG d   1      -2.664  90.839 117.984  0.00  0.00     0.091 C 
ENDROOT
BRANCH   1   7
ATOM      7  O   LIG d   1      -1.385  88.760 117.775  0.00  0.00    -0.368 OA
BRANCH   7   8
ATOM      8  C   LIG d   1      -1.337  88.211 119.115  0.00  0.00     0.119 C 
BRANCH   8   9
ATOM      9  C   LIG d   1      -0.397  86.990 119.082  0.00  0.00     0.028 C 
ATOM     10  C   LIG d   1       0.236  86.774 117.698  0.00  0.00     0.006 C 
ENDBRANCH   8   9
BRANCH   8  11
ATOM     11  C   LIG d   1      -2.701  87.661 119.541  0.00  0.00     0.028 C 
ATOM     12  C   LIG d   1      -2.628  86.810 120.819  0.00  0.00     0.006 C 
ENDBRANCH   8  11
ENDBRANCH   7   8
ENDBRANCH   1   7
BRANCH   6  13
ATOM     13  N   LIG d   1      -3.539  90.628 116.801  0.00  0.00    -0.311 N 
ATOM     14  C   LIG d   1      -4.853  90.426 116.888  0.00  0.00     0.210 C 
ATOM     15  C   LIG d   1      -5.564  90.211 115.548  0.00  0.00     0.109 C 
ATOM     16  O   LIG d   1      -5.502  90.437 117.945  0.00  0.00    -0.276 OA
ATOM     17  H   LIG d   1      -3.100  90.635 115.901  0.00  0.00     0.149 HD
ENDBRANCH   6  13
BRANCH   5  18
ATOM     18  N   LIG d   1      -3.793  92.952 118.768  0.00  0.00     0.381 N 
ATOM     19  H   LIG d   1      -4.379  92.264 119.197  0.00  0.00    -0.090 HD
ATOM     20  H   LIG d   1      -4.264  93.305 117.954  0.00  0.00    -0.090 HD
ATOM     21  H   LIG d   1      -3.617  93.695 119.408  0.00  0.00    -0.090 HD
ENDBRANCH   5  18
BRANCH   3  22
ATOM     22  C   LIG d   1       0.819  92.313 119.890  0.00  0.00     0.382 C 
ATOM     23  O   LIG d   1       0.960  93.553 120.016  0.00  0.00    -0.241 OA
ATOM     24  O   LIG d   1       1.732  91.551 120.262  0.00  0.00    -0.241 OA
ENDBRANCH   3  22
TORSDOF 7
ENDMDL
