MODEL 1
REMARK VINA RESULT:      -5.7      0.000      0.000
REMARK  7 active torsions:
REMARK  status: ('A' for Active; 'I' for Inactive)
REMARK    1  A    between atoms: C_2  and  C_3 
REMARK    2  A    between atoms: C_3  and  O_6 
REMARK    3  A    between atoms: C_3  and  C_4 
REMARK    4  A    between atoms: C_7  and  O_6 
REMARK    5  A    between atoms: C_9  and  C_10 
REMARK    6  A    between atoms: N_15  and  C_14 
REMARK    7  A    between atoms: N_20  and  C_19 
REMARK       I    between atoms: C_22  and  N_20 
ROOT
ATOM      1  C   LIG d   1      -4.988  92.348 117.987  0.00  0.00     0.161 C 
ATOM      2  C   LIG d   1      -5.116  91.383 116.975  0.00  0.00     0.016 C 
ATOM      3  C   LIG d   1      -6.161  91.389 116.022  0.00  0.00     0.038 C 
ATOM      4  C   LIG d   1      -7.069  92.454 115.924  0.00  0.00     0.028 C 
ATOM      5  C   LIG d   1      -7.282  93.192 117.242  0.00  0.00    -0.047 C 
ATOM      6  C   LIG d   1      -5.905  93.579 117.828  0.00  0.00     0.091 C 
ENDROOT
BRANCH   1   7
ATOM      7  O   LIG d   1      -3.611  92.760 118.098  0.00  0.00    -0.368 OA
BRANCH   7   8
ATOM      8  C   LIG d   1      -2.783  91.983 118.998  0.00  0.00     0.119 C 
BRANCH   8   9
ATOM      9  C   LIG d   1      -2.744  92.725 120.348  0.00  0.00     0.028 C 
ATOM     10  C   LIG d   1      -1.906  94.013 120.286  0.00  0.00     0.006 C 
ENDBRANCH   8   9
BRANCH   8  11
ATOM     11  C   LIG d   1      -1.330  91.936 118.519  0.00  0.00     0.028 C 
ATOM     12  C   LIG d   1      -0.975  90.614 117.821  0.00  0.00     0.006 C 
ENDBRANCH   8  11
ENDBRANCH   7   8
ENDBRANCH   1   7
BRANCH   6  13
ATOM     13  N   LIG d   1      -6.018  94.230 119.159  0.00  0.00    -0.311 N 
ATOM     14  C   LIG d   1      -5.333  95.320 119.503  0.00  0.00     0.210 C 
ATOM     15  C   LIG d   1      -5.584  95.817 120.930  0.00  0.00     0.109 C 
ATOM     16  O   LIG d   1      -4.567  95.940 118.750  0.00  0.00    -0.276 OA
ATOM     17  H   LIG d   1      -6.642  93.811 119.821  0.00  0.00     0.149 HD
ENDBRANCH   6  13
BRANCH   5  18
ATOM     18  N   LIG d   1      -8.141  94.358 116.966  0.00  0.00     0.381 N 
ATOM     19  H   LIG d   1      -8.757  94.153 116.204  0.00  0.00    -0.090 HD
ATOM     20  H   LIG d   1      -7.561  95.135 116.702  0.00  0.00    -0.090 HD
ATOM     21  H   LIG d   1      -8.671  94.591 117.777  0.00  0.00    -0.090 HD
ENDBRANCH   5  18
BRANCH   3  22
ATOM     22  C   LIG d   1      -6.329  90.301 115.179  0.00  0.00     0.382 C 
ATOM     23  O   LIG d   1      -7.421  90.130 114.586  0.00  0.00    -0.241 OA
ATOM     24  O   LIG d   1      -5.417  89.464 115.038  0.00  0.00    -0.241 OA
ENDBRANCH   3  22
TORSDOF 7
ENDMDL
MODEL 2
REMARK VINA RESULT:      -5.1      2.401      4.593
REMARK  7 active torsions:
REMARK  status: ('A' for Active; 'I' for Inactive)
REMARK    1  A    between atoms: C_2  and  C_3 
REMARK    2  A    between atoms: C_3  and  O_6 
REMARK    3  A    between atoms: C_3  and  C_4 
REMARK    4  A    between atoms: C_7  and  O_6 
REMARK    5  A    between atoms: C_9  and  C_10 
REMARK    6  A    between atoms: N_15  and  C_14 
REMARK    7  A    between atoms: N_20  and  C_19 
REMARK       I    between atoms: C_22  and  N_20 
ROOT
ATOM      1  C   LIG d   1      -6.545  93.445 118.363  0.00  0.00     0.161 C 
ATOM      2  C   LIG d   1      -7.218  92.582 117.483  0.00  0.00     0.016 C 
ATOM      3  C   LIG d   1      -6.583  91.526 116.790  0.00  0.00     0.038 C 
ATOM      4  C   LIG d   1      -5.252  91.165 117.048  0.00  0.00     0.028 C 
ATOM      5  C   LIG d   1      -4.397  92.323 117.552  0.00  0.00    -0.047 C 
ATOM      6  C   LIG d   1      -5.118  92.998 118.742  0.00  0.00     0.091 C 
ENDROOT
BRANCH   1   7
ATOM      7  O   LIG d   1      -7.338  93.649 119.549  0.00  0.00    -0.368 OA
BRANCH   7   8
ATOM      8  C   LIG d   1      -7.891  94.976 119.726  0.00  0.00     0.119 C 
BRANCH   8   9
ATOM      9  C   LIG d   1      -9.408  94.883 119.470  0.00  0.00     0.028 C 
ATOM     10  C   LIG d   1     -10.231  95.021 120.762  0.00  0.00     0.006 C 
ENDBRANCH   8   9
BRANCH   8  11
ATOM     11  C   LIG d   1      -7.360  95.947 118.667  0.00  0.00     0.028 C 
ATOM     12  C   LIG d   1      -8.481  96.628 117.867  0.00  0.00     0.006 C 
ENDBRANCH   8  11
ENDBRANCH   7   8
ENDBRANCH   1   7
BRANCH   6  13
ATOM     13  N   LIG d   1      -4.389  94.193 119.242  0.00  0.00    -0.311 N 
ATOM     14  C   LIG d   1      -3.515  94.152 120.246  0.00  0.00     0.210 C 
ATOM     15  C   LIG d   1      -2.892  95.501 120.616  0.00  0.00     0.109 C 
ATOM     16  O   LIG d   1      -3.173  93.120 120.844  0.00  0.00    -0.276 OA
ATOM     17  H   LIG d   1      -4.584  95.066 118.793  0.00  0.00     0.149 HD
ENDBRANCH   6  13
BRANCH   5  18
ATOM     18  N   LIG d   1      -3.075  91.777 117.911  0.00  0.00     0.381 N 
ATOM     19  H   LIG d   1      -2.364  92.454 117.715  0.00  0.00    -0.090 HD
ATOM     20  H   LIG d   1      -2.897  90.962 117.352  0.00  0.00    -0.090 HD
ATOM     21  H   LIG d   1      -3.056  91.536 118.878  0.00  0.00    -0.090 HD
ENDBRANCH   5  18
BRANCH   3  22
ATOM     22  C   LIG d   1      -7.270  90.844 115.797  0.00  0.00     0.382 C 
ATOM     23  O   LIG d   1      -7.210  89.592 115.740  0.00  0.00    -0.241 OA
ATOM     24  O   LIG d   1      -7.911  91.468 114.930  0.00  0.00    -0.241 OA
ENDBRANCH   3  22
TORSDOF 7
ENDMDL
MODEL 3
REMARK VINA RESULT:      -4.9      3.969      7.094
REMARK  7 active torsions:
REMARK  status: ('A' for Active; 'I' for Inactive)
REMARK    1  A    between atoms: C_2  and  C_3 
REMARK    2  A    between atoms: C_3  and  O_6 
REMARK    3  A    between atoms: C_3  and  C_4 
REMARK    4  A    between atoms: C_7  and  O_6 
REMARK    5  A    between atoms: C_9  and  C_10 
REMARK    6  A    between atoms: N_15  and  C_14 
REMARK    7  A    between atoms: N_20  and  C_19 
REMARK       I    between atoms: C_22  and  N_20 
ROOT
ATOM      1  C   LIG d   1       0.109  91.073 117.332  0.00  0.00     0.161 C 
ATOM      2  C   LIG d   1       1.508  90.985 117.426  0.00  0.00     0.016 C 
ATOM      3  C   LIG d   1       2.281  91.785 118.300  0.00  0.00     0.038 C 
ATOM      4  C   LIG d   1       1.689  92.626 119.254  0.00  0.00     0.028 C 
ATOM      5  C   LIG d   1       0.304  93.120 118.850  0.00  0.00    -0.047 C 
ATOM      6  C   LIG d   1      -0.563  91.906 118.445  0.00  0.00     0.091 C 
ENDROOT
BRANCH   1   7
ATOM      7  O   LIG d   1      -0.462  89.751 117.283  0.00  0.00    -0.368 OA
BRANCH   7   8
ATOM      8  C   LIG d   1      -0.770  89.141 118.561  0.00  0.00     0.119 C 
BRANCH   8   9
ATOM      9  C   LIG d   1       0.161  87.925 118.731  0.00  0.00     0.028 C 
ATOM     10  C   LIG d   1       0.393  87.175 117.408  0.00  0.00     0.006 C 
ENDBRANCH   8   9
BRANCH   8  11
ATOM     11  C   LIG d   1      -2.191  88.570 118.577  0.00  0.00     0.028 C 
ATOM     12  C   LIG d   1      -2.473  87.709 119.819  0.00  0.00     0.006 C 
ENDBRANCH   8  11
ENDBRANCH   7   8
ENDBRANCH   1   7
BRANCH   6  13
ATOM     13  N   LIG d   1      -1.907  92.308 117.955  0.00  0.00    -0.311 N 
ATOM     14  C   LIG d   1      -2.996  92.309 118.722  0.00  0.00     0.210 C 
ATOM     15  C   LIG d   1      -4.285  92.739 118.015  0.00  0.00     0.109 C 
ATOM     16  O   LIG d   1      -3.011  92.025 119.929  0.00  0.00    -0.276 OA
ATOM     17  H   LIG d   1      -1.980  92.583 116.995  0.00  0.00     0.149 HD
ENDBRANCH   6  13
BRANCH   5  18
ATOM     18  N   LIG d   1      -0.251  93.871 119.992  0.00  0.00     0.381 N 
ATOM     19  H   LIG d   1       0.403  93.869 120.749  0.00  0.00    -0.090 HD
ATOM     20  H   LIG d   1      -1.093  93.418 120.301  0.00  0.00    -0.090 HD
ATOM     21  H   LIG d   1      -0.451  94.808 119.718  0.00  0.00    -0.090 HD
ENDBRANCH   5  18
BRANCH   3  22
ATOM     22  C   LIG d   1       3.664  91.776 118.196  0.00  0.00     0.382 C 
ATOM     23  O   LIG d   1       4.365  91.459 119.187  0.00  0.00    -0.241 OA
ATOM     24  O   LIG d   1       4.220  92.125 117.137  0.00  0.00    -0.241 OA
ENDBRANCH   3  22
TORSDOF 7
ENDMDL
MODEL 4
REMARK VINA RESULT:      -4.2      6.903     10.304
REMARK  7 active torsions:
REMARK  status: ('A' for Active; 'I' for Inactive)
REMARK    1  A    between atoms: C_2  and  C_3 
REMARK    2  A    between atoms: C_3  and  O_6 
REMARK    3  A    between atoms: C_3  and  C_4 
REMARK    4  A    between atoms: C_7  and  O_6 
REMARK    5  A    between atoms: C_9  and  C_10 
REMARK    6  A    between atoms: N_15  and  C_14 
REMARK    7  A    between atoms: N_20  and  C_19 
REMARK       I    between atoms: C_22  and  N_20 
ROOT
ATOM      1  C   LIG d   1       2.616  89.078 117.232  0.00  0.00     0.161 C 
ATOM      2  C   LIG d   1       3.010  90.136 118.069  0.00  0.00     0.016 C 
ATOM      3  C   LIG d   1       4.225  90.842 117.910  0.00  0.00     0.038 C 
ATOM      4  C   LIG d   1       5.063  90.637 116.804  0.00  0.00     0.028 C 
ATOM      5  C   LIG d   1       4.954  89.236 116.213  0.00  0.00    -0.047 C 
ATOM      6  C   LIG d   1       3.465  88.915 115.953  0.00  0.00     0.091 C 
ENDROOT
BRANCH   1   7
ATOM      7  O   LIG d   1       1.222  89.217 116.893  0.00  0.00    -0.368 OA
BRANCH   7   8
ATOM      8  C   LIG d   1       0.325  89.512 117.993  0.00  0.00     0.119 C 
BRANCH   8   9
ATOM      9  C   LIG d   1      -0.581  88.283 118.193  0.00  0.00     0.028 C 
ATOM     10  C   LIG d   1      -2.064  88.665 118.341  0.00  0.00     0.006 C 
ENDBRANCH   8   9
BRANCH   8  11
ATOM     11  C   LIG d   1      -0.623  90.663 117.644  0.00  0.00     0.028 C 
ATOM     12  C   LIG d   1       0.117  91.978 117.354  0.00  0.00     0.006 C 
ENDBRANCH   8  11
ENDBRANCH   7   8
ENDBRANCH   1   7
BRANCH   6  13
ATOM     13  N   LIG d   1       3.262  87.530 115.454  0.00  0.00    -0.311 N 
ATOM     14  C   LIG d   1       2.725  87.250 114.268  0.00  0.00     0.210 C 
ATOM     15  C   LIG d   1       2.588  85.756 113.956  0.00  0.00     0.109 C 
ATOM     16  O   LIG d   1       2.378  88.096 113.430  0.00  0.00    -0.276 OA
ATOM     17  H   LIG d   1       3.544  86.781 116.056  0.00  0.00     0.149 HD
ENDBRANCH   6  13
BRANCH   5  18
ATOM     18  N   LIG d   1       5.775  89.204 114.988  0.00  0.00     0.381 N 
ATOM     19  H   LIG d   1       5.273  89.628 114.233  0.00  0.00    -0.090 HD
ATOM     20  H   LIG d   1       5.960  88.246 114.745  0.00  0.00    -0.090 HD
ATOM     21  H   LIG d   1       6.632  89.687 115.139  0.00  0.00    -0.090 HD
ENDBRANCH   5  18
BRANCH   3  22
ATOM     22  C   LIG d   1       4.631  91.738 118.887  0.00  0.00     0.382 C 
ATOM     23  O   LIG d   1       3.781  92.274 119.639  0.00  0.00    -0.241 OA
ATOM     24  O   LIG d   1       5.831  92.052 118.997  0.00  0.00    -0.241 OA
ENDBRANCH   3  22
TORSDOF 7
ENDMDL
MODEL 5
REMARK VINA RESULT:      -4.2      4.786      7.425
REMARK  7 active torsions:
REMARK  status: ('A' for Active; 'I' for Inactive)
REMARK    1  A    between atoms: C_2  and  C_3 
REMARK    2  A    between atoms: C_3  and  O_6 
REMARK    3  A    between atoms: C_3  and  C_4 
REMARK    4  A    between atoms: C_7  and  O_6 
REMARK    5  A    between atoms: C_9  and  C_10 
REMARK    6  A    between atoms: N_15  and  C_14 
REMARK    7  A    between atoms: N_20  and  C_19 
REMARK       I    between atoms: C_22  and  N_20 
ROOT
ATOM      1  C   LIG d   1       0.964  90.049 117.896  0.00  0.00     0.161 C 
ATOM      2  C   LIG d   1      -0.403  89.786 117.706  0.00  0.00     0.016 C 
ATOM      3  C   LIG d   1      -1.426  90.697 118.055  0.00  0.00     0.038 C 
ATOM      4  C   LIG d   1      -1.143  92.003 118.481  0.00  0.00     0.028 C 
ATOM      5  C   LIG d   1       0.213  92.135 119.166  0.00  0.00    -0.047 C 
ATOM      6  C   LIG d   1       1.297  91.511 118.257  0.00  0.00     0.091 C 
ENDROOT
BRANCH   1   7
ATOM      7  O   LIG d   1       1.707  89.638 116.732  0.00  0.00    -0.368 OA
BRANCH   7   8
ATOM      8  C   LIG d   1       2.267  88.302 116.771  0.00  0.00     0.119 C 
BRANCH   8   9
ATOM      9  C   LIG d   1       2.838  88.081 118.186  0.00  0.00     0.028 C 
ATOM     10  C   LIG d   1       4.376  88.063 118.202  0.00  0.00     0.006 C 
ENDBRANCH   8   9
BRANCH   8  11
ATOM     11  C   LIG d   1       3.465  88.172 115.826  0.00  0.00     0.028 C 
ATOM     12  C   LIG d   1       3.064  87.713 114.415  0.00  0.00     0.006 C 
ENDBRANCH   8  11
ENDBRANCH   7   8
ENDBRANCH   1   7
BRANCH   6  13
ATOM     13  N   LIG d   1       2.642  91.524 118.889  0.00  0.00    -0.311 N 
ATOM     14  C   LIG d   1       3.766  91.763 118.216  0.00  0.00     0.210 C 
ATOM     15  C   LIG d   1       5.047  91.708 119.055  0.00  0.00     0.109 C 
ATOM     16  O   LIG d   1       3.822  92.047 117.010  0.00  0.00    -0.276 OA
ATOM     17  H   LIG d   1       2.687  91.334 119.871  0.00  0.00     0.149 HD
ENDBRANCH   6  13
BRANCH   5  18
ATOM     18  N   LIG d   1       0.439  93.568 119.434  0.00  0.00     0.381 N 
ATOM     19  H   LIG d   1       0.459  93.729 120.422  0.00  0.00    -0.090 HD
ATOM     20  H   LIG d   1      -0.323  94.096 119.045  0.00  0.00    -0.090 HD
ATOM     21  H   LIG d   1       1.299  93.861 119.025  0.00  0.00    -0.090 HD
ENDBRANCH   5  18
BRANCH   3  22
ATOM     22  C   LIG d   1      -2.751  90.290 118.016  0.00  0.00     0.382 C 
ATOM     23  O   LIG d   1      -3.040  89.079 118.172  0.00  0.00    -0.241 OA
ATOM     24  O   LIG d   1      -3.658  91.111 117.782  0.00  0.00    -0.241 OA
ENDBRANCH   3  22
TORSDOF 7
ENDMDL
MODEL 6
REMARK VINA RESULT:      -4.2      5.852      8.534
REMARK  7 active torsions:
REMARK  status: ('A' for Active; 'I' for Inactive)
REMARK    1  A    between atoms: C_2  and  C_3 
REMARK    2  A    between atoms: C_3  and  O_6 
REMARK    3  A    between atoms: C_3  and  C_4 
REMARK    4  A    between atoms: C_7  and  O_6 
REMARK    5  A    between atoms: C_9  and  C_10 
REMARK    6  A    between atoms: N_15  and  C_14 
REMARK    7  A    between atoms: N_20  and  C_19 
REMARK       I    between atoms: C_22  and  N_20 
ROOT
ATOM      1  C   LIG d   1       1.482  88.332 117.384  0.00  0.00     0.161 C 
ATOM      2  C   LIG d   1       0.121  88.048 117.584  0.00  0.00     0.016 C 
ATOM      3  C   LIG d   1      -0.772  88.934 118.230  0.00  0.00     0.038 C 
ATOM      4  C   LIG d   1      -0.395  90.237 118.588  0.00  0.00     0.028 C 
ATOM      5  C   LIG d   1       1.099  90.382 118.861  0.00  0.00    -0.047 C 
ATOM      6  C   LIG d   1       1.886  89.794 117.668  0.00  0.00     0.091 C 
ENDROOT
BRANCH   1   7
ATOM      7  O   LIG d   1       1.868  87.957 116.047  0.00  0.00    -0.368 OA
BRANCH   7   8
ATOM      8  C   LIG d   1       2.709  86.782 115.932  0.00  0.00     0.119 C 
BRANCH   8   9
ATOM      9  C   LIG d   1       3.801  87.094 114.892  0.00  0.00     0.028 C 
ATOM     10  C   LIG d   1       3.828  88.580 114.497  0.00  0.00     0.006 C 
ENDBRANCH   8   9
BRANCH   8  11
ATOM     11  C   LIG d   1       1.930  85.594 115.359  0.00  0.00     0.028 C 
ATOM     12  C   LIG d   1       1.299  85.899 113.991  0.00  0.00     0.006 C 
ENDBRANCH   8  11
ENDBRANCH   7   8
ENDBRANCH   1   7
BRANCH   6  13
ATOM     13  N   LIG d   1       3.355  89.820 117.891  0.00  0.00    -0.311 N 
ATOM     14  C   LIG d   1       4.139  90.822 117.498  0.00  0.00     0.210 C 
ATOM     15  C   LIG d   1       5.628  90.639 117.809  0.00  0.00     0.109 C 
ATOM     16  O   LIG d   1       3.739  91.861 116.951  0.00  0.00    -0.276 OA
ATOM     17  H   LIG d   1       3.760  89.031 118.356  0.00  0.00     0.149 HD
ENDBRANCH   6  13
BRANCH   5  18
ATOM     18  N   LIG d   1       1.373  91.813 119.087  0.00  0.00     0.381 N 
ATOM     19  H   LIG d   1       1.924  91.926 119.915  0.00  0.00    -0.090 HD
ATOM     20  H   LIG d   1       0.502  92.295 119.220  0.00  0.00    -0.090 HD
ATOM     21  H   LIG d   1       1.856  92.195 118.304  0.00  0.00    -0.090 HD
ENDBRANCH   5  18
BRANCH   3  22
ATOM     22  C   LIG d   1      -2.048  88.503 118.561  0.00  0.00     0.382 C 
ATOM     23  O   LIG d   1      -2.199  87.533 119.342  0.00  0.00    -0.241 OA
ATOM     24  O   LIG d   1      -3.048  89.044 118.053  0.00  0.00    -0.241 OA
ENDBRANCH   3  22
TORSDOF 7
ENDMDL
MODEL 7
REMARK VINA RESULT:      -4.1      8.482     11.058
REMARK  7 active torsions:
REMARK  status: ('A' for Active; 'I' for Inactive)
REMARK    1  A    between atoms: C_2  and  C_3 
REMARK    2  A    between atoms: C_3  and  O_6 
REMARK    3  A    between atoms: C_3  and  C_4 
REMARK    4  A    between atoms: C_7  and  O_6 
REMARK    5  A    between atoms: C_9  and  C_10 
REMARK    6  A    between atoms: N_15  and  C_14 
REMARK    7  A    between atoms: N_20  and  C_19 
REMARK       I    between atoms: C_22  and  N_20 
ROOT
ATOM      1  C   LIG d   1       4.780  89.886 115.745  0.00  0.00     0.161 C 
ATOM      2  C   LIG d   1       3.759  89.161 115.109  0.00  0.00     0.016 C 
ATOM      3  C   LIG d   1       3.707  87.749 115.083  0.00  0.00     0.038 C 
ATOM      4  C   LIG d   1       4.598  86.960 115.826  0.00  0.00     0.028 C 
ATOM      5  C   LIG d   1       5.944  87.635 116.071  0.00  0.00    -0.047 C 
ATOM      6  C   LIG d   1       5.700  89.045 116.655  0.00  0.00     0.091 C 
ENDROOT
BRANCH   1   7
ATOM      7  O   LIG d   1       4.212  90.985 116.485  0.00  0.00    -0.368 OA
BRANCH   7   8
ATOM      8  C   LIG d   1       3.493  90.635 117.693  0.00  0.00     0.119 C 
BRANCH   8   9
ATOM      9  C   LIG d   1       2.030  91.080 117.506  0.00  0.00     0.028 C 
ATOM     10  C   LIG d   1       1.557  92.026 118.623  0.00  0.00     0.006 C 
ENDBRANCH   8   9
BRANCH   8  11
ATOM     11  C   LIG d   1       4.008  91.429 118.897  0.00  0.00     0.028 C 
ATOM     12  C   LIG d   1       5.132  92.410 118.528  0.00  0.00     0.006 C 
ENDBRANCH   8  11
ENDBRANCH   7   8
ENDBRANCH   1   7
BRANCH   6  13
ATOM     13  N   LIG d   1       6.962  89.806 116.845  0.00  0.00    -0.311 N 
ATOM     14  C   LIG d   1       7.627  89.846 117.998  0.00  0.00     0.210 C 
ATOM     15  C   LIG d   1       8.895  90.706 117.984  0.00  0.00     0.109 C 
ATOM     16  O   LIG d   1       7.305  89.225 119.022  0.00  0.00    -0.276 OA
ATOM     17  H   LIG d   1       7.312  90.314 116.056  0.00  0.00     0.149 HD
ENDBRANCH   6  13
BRANCH   5  18
ATOM     18  N   LIG d   1       6.722  86.763 116.971  0.00  0.00     0.381 N 
ATOM     19  H   LIG d   1       6.290  86.736 117.873  0.00  0.00    -0.090 HD
ATOM     20  H   LIG d   1       7.645  87.145 117.075  0.00  0.00    -0.090 HD
ATOM     21  H   LIG d   1       6.775  85.843 116.593  0.00  0.00    -0.090 HD
ENDBRANCH   5  18
BRANCH   3  22
ATOM     22  C   LIG d   1       2.779  87.110 114.275  0.00  0.00     0.382 C 
ATOM     23  O   LIG d   1       2.622  85.868 114.361  0.00  0.00    -0.241 OA
ATOM     24  O   LIG d   1       2.128  87.753 113.430  0.00  0.00    -0.241 OA
ENDBRANCH   3  22
TORSDOF 7
ENDMDL
MODEL 8
REMARK VINA RESULT:      -4.0      4.744      7.476
REMARK  7 active torsions:
REMARK  status: ('A' for Active; 'I' for Inactive)
REMARK    1  A    between atoms: C_2  and  C_3 
REMARK    2  A    between atoms: C_3  and  O_6 
REMARK    3  A    between atoms: C_3  and  C_4 
REMARK    4  A    between atoms: C_7  and  O_6 
REMARK    5  A    between atoms: C_9  and  C_10 
REMARK    6  A    between atoms: N_15  and  C_14 
REMARK    7  A    between atoms: N_20  and  C_19 
REMARK       I    between atoms: C_22  and  N_20 
ROOT
ATOM      1  C   LIG d   1       0.960  89.981 117.943  0.00  0.00     0.161 C 
ATOM      2  C   LIG d   1      -0.404  89.711 117.748  0.00  0.00     0.016 C 
ATOM      3  C   LIG d   1      -1.431  90.638 118.041  0.00  0.00     0.038 C 
ATOM      4  C   LIG d   1      -1.151  91.963 118.407  0.00  0.00     0.028 C 
ATOM      5  C   LIG d   1       0.197  92.127 119.101  0.00  0.00    -0.047 C 
ATOM      6  C   LIG d   1       1.291  91.460 118.237  0.00  0.00     0.091 C 
ENDROOT
BRANCH   1   7
ATOM      7  O   LIG d   1       1.717  89.515 116.808  0.00  0.00    -0.368 OA
BRANCH   7   8
ATOM      8  C   LIG d   1       2.749  88.537 117.089  0.00  0.00     0.119 C 
BRANCH   8   9
ATOM      9  C   LIG d   1       2.604  87.401 116.058  0.00  0.00     0.028 C 
ATOM     10  C   LIG d   1       3.051  87.827 114.649  0.00  0.00     0.006 C 
ENDBRANCH   8   9
BRANCH   8  11
ATOM     11  C   LIG d   1       2.534  87.876 118.454  0.00  0.00     0.028 C 
ATOM     12  C   LIG d   1       3.758  88.000 119.375  0.00  0.00     0.006 C 
ENDBRANCH   8  11
ENDBRANCH   7   8
ENDBRANCH   1   7
BRANCH   6  13
ATOM     13  N   LIG d   1       2.629  91.501 118.883  0.00  0.00    -0.311 N 
ATOM     14  C   LIG d   1       3.753  91.777 118.225  0.00  0.00     0.210 C 
ATOM     15  C   LIG d   1       5.025  91.748 119.078  0.00  0.00     0.109 C 
ATOM     16  O   LIG d   1       3.814  92.075 117.022  0.00  0.00    -0.276 OA
ATOM     17  H   LIG d   1       2.668  91.303 119.864  0.00  0.00     0.149 HD
ENDBRANCH   6  13
BRANCH   5  18
ATOM     18  N   LIG d   1       0.421  93.571 119.303  0.00  0.00     0.381 N 
ATOM     19  H   LIG d   1       0.009  93.860 120.168  0.00  0.00    -0.090 HD
ATOM     20  H   LIG d   1      -0.023  94.077 118.557  0.00  0.00    -0.090 HD
ATOM     21  H   LIG d   1       1.398  93.767 119.311  0.00  0.00    -0.090 HD
ENDBRANCH   5  18
BRANCH   3  22
ATOM     22  C   LIG d   1      -2.756  90.231 118.005  0.00  0.00     0.382 C 
ATOM     23  O   LIG d   1      -3.043  89.019 118.163  0.00  0.00    -0.241 OA
ATOM     24  O   LIG d   1      -3.663  91.052 117.774  0.00  0.00    -0.241 OA
ENDBRANCH   3  22
TORSDOF 7
ENDMDL
MODEL 9
REMARK VINA RESULT:      -4.0      6.228      8.925
REMARK  7 active torsions:
REMARK  status: ('A' for Active; 'I' for Inactive)
REMARK    1  A    between atoms: C_2  and  C_3 
REMARK    2  A    between atoms: C_3  and  O_6 
REMARK    3  A    between atoms: C_3  and  C_4 
REMARK    4  A    between atoms: C_7  and  O_6 
REMARK    5  A    between atoms: C_9  and  C_10 
REMARK    6  A    between atoms: N_15  and  C_14 
REMARK    7  A    between atoms: N_20  and  C_19 
REMARK       I    between atoms: C_22  and  N_20 
ROOT
ATOM      1  C   LIG d   1       2.201  90.197 117.331  0.00  0.00     0.161 C 
ATOM      2  C   LIG d   1       2.686  89.479 116.225  0.00  0.00     0.016 C 
ATOM      3  C   LIG d   1       4.031  89.528 115.793  0.00  0.00     0.038 C 
ATOM      4  C   LIG d   1       5.024  90.187 116.535  0.00  0.00     0.028 C 
ATOM      5  C   LIG d   1       4.486  91.340 117.376  0.00  0.00    -0.047 C 
ATOM      6  C   LIG d   1       3.292  90.833 118.217  0.00  0.00     0.091 C 
ENDROOT
BRANCH   1   7
ATOM      7  O   LIG d   1       1.341  89.354 118.122  0.00  0.00    -0.368 OA
BRANCH   7   8
ATOM      8  C   LIG d   1      -0.083  89.532 117.923  0.00  0.00     0.119 C 
BRANCH   8   9
ATOM      9  C   LIG d   1      -0.612  90.380 119.096  0.00  0.00     0.028 C 
ATOM     10  C   LIG d   1      -0.964  91.815 118.670  0.00  0.00     0.006 C 
ENDBRANCH   8   9
BRANCH   8  11
ATOM     11  C   LIG d   1      -0.830  88.198 118.019  0.00  0.00     0.028 C 
ATOM     12  C   LIG d   1      -2.303  88.367 118.422  0.00  0.00     0.006 C 
ENDBRANCH   8  11
ENDBRANCH   7   8
ENDBRANCH   1   7
BRANCH   6  13
ATOM     13  N   LIG d   1       2.654  91.918 119.007  0.00  0.00    -0.311 N 
ATOM     14  C   LIG d   1       2.960  92.178 120.277  0.00  0.00     0.210 C 
ATOM     15  C   LIG d   1       2.170  93.327 120.911  0.00  0.00     0.109 C 
ATOM     16  O   LIG d   1       3.834  91.586 120.929  0.00  0.00    -0.276 OA
ATOM     17  H   LIG d   1       1.956  92.468 118.546  0.00  0.00     0.149 HD
ENDBRANCH   6  13
BRANCH   5  18
ATOM     18  N   LIG d   1       5.600  91.847 118.200  0.00  0.00     0.381 N 
ATOM     19  H   LIG d   1       6.318  91.152 118.264  0.00  0.00    -0.090 HD
ATOM     20  H   LIG d   1       5.260  92.034 119.127  0.00  0.00    -0.090 HD
ATOM     21  H   LIG d   1       5.969  92.680 117.799  0.00  0.00    -0.090 HD
ENDBRANCH   5  18
BRANCH   3  22
ATOM     22  C   LIG d   1       4.388  88.947 114.586  0.00  0.00     0.382 C 
ATOM     23  O   LIG d   1       4.567  87.708 114.516  0.00  0.00    -0.241 OA
ATOM     24  O   LIG d   1       4.575  89.653 113.577  0.00  0.00    -0.241 OA
ENDBRANCH   3  22
TORSDOF 7
ENDMDL
