MODEL 1
REMARK VINA RESULT:      -5.1      0.000      0.000
REMARK  7 active torsions:
REMARK  status: ('A' for Active; 'I' for Inactive)
REMARK    1  A    between atoms: C_2  and  C_3 
REMARK    2  A    between atoms: C_3  and  O_6 
REMARK    3  A    between atoms: C_3  and  C_4 
REMARK    4  A    between atoms: C_7  and  O_6 
REMARK    5  A    between atoms: C_9  and  C_10 
REMARK    6  A    between atoms: N_15  and  C_14 
REMARK    7  A    between atoms: N_20  and  C_19 
REMARK       I    between atoms: C_22  and  N_20 
ROOT
ATOM      1  C   LIG d   1      -4.284  92.961 119.042  0.00  0.00     0.161 C 
ATOM      2  C   LIG d   1      -5.362  92.700 118.180  0.00  0.00     0.016 C 
ATOM      3  C   LIG d   1      -5.334  91.699 117.181  0.00  0.00     0.038 C 
ATOM      4  C   LIG d   1      -4.275  90.785 117.077  0.00  0.00     0.028 C 
ATOM      5  C   LIG d   1      -2.950  91.331 117.596  0.00  0.00    -0.047 C 
ATOM      6  C   LIG d   1      -3.163  91.901 119.017  0.00  0.00     0.091 C 
ENDROOT
BRANCH   1   7
ATOM      7  O   LIG d   1      -4.769  93.147 120.387  0.00  0.00    -0.368 OA
BRANCH   7   8
ATOM      8  C   LIG d   1      -4.689  94.494 120.913  0.00  0.00     0.119 C 
BRANCH   8   9
ATOM      9  C   LIG d   1      -6.118  95.070 120.929  0.00  0.00     0.028 C 
ATOM     10  C   LIG d   1      -6.400  95.974 119.717  0.00  0.00     0.006 C 
ENDBRANCH   8   9
BRANCH   8  11
ATOM     11  C   LIG d   1      -3.892  95.411 119.980  0.00  0.00     0.028 C 
ATOM     12  C   LIG d   1      -2.619  95.968 120.636  0.00  0.00     0.006 C 
ENDBRANCH   8  11
ENDBRANCH   7   8
ENDBRANCH   1   7
BRANCH   6  13
ATOM     13  N   LIG d   1      -1.935  92.532 119.566  0.00  0.00    -0.311 N 
ATOM     14  C   LIG d   1      -1.068  91.891 120.348  0.00  0.00     0.210 C 
ATOM     15  C   LIG d   1       0.122  92.732 120.820  0.00  0.00     0.109 C 
ATOM     16  O   LIG d   1      -1.155  90.696 120.669  0.00  0.00    -0.276 OA
ATOM     17  H   LIG d   1      -1.770  93.491 119.330  0.00  0.00     0.149 HD
ENDBRANCH   6  13
BRANCH   5  18
ATOM     18  N   LIG d   1      -1.968  90.231 117.556  0.00  0.00     0.381 N 
ATOM     19  H   LIG d   1      -1.263  90.381 118.250  0.00  0.00    -0.090 HD
ATOM     20  H   LIG d   1      -1.525  90.223 116.654  0.00  0.00    -0.090 HD
ATOM     21  H   LIG d   1      -2.424  89.361 117.718  0.00  0.00    -0.090 HD
ENDBRANCH   5  18
BRANCH   3  22
ATOM     22  C   LIG d   1      -6.357  91.632 116.248  0.00  0.00     0.382 C 
ATOM     23  O   LIG d   1      -7.315  90.841 116.423  0.00  0.00    -0.241 OA
ATOM     24  O   LIG d   1      -6.311  92.319 115.210  0.00  0.00    -0.241 OA
ENDBRANCH   3  22
TORSDOF 7
ENDMDL
MODEL 2
REMARK VINA RESULT:      -5.0      2.710      6.323
REMARK  7 active torsions:
REMARK  status: ('A' for Active; 'I' for Inactive)
REMARK    1  A    between atoms: C_2  and  C_3 
REMARK    2  A    between atoms: C_3  and  O_6 
REMARK    3  A    between atoms: C_3  and  C_4 
REMARK    4  A    between atoms: C_7  and  O_6 
REMARK    5  A    between atoms: C_9  and  C_10 
REMARK    6  A    between atoms: N_15  and  C_14 
REMARK    7  A    between atoms: N_20  and  C_19 
REMARK       I    between atoms: C_22  and  N_20 
ROOT
ATOM      1  C   LIG d   1      -3.595  91.230 117.485  0.00  0.00     0.161 C 
ATOM      2  C   LIG d   1      -2.894  91.921 118.486  0.00  0.00     0.016 C 
ATOM      3  C   LIG d   1      -3.471  92.942 119.277  0.00  0.00     0.038 C 
ATOM      4  C   LIG d   1      -4.841  93.237 119.222  0.00  0.00     0.028 C 
ATOM      5  C   LIG d   1      -5.476  92.914 117.873  0.00  0.00    -0.047 C 
ATOM      6  C   LIG d   1      -5.120  91.461 117.486  0.00  0.00     0.091 C 
ENDROOT
BRANCH   1   7
ATOM      7  O   LIG d   1      -3.302  89.821 117.567  0.00  0.00    -0.368 OA
BRANCH   7   8
ATOM      8  C   LIG d   1      -2.194  89.449 118.424  0.00  0.00     0.119 C 
BRANCH   8   9
ATOM      9  C   LIG d   1      -0.991  89.133 117.514  0.00  0.00     0.028 C 
ATOM     10  C   LIG d   1       0.182  90.104 117.733  0.00  0.00     0.006 C 
ENDBRANCH   8   9
BRANCH   8  11
ATOM     11  C   LIG d   1      -2.485  88.149 119.179  0.00  0.00     0.028 C 
ATOM     12  C   LIG d   1      -1.221  87.312 119.433  0.00  0.00     0.006 C 
ENDBRANCH   8  11
ENDBRANCH   7   8
ENDBRANCH   1   7
BRANCH   6  13
ATOM     13  N   LIG d   1      -5.632  91.091 116.140  0.00  0.00    -0.311 N 
ATOM     14  C   LIG d   1      -6.837  90.563 115.934  0.00  0.00     0.210 C 
ATOM     15  C   LIG d   1      -7.159  90.238 114.472  0.00  0.00     0.109 C 
ATOM     16  O   LIG d   1      -7.683  90.364 116.819  0.00  0.00    -0.276 OA
ATOM     17  H   LIG d   1      -5.023  91.249 115.362  0.00  0.00     0.149 HD
ENDBRANCH   6  13
BRANCH   5  18
ATOM     18  N   LIG d   1      -6.928  93.140 117.999  0.00  0.00     0.381 N 
ATOM     19  H   LIG d   1      -7.235  92.870 118.912  0.00  0.00    -0.090 HD
ATOM     20  H   LIG d   1      -7.406  92.569 117.324  0.00  0.00    -0.090 HD
ATOM     21  H   LIG d   1      -7.139  94.101 117.840  0.00  0.00    -0.090 HD
ENDBRANCH   5  18
BRANCH   3  22
ATOM     22  C   LIG d   1      -2.665  93.706 120.107  0.00  0.00     0.382 C 
ATOM     23  O   LIG d   1      -1.901  93.146 120.929  0.00  0.00    -0.241 OA
ATOM     24  O   LIG d   1      -2.726  94.950 120.075  0.00  0.00    -0.241 OA
ENDBRANCH   3  22
TORSDOF 7
ENDMDL
MODEL 3
REMARK VINA RESULT:      -5.0      2.648      4.537
REMARK  7 active torsions:
REMARK  status: ('A' for Active; 'I' for Inactive)
REMARK    1  A    between atoms: C_2  and  C_3 
REMARK    2  A    between atoms: C_3  and  O_6 
REMARK    3  A    between atoms: C_3  and  C_4 
REMARK    4  A    between atoms: C_7  and  O_6 
REMARK    5  A    between atoms: C_9  and  C_10 
REMARK    6  A    between atoms: N_15  and  C_14 
REMARK    7  A    between atoms: N_20  and  C_19 
REMARK       I    between atoms: C_22  and  N_20 
ROOT
ATOM      1  C   LIG d   1      -3.876  93.043 120.169  0.00  0.00     0.161 C 
ATOM      2  C   LIG d   1      -3.052  92.071 119.580  0.00  0.00     0.016 C 
ATOM      3  C   LIG d   1      -3.338  91.457 118.339  0.00  0.00     0.038 C 
ATOM      4  C   LIG d   1      -4.397  91.886 117.525  0.00  0.00     0.028 C 
ATOM      5  C   LIG d   1      -5.545  92.514 118.308  0.00  0.00    -0.047 C 
ATOM      6  C   LIG d   1      -4.977  93.605 119.245  0.00  0.00     0.091 C 
ENDROOT
BRANCH   1   7
ATOM      7  O   LIG d   1      -3.069  94.115 120.695  0.00  0.00    -0.368 OA
BRANCH   7   8
ATOM      8  C   LIG d   1      -2.639  95.116 119.740  0.00  0.00     0.119 C 
BRANCH   8   9
ATOM      9  C   LIG d   1      -1.099  95.082 119.694  0.00  0.00     0.028 C 
ATOM     10  C   LIG d   1      -0.564  94.502 118.374  0.00  0.00     0.006 C 
ENDBRANCH   8   9
BRANCH   8  11
ATOM     11  C   LIG d   1      -2.999  96.528 120.213  0.00  0.00     0.028 C 
ATOM     12  C   LIG d   1      -3.497  97.429 119.072  0.00  0.00     0.006 C 
ENDBRANCH   8  11
ENDBRANCH   7   8
ENDBRANCH   1   7
BRANCH   6  13
ATOM     13  N   LIG d   1      -6.023  94.211 120.109  0.00  0.00    -0.311 N 
ATOM     14  C   LIG d   1      -6.733  95.283 119.758  0.00  0.00     0.210 C 
ATOM     15  C   LIG d   1      -7.746  95.758 120.804  0.00  0.00     0.109 C 
ATOM     16  O   LIG d   1      -6.641  95.865 118.667  0.00  0.00    -0.276 OA
ATOM     17  H   LIG d   1      -6.185  93.783 120.999  0.00  0.00     0.149 HD
ENDBRANCH   6  13
BRANCH   5  18
ATOM     18  N   LIG d   1      -6.516  93.041 117.330  0.00  0.00     0.381 N 
ATOM     19  H   LIG d   1      -6.137  92.974 116.407  0.00  0.00    -0.090 HD
ATOM     20  H   LIG d   1      -6.687  94.010 117.531  0.00  0.00    -0.090 HD
ATOM     21  H   LIG d   1      -7.368  92.527 117.385  0.00  0.00    -0.090 HD
ENDBRANCH   5  18
BRANCH   3  22
ATOM     22  C   LIG d   1      -2.582  90.373 117.918  0.00  0.00     0.382 C 
ATOM     23  O   LIG d   1      -3.086  89.224 117.907  0.00  0.00    -0.241 OA
ATOM     24  O   LIG d   1      -1.390  90.523 117.591  0.00  0.00    -0.241 OA
ENDBRANCH   3  22
TORSDOF 7
ENDMDL
MODEL 4
REMARK VINA RESULT:      -4.7      4.100      7.460
REMARK  7 active torsions:
REMARK  status: ('A' for Active; 'I' for Inactive)
REMARK    1  A    between atoms: C_2  and  C_3 
REMARK    2  A    between atoms: C_3  and  O_6 
REMARK    3  A    between atoms: C_3  and  C_4 
REMARK    4  A    between atoms: C_7  and  O_6 
REMARK    5  A    between atoms: C_9  and  C_10 
REMARK    6  A    between atoms: N_15  and  C_14 
REMARK    7  A    between atoms: N_20  and  C_19 
REMARK       I    between atoms: C_22  and  N_20 
ROOT
ATOM      1  C   LIG d   1       0.041  90.200 116.878  0.00  0.00     0.161 C 
ATOM      2  C   LIG d   1       1.439  90.118 116.778  0.00  0.00     0.016 C 
ATOM      3  C   LIG d   1       2.319  91.035 117.398  0.00  0.00     0.038 C 
ATOM      4  C   LIG d   1       1.860  92.015 118.290  0.00  0.00     0.028 C 
ATOM      5  C   LIG d   1       0.423  92.451 118.024  0.00  0.00    -0.047 C 
ATOM      6  C   LIG d   1      -0.475  91.196 117.938  0.00  0.00     0.091 C 
ENDROOT
BRANCH   1   7
ATOM      7  O   LIG d   1      -0.510  88.889 117.113  0.00  0.00    -0.368 OA
BRANCH   7   8
ATOM      8  C   LIG d   1      -0.647  88.494 118.500  0.00  0.00     0.119 C 
BRANCH   8   9
ATOM      9  C   LIG d   1       0.219  87.237 118.712  0.00  0.00     0.028 C 
ATOM     10  C   LIG d   1       0.557  86.528 117.389  0.00  0.00     0.006 C 
ENDBRANCH   8   9
BRANCH   8  11
ATOM     11  C   LIG d   1      -2.080  88.057 118.817  0.00  0.00     0.028 C 
ATOM     12  C   LIG d   1      -2.157  87.076 119.998  0.00  0.00     0.006 C 
ENDBRANCH   8  11
ENDBRANCH   7   8
ENDBRANCH   1   7
BRANCH   6  13
ATOM     13  N   LIG d   1      -1.883  91.528 117.596  0.00  0.00    -0.311 N 
ATOM     14  C   LIG d   1      -2.841  91.684 118.508  0.00  0.00     0.210 C 
ATOM     15  C   LIG d   1      -4.227  92.004 117.940  0.00  0.00     0.109 C 
ATOM     16  O   LIG d   1      -2.668  91.619 119.734  0.00  0.00    -0.276 OA
ATOM     17  H   LIG d   1      -2.104  91.629 116.625  0.00  0.00     0.149 HD
ENDBRANCH   6  13
BRANCH   5  18
ATOM     18  N   LIG d   1       0.028  93.371 119.108  0.00  0.00     0.381 N 
ATOM     19  H   LIG d   1       0.414  93.057 119.976  0.00  0.00    -0.090 HD
ATOM     20  H   LIG d   1      -0.974  93.367 119.189  0.00  0.00    -0.090 HD
ATOM     21  H   LIG d   1       0.349  94.292 118.907  0.00  0.00    -0.090 HD
ENDBRANCH   5  18
BRANCH   3  22
ATOM     22  C   LIG d   1       3.672  91.002 117.095  0.00  0.00     0.382 C 
ATOM     23  O   LIG d   1       4.258  89.901 116.964  0.00  0.00    -0.241 OA
ATOM     24  O   LIG d   1       4.323  92.059 116.995  0.00  0.00    -0.241 OA
ENDBRANCH   3  22
TORSDOF 7
ENDMDL
MODEL 5
REMARK VINA RESULT:      -4.4      4.064      6.460
REMARK  7 active torsions:
REMARK  status: ('A' for Active; 'I' for Inactive)
REMARK    1  A    between atoms: C_2  and  C_3 
REMARK    2  A    between atoms: C_3  and  O_6 
REMARK    3  A    between atoms: C_3  and  C_4 
REMARK    4  A    between atoms: C_7  and  O_6 
REMARK    5  A    between atoms: C_9  and  C_10 
REMARK    6  A    between atoms: N_15  and  C_14 
REMARK    7  A    between atoms: N_20  and  C_19 
REMARK       I    between atoms: C_22  and  N_20 
ROOT
ATOM      1  C   LIG d   1       0.754  90.501 118.988  0.00  0.00     0.161 C 
ATOM      2  C   LIG d   1       1.806  91.029 118.221  0.00  0.00     0.016 C 
ATOM      3  C   LIG d   1       2.320  90.397 117.065  0.00  0.00     0.038 C 
ATOM      4  C   LIG d   1       1.713  89.262 116.509  0.00  0.00     0.028 C 
ATOM      5  C   LIG d   1       0.966  88.412 117.531  0.00  0.00    -0.047 C 
ATOM      6  C   LIG d   1       0.006  89.320 118.334  0.00  0.00     0.091 C 
ENDROOT
BRANCH   1   7
ATOM      7  O   LIG d   1      -0.171  91.549 119.336  0.00  0.00    -0.368 OA
BRANCH   7   8
ATOM      8  C   LIG d   1      -1.161  91.885 118.333  0.00  0.00     0.119 C 
BRANCH   8   9
ATOM      9  C   LIG d   1      -0.891  93.333 117.883  0.00  0.00     0.028 C 
ATOM     10  C   LIG d   1      -0.167  94.158 118.961  0.00  0.00     0.006 C 
ENDBRANCH   8   9
BRANCH   8  11
ATOM     11  C   LIG d   1      -2.573  91.902 118.927  0.00  0.00     0.028 C 
ATOM     12  C   LIG d   1      -3.663  91.620 117.880  0.00  0.00     0.006 C 
ENDBRANCH   8  11
ENDBRANCH   7   8
ENDBRANCH   1   7
BRANCH   6  13
ATOM     13  N   LIG d   1      -0.702  88.583 119.413  0.00  0.00    -0.311 N 
ATOM     14  C   LIG d   1      -1.949  88.130 119.294  0.00  0.00     0.210 C 
ATOM     15  C   LIG d   1      -2.497  87.415 120.533  0.00  0.00     0.109 C 
ATOM     16  O   LIG d   1      -2.642  88.225 118.270  0.00  0.00    -0.276 OA
ATOM     17  H   LIG d   1      -0.203  88.435 120.267  0.00  0.00     0.149 HD
ENDBRANCH   6  13
BRANCH   5  18
ATOM     18  N   LIG d   1       0.268  87.340 116.796  0.00  0.00     0.381 N 
ATOM     19  H   LIG d   1      -0.714  87.532 116.769  0.00  0.00    -0.090 HD
ATOM     20  H   LIG d   1       0.407  86.471 117.279  0.00  0.00    -0.090 HD
ATOM     21  H   LIG d   1       0.626  87.274 115.868  0.00  0.00    -0.090 HD
ENDBRANCH   5  18
BRANCH   3  22
ATOM     22  C   LIG d   1       3.479  90.879 116.476  0.00  0.00     0.382 C 
ATOM     23  O   LIG d   1       4.041  91.900 116.942  0.00  0.00    -0.241 OA
ATOM     24  O   LIG d   1       3.945  90.333 115.458  0.00  0.00    -0.241 OA
ENDBRANCH   3  22
TORSDOF 7
ENDMDL
MODEL 6
REMARK VINA RESULT:      -4.3      6.200      9.538
REMARK  7 active torsions:
REMARK  status: ('A' for Active; 'I' for Inactive)
REMARK    1  A    between atoms: C_2  and  C_3 
REMARK    2  A    between atoms: C_3  and  O_6 
REMARK    3  A    between atoms: C_3  and  C_4 
REMARK    4  A    between atoms: C_7  and  O_6 
REMARK    5  A    between atoms: C_9  and  C_10 
REMARK    6  A    between atoms: N_15  and  C_14 
REMARK    7  A    between atoms: N_20  and  C_19 
REMARK       I    between atoms: C_22  and  N_20 
ROOT
ATOM      1  C   LIG d   1       3.685  91.155 118.108  0.00  0.00     0.161 C 
ATOM      2  C   LIG d   1       4.355  91.898 119.094  0.00  0.00     0.016 C 
ATOM      3  C   LIG d   1       5.764  91.974 119.189  0.00  0.00     0.038 C 
ATOM      4  C   LIG d   1       6.603  91.429 118.205  0.00  0.00     0.028 C 
ATOM      5  C   LIG d   1       5.986  90.244 117.470  0.00  0.00    -0.047 C 
ATOM      6  C   LIG d   1       4.583  90.645 116.961  0.00  0.00     0.091 C 
ENDROOT
BRANCH   1   7
ATOM      7  O   LIG d   1       2.586  91.922 117.581  0.00  0.00    -0.368 OA
BRANCH   7   8
ATOM      8  C   LIG d   1       1.286  91.657 118.163  0.00  0.00     0.119 C 
BRANCH   8   9
ATOM      9  C   LIG d   1       0.397  91.054 117.057  0.00  0.00     0.028 C 
ATOM     10  C   LIG d   1       0.284  89.524 117.165  0.00  0.00     0.006 C 
ENDBRANCH   8   9
BRANCH   8  11
ATOM     11  C   LIG d   1       0.587  92.954 118.582  0.00  0.00     0.028 C 
ATOM     12  C   LIG d   1      -0.694  93.227 117.779  0.00  0.00     0.006 C 
ENDBRANCH   8  11
ENDBRANCH   7   8
ENDBRANCH   1   7
BRANCH   6  13
ATOM     13  N   LIG d   1       3.874  89.516 116.303  0.00  0.00    -0.311 N 
ATOM     14  C   LIG d   1       3.849  89.336 114.984  0.00  0.00     0.210 C 
ATOM     15  C   LIG d   1       3.044  88.120 114.513  0.00  0.00     0.109 C 
ATOM     16  O   LIG d   1       4.443  90.049 114.161  0.00  0.00    -0.276 OA
ATOM     17  H   LIG d   1       3.392  88.872 116.899  0.00  0.00     0.149 HD
ENDBRANCH   6  13
BRANCH   5  18
ATOM     18  N   LIG d   1       6.909  89.864 116.384  0.00  0.00     0.381 N 
ATOM     19  H   LIG d   1       6.421  89.861 115.511  0.00  0.00    -0.090 HD
ATOM     20  H   LIG d   1       7.250  88.935 116.557  0.00  0.00    -0.090 HD
ATOM     21  H   LIG d   1       7.671  90.503 116.345  0.00  0.00    -0.090 HD
ENDBRANCH   5  18
BRANCH   3  22
ATOM     22  C   LIG d   1       6.348  92.566 120.298  0.00  0.00     0.382 C 
ATOM     23  O   LIG d   1       7.425  92.115 120.756  0.00  0.00    -0.241 OA
ATOM     24  O   LIG d   1       5.788  93.518 120.874  0.00  0.00    -0.241 OA
ENDBRANCH   3  22
TORSDOF 7
ENDMDL
MODEL 7
REMARK VINA RESULT:      -4.1      5.105      7.629
REMARK  7 active torsions:
REMARK  status: ('A' for Active; 'I' for Inactive)
REMARK    1  A    between atoms: C_2  and  C_3 
REMARK    2  A    between atoms: C_3  and  O_6 
REMARK    3  A    between atoms: C_3  and  C_4 
REMARK    4  A    between atoms: C_7  and  O_6 
REMARK    5  A    between atoms: C_9  and  C_10 
REMARK    6  A    between atoms: N_15  and  C_14 
REMARK    7  A    between atoms: N_20  and  C_19 
REMARK       I    between atoms: C_22  and  N_20 
ROOT
ATOM      1  C   LIG d   1       1.026  89.356 117.295  0.00  0.00     0.161 C 
ATOM      2  C   LIG d   1      -0.376  89.274 117.274  0.00  0.00     0.016 C 
ATOM      3  C   LIG d   1      -1.220  90.212 117.913  0.00  0.00     0.038 C 
ATOM      4  C   LIG d   1      -0.718  91.387 118.492  0.00  0.00     0.028 C 
ATOM      5  C   LIG d   1       0.722  91.256 118.976  0.00  0.00    -0.047 C 
ATOM      6  C   LIG d   1       1.588  90.691 117.828  0.00  0.00     0.091 C 
ENDROOT
BRANCH   1   7
ATOM      7  O   LIG d   1       1.552  89.080 115.982  0.00  0.00    -0.368 OA
BRANCH   7   8
ATOM      8  C   LIG d   1       2.249  87.819 115.827  0.00  0.00     0.119 C 
BRANCH   8   9
ATOM      9  C   LIG d   1       2.112  87.048 117.154  0.00  0.00     0.028 C 
ATOM     10  C   LIG d   1       1.379  85.707 116.981  0.00  0.00     0.006 C 
ENDBRANCH   8   9
BRANCH   8  11
ATOM     11  C   LIG d   1       3.753  88.034 115.635  0.00  0.00     0.028 C 
ATOM     12  C   LIG d   1       4.072  89.153 114.632  0.00  0.00     0.006 C 
ENDBRANCH   8  11
ENDBRANCH   7   8
ENDBRANCH   1   7
BRANCH   6  13
ATOM     13  N   LIG d   1       2.995  90.453 118.243  0.00  0.00    -0.311 N 
ATOM     14  C   LIG d   1       4.033  91.109 117.727  0.00  0.00     0.210 C 
ATOM     15  C   LIG d   1       5.400  90.696 118.282  0.00  0.00     0.109 C 
ATOM     16  O   LIG d   1       3.949  92.017 116.886  0.00  0.00    -0.276 OA
ATOM     17  H   LIG d   1       3.152  89.755 118.944  0.00  0.00     0.149 HD
ENDBRANCH   6  13
BRANCH   5  18
ATOM     18  N   LIG d   1       1.162  92.589 119.430  0.00  0.00     0.381 N 
ATOM     19  H   LIG d   1       2.156  92.665 119.345  0.00  0.00    -0.090 HD
ATOM     20  H   LIG d   1       0.920  92.699 120.399  0.00  0.00    -0.090 HD
ATOM     21  H   LIG d   1       0.719  93.298 118.888  0.00  0.00    -0.090 HD
ENDBRANCH   5  18
BRANCH   3  22
ATOM     22  C   LIG d   1      -2.579  89.958 118.011  0.00  0.00     0.382 C 
ATOM     23  O   LIG d   1      -3.400  90.904 117.944  0.00  0.00    -0.241 OA
ATOM     24  O   LIG d   1      -2.993  88.800 118.210  0.00  0.00    -0.241 OA
ENDBRANCH   3  22
TORSDOF 7
ENDMDL
MODEL 8
REMARK VINA RESULT:      -4.1      5.193      8.189
REMARK  7 active torsions:
REMARK  status: ('A' for Active; 'I' for Inactive)
REMARK    1  A    between atoms: C_2  and  C_3 
REMARK    2  A    between atoms: C_3  and  O_6 
REMARK    3  A    between atoms: C_3  and  C_4 
REMARK    4  A    between atoms: C_7  and  O_6 
REMARK    5  A    between atoms: C_9  and  C_10 
REMARK    6  A    between atoms: N_15  and  C_14 
REMARK    7  A    between atoms: N_20  and  C_19 
REMARK       I    between atoms: C_22  and  N_20 
ROOT
ATOM      1  C   LIG d   1       0.941  89.859 116.705  0.00  0.00     0.161 C 
ATOM      2  C   LIG d   1       2.068  89.495 115.950  0.00  0.00     0.016 C 
ATOM      3  C   LIG d   1       3.389  89.854 116.301  0.00  0.00     0.038 C 
ATOM      4  C   LIG d   1       3.688  90.478 117.521  0.00  0.00     0.028 C 
ATOM      5  C   LIG d   1       2.536  91.311 118.074  0.00  0.00    -0.047 C 
ATOM      6  C   LIG d   1       1.257  90.444 118.098  0.00  0.00     0.091 C 
ENDROOT
BRANCH   1   7
ATOM      7  O   LIG d   1       0.049  88.733 116.825  0.00  0.00    -0.368 OA
BRANCH   7   8
ATOM      8  C   LIG d   1       0.300  87.837 117.936  0.00  0.00     0.119 C 
BRANCH   8   9
ATOM      9  C   LIG d   1       0.637  86.453 117.346  0.00  0.00     0.028 C 
ATOM     10  C   LIG d   1       2.106  86.060 117.576  0.00  0.00     0.006 C 
ENDBRANCH   8   9
BRANCH   8  11
ATOM     11  C   LIG d   1      -0.963  87.623 118.776  0.00  0.00     0.028 C 
ATOM     12  C   LIG d   1      -2.189  88.351 118.204  0.00  0.00     0.006 C 
ENDBRANCH   8  11
ENDBRANCH   7   8
ENDBRANCH   1   7
BRANCH   6  13
ATOM     13  N   LIG d   1       0.063  91.207 118.546  0.00  0.00    -0.311 N 
ATOM     14  C   LIG d   1      -0.386  91.195 119.800  0.00  0.00     0.210 C 
ATOM     15  C   LIG d   1      -1.643  92.036 120.044  0.00  0.00     0.109 C 
ATOM     16  O   LIG d   1       0.155  90.594 120.740  0.00  0.00    -0.276 OA
ATOM     17  H   LIG d   1      -0.419  91.748 117.855  0.00  0.00     0.149 HD
ENDBRANCH   6  13
BRANCH   5  18
ATOM     18  N   LIG d   1       2.935  91.790 119.412  0.00  0.00     0.381 N 
ATOM     19  H   LIG d   1       2.137  91.809 120.016  0.00  0.00    -0.090 HD
ATOM     20  H   LIG d   1       3.290  92.726 119.329  0.00  0.00    -0.090 HD
ATOM     21  H   LIG d   1       3.635  91.193 119.793  0.00  0.00    -0.090 HD
ENDBRANCH   5  18
BRANCH   3  22
ATOM     22  C   LIG d   1       4.424  89.625 115.408  0.00  0.00     0.382 C 
ATOM     23  O   LIG d   1       4.319  90.001 114.216  0.00  0.00    -0.241 OA
ATOM     24  O   LIG d   1       5.444  89.007 115.768  0.00  0.00    -0.241 OA
ENDBRANCH   3  22
TORSDOF 7
ENDMDL
MODEL 9
REMARK VINA RESULT:      -4.1      2.286      4.315
REMARK  7 active torsions:
REMARK  status: ('A' for Active; 'I' for Inactive)
REMARK    1  A    between atoms: C_2  and  C_3 
REMARK    2  A    between atoms: C_3  and  O_6 
REMARK    3  A    between atoms: C_3  and  C_4 
REMARK    4  A    between atoms: C_7  and  O_6 
REMARK    5  A    between atoms: C_9  and  C_10 
REMARK    6  A    between atoms: N_15  and  C_14 
REMARK    7  A    between atoms: N_20  and  C_19 
REMARK       I    between atoms: C_22  and  N_20 
ROOT
ATOM      1  C   LIG d   1      -3.164  92.358 118.176  0.00  0.00     0.161 C 
ATOM      2  C   LIG d   1      -2.813  91.014 117.965  0.00  0.00     0.016 C 
ATOM      3  C   LIG d   1      -1.508  90.509 118.172  0.00  0.00     0.038 C 
ATOM      4  C   LIG d   1      -0.495  91.287 118.752  0.00  0.00     0.028 C 
ATOM      5  C   LIG d   1      -0.667  92.783 118.510  0.00  0.00    -0.047 C 
ATOM      6  C   LIG d   1      -2.100  93.196 118.915  0.00  0.00     0.091 C 
ENDROOT
BRANCH   1   7
ATOM      7  O   LIG d   1      -4.427  92.430 118.866  0.00  0.00    -0.368 OA
BRANCH   7   8
ATOM      8  C   LIG d   1      -5.448  93.247 118.243  0.00  0.00     0.119 C 
BRANCH   8   9
ATOM      9  C   LIG d   1      -6.171  94.019 119.363  0.00  0.00     0.028 C 
ATOM     10  C   LIG d   1      -6.724  95.371 118.882  0.00  0.00     0.006 C 
ENDBRANCH   8   9
BRANCH   8  11
ATOM     11  C   LIG d   1      -6.528  92.384 117.584  0.00  0.00     0.028 C 
ATOM     12  C   LIG d   1      -6.161  91.961 116.153  0.00  0.00     0.006 C 
ENDBRANCH   8  11
ENDBRANCH   7   8
ENDBRANCH   1   7
BRANCH   6  13
ATOM     13  N   LIG d   1      -2.379  94.628 118.631  0.00  0.00    -0.311 N 
ATOM     14  C   LIG d   1      -2.731  95.507 119.568  0.00  0.00     0.210 C 
ATOM     15  C   LIG d   1      -2.991  96.927 119.058  0.00  0.00     0.109 C 
ATOM     16  O   LIG d   1      -2.821  95.251 120.778  0.00  0.00    -0.276 OA
ATOM     17  H   LIG d   1      -2.299  94.929 117.679  0.00  0.00     0.149 HD
ENDBRANCH   6  13
BRANCH   5  18
ATOM     18  N   LIG d   1       0.377  93.482 119.283  0.00  0.00     0.381 N 
ATOM     19  H   LIG d   1       1.277  93.286 118.893  0.00  0.00    -0.090 HD
ATOM     20  H   LIG d   1       0.362  93.143 120.229  0.00  0.00    -0.090 HD
ATOM     21  H   LIG d   1       0.209  94.464 119.272  0.00  0.00    -0.090 HD
ENDBRANCH   5  18
BRANCH   3  22
ATOM     22  C   LIG d   1      -1.196  89.223 117.759  0.00  0.00     0.382 C 
ATOM     23  O   LIG d   1      -0.206  89.027 117.012  0.00  0.00    -0.241 OA
ATOM     24  O   LIG d   1      -1.916  88.262 118.087  0.00  0.00    -0.241 OA
ENDBRANCH   3  22
TORSDOF 7
ENDMDL
