MODEL 1
REMARK VINA RESULT:      -4.3      0.000      0.000
REMARK  7 active torsions:
REMARK  status: ('A' for Active; 'I' for Inactive)
REMARK    1  A    between atoms: C_2  and  C_3 
REMARK    2  A    between atoms: C_3  and  O_6 
REMARK    3  A    between atoms: C_3  and  C_4 
REMARK    4  A    between atoms: C_7  and  O_6 
REMARK    5  A    between atoms: C_9  and  C_10 
REMARK    6  A    between atoms: N_15  and  C_14 
REMARK    7  A    between atoms: N_20  and  C_19 
REMARK       I    between atoms: C_22  and  N_20 
ROOT
ATOM      1  C   LIG d   1      -4.678  92.321 119.050  0.00  0.00     0.161 C 
ATOM      2  C   LIG d   1      -3.467  92.603 119.705  0.00  0.00     0.016 C 
ATOM      3  C   LIG d   1      -2.210  92.149 119.246  0.00  0.00     0.038 C 
ATOM      4  C   LIG d   1      -2.060  91.505 118.009  0.00  0.00     0.028 C 
ATOM      5  C   LIG d   1      -3.311  90.757 117.561  0.00  0.00    -0.047 C 
ATOM      6  C   LIG d   1      -4.523  91.714 117.640  0.00  0.00     0.091 C 
ENDROOT
BRANCH   1   7
ATOM      7  O   LIG d   1      -5.493  93.508 118.998  0.00  0.00    -0.368 OA
BRANCH   7   8
ATOM      8  C   LIG d   1      -5.341  94.435 120.101  0.00  0.00     0.119 C 
BRANCH   8   9
ATOM      9  C   LIG d   1      -6.714  94.570 120.786  0.00  0.00     0.028 C 
ATOM     10  C   LIG d   1      -7.880  94.479 119.787  0.00  0.00     0.006 C 
ENDBRANCH   8   9
BRANCH   8  11
ATOM     11  C   LIG d   1      -4.997  95.842 119.602  0.00  0.00     0.028 C 
ATOM     12  C   LIG d   1      -3.598  96.304 120.040  0.00  0.00     0.006 C 
ENDBRANCH   8  11
ENDBRANCH   7   8
ENDBRANCH   1   7
BRANCH   6  13
ATOM     13  N   LIG d   1      -5.802  91.038 117.299  0.00  0.00    -0.311 N 
ATOM     14  C   LIG d   1      -6.271  90.942 116.056  0.00  0.00     0.210 C 
ATOM     15  C   LIG d   1      -7.618  90.223 115.927  0.00  0.00     0.109 C 
ATOM     16  O   LIG d   1      -5.685  91.356 115.044  0.00  0.00    -0.276 OA
ATOM     17  H   LIG d   1      -6.327  90.647 118.056  0.00  0.00     0.149 HD
ENDBRANCH   6  13
BRANCH   5  18
ATOM     18  N   LIG d   1      -3.063  90.250 116.198  0.00  0.00     0.381 N 
ATOM     19  H   LIG d   1      -2.561  89.386 116.245  0.00  0.00    -0.090 HD
ATOM     20  H   LIG d   1      -2.499  90.917 115.701  0.00  0.00    -0.090 HD
ATOM     21  H   LIG d   1      -3.928  90.114 115.722  0.00  0.00    -0.090 HD
ENDBRANCH   5  18
BRANCH   3  22
ATOM     22  C   LIG d   1      -1.089  92.304 120.048  0.00  0.00     0.382 C 
ATOM     23  O   LIG d   1      -1.067  93.196 120.929  0.00  0.00    -0.241 OA
ATOM     24  O   LIG d   1      -0.082  91.592 119.871  0.00  0.00    -0.241 OA
ENDBRANCH   3  22
TORSDOF 7
ENDMDL
MODEL 2
REMARK VINA RESULT:      -4.3      8.756     10.477
REMARK  7 active torsions:
REMARK  status: ('A' for Active; 'I' for Inactive)
REMARK    1  A    between atoms: C_2  and  C_3 
REMARK    2  A    between atoms: C_3  and  O_6 
REMARK    3  A    between atoms: C_3  and  C_4 
REMARK    4  A    between atoms: C_7  and  O_6 
REMARK    5  A    between atoms: C_9  and  C_10 
REMARK    6  A    between atoms: N_15  and  C_14 
REMARK    7  A    between atoms: N_20  and  C_19 
REMARK       I    between atoms: C_22  and  N_20 
ROOT
ATOM      1  C   LIG d   1       5.380  87.713 116.765  0.00  0.00     0.161 C 
ATOM      2  C   LIG d   1       6.244  88.553 117.488  0.00  0.00     0.016 C 
ATOM      3  C   LIG d   1       6.883  89.682 116.925  0.00  0.00     0.038 C 
ATOM      4  C   LIG d   1       6.582  90.137 115.633  0.00  0.00     0.028 C 
ATOM      5  C   LIG d   1       6.101  89.032 114.698  0.00  0.00    -0.047 C 
ATOM      6  C   LIG d   1       4.953  88.258 115.386  0.00  0.00     0.091 C 
ENDROOT
BRANCH   1   7
ATOM      7  O   LIG d   1       4.220  87.403 117.562  0.00  0.00    -0.368 OA
BRANCH   7   8
ATOM      8  C   LIG d   1       3.875  88.366 118.587  0.00  0.00     0.119 C 
BRANCH   8   9
ATOM      9  C   LIG d   1       3.280  87.585 119.776  0.00  0.00     0.028 C 
ATOM     10  C   LIG d   1       2.414  86.398 119.323  0.00  0.00     0.006 C 
ENDBRANCH   8   9
BRANCH   8  11
ATOM     11  C   LIG d   1       2.757  89.303 118.118  0.00  0.00     0.028 C 
ATOM     12  C   LIG d   1       3.210  90.768 118.018  0.00  0.00     0.006 C 
ENDBRANCH   8  11
ENDBRANCH   7   8
ENDBRANCH   1   7
BRANCH   6  13
ATOM     13  N   LIG d   1       4.480  87.106 114.574  0.00  0.00    -0.311 N 
ATOM     14  C   LIG d   1       3.201  86.908 114.258  0.00  0.00     0.210 C 
ATOM     15  C   LIG d   1       2.928  85.648 113.431  0.00  0.00     0.109 C 
ATOM     16  O   LIG d   1       2.272  87.673 114.557  0.00  0.00    -0.276 OA
ATOM     17  H   LIG d   1       5.172  86.453 114.264  0.00  0.00     0.149 HD
ENDBRANCH   6  13
BRANCH   5  18
ATOM     18  N   LIG d   1       5.692  89.667 113.431  0.00  0.00     0.381 N 
ATOM     19  H   LIG d   1       4.787  89.335 113.162  0.00  0.00    -0.090 HD
ATOM     20  H   LIG d   1       6.347  89.412 112.714  0.00  0.00    -0.090 HD
ATOM     21  H   LIG d   1       5.672  90.658 113.537  0.00  0.00    -0.090 HD
ENDBRANCH   5  18
BRANCH   3  22
ATOM     22  C   LIG d   1       7.866  90.344 117.644  0.00  0.00     0.382 C 
ATOM     23  O   LIG d   1       7.563  90.976 118.685  0.00  0.00    -0.241 OA
ATOM     24  O   LIG d   1       9.045  90.356 117.241  0.00  0.00    -0.241 OA
ENDBRANCH   3  22
TORSDOF 7
ENDMDL
MODEL 3
REMARK VINA RESULT:      -4.2      7.404     11.007
REMARK  7 active torsions:
REMARK  status: ('A' for Active; 'I' for Inactive)
REMARK    1  A    between atoms: C_2  and  C_3 
REMARK    2  A    between atoms: C_3  and  O_6 
REMARK    3  A    between atoms: C_3  and  C_4 
REMARK    4  A    between atoms: C_7  and  O_6 
REMARK    5  A    between atoms: C_9  and  C_10 
REMARK    6  A    between atoms: N_15  and  C_14 
REMARK    7  A    between atoms: N_20  and  C_19 
REMARK       I    between atoms: C_22  and  N_20 
ROOT
ATOM      1  C   LIG d   1       4.196  89.421 117.300  0.00  0.00     0.161 C 
ATOM      2  C   LIG d   1       2.945  89.999 117.572  0.00  0.00     0.016 C 
ATOM      3  C   LIG d   1       2.788  91.237 118.237  0.00  0.00     0.038 C 
ATOM      4  C   LIG d   1       3.883  92.058 118.543  0.00  0.00     0.028 C 
ATOM      5  C   LIG d   1       5.183  91.286 118.741  0.00  0.00    -0.047 C 
ATOM      6  C   LIG d   1       5.403  90.355 117.527  0.00  0.00     0.091 C 
ENDROOT
BRANCH   1   7
ATOM      7  O   LIG d   1       4.212  88.900 115.956  0.00  0.00    -0.368 OA
BRANCH   7   8
ATOM      8  C   LIG d   1       4.367  87.465 115.830  0.00  0.00     0.119 C 
BRANCH   8   9
ATOM      9  C   LIG d   1       5.712  87.204 115.125  0.00  0.00     0.028 C 
ATOM     10  C   LIG d   1       6.140  88.376 114.226  0.00  0.00     0.006 C 
ENDBRANCH   8   9
BRANCH   8  11
ATOM     11  C   LIG d   1       3.302  86.868 114.905  0.00  0.00     0.028 C 
ATOM     12  C   LIG d   1       1.871  87.224 115.337  0.00  0.00     0.006 C 
ENDBRANCH   8  11
ENDBRANCH   7   8
ENDBRANCH   1   7
BRANCH   6  13
ATOM     13  N   LIG d   1       6.610  89.501 117.679  0.00  0.00    -0.311 N 
ATOM     14  C   LIG d   1       7.790  89.797 117.137  0.00  0.00     0.210 C 
ATOM     15  C   LIG d   1       8.898  88.771 117.400  0.00  0.00     0.109 C 
ATOM     16  O   LIG d   1       8.034  90.827 116.491  0.00  0.00    -0.276 OA
ATOM     17  H   LIG d   1       6.510  88.661 118.215  0.00  0.00     0.149 HD
ENDBRANCH   6  13
BRANCH   5  18
ATOM     18  N   LIG d   1       6.265  92.273 118.917  0.00  0.00     0.381 N 
ATOM     19  H   LIG d   1       6.672  92.491 118.030  0.00  0.00    -0.090 HD
ATOM     20  H   LIG d   1       6.978  91.872 119.501  0.00  0.00    -0.090 HD
ATOM     21  H   LIG d   1       5.906  93.100 119.340  0.00  0.00    -0.090 HD
ENDBRANCH   5  18
BRANCH   3  22
ATOM     22  C   LIG d   1       1.525  91.645 118.639  0.00  0.00     0.382 C 
ATOM     23  O   LIG d   1       1.166  91.490 119.831  0.00  0.00    -0.241 OA
ATOM     24  O   LIG d   1       0.725  92.127 117.815  0.00  0.00    -0.241 OA
ENDBRANCH   3  22
TORSDOF 7
ENDMDL
MODEL 4
REMARK VINA RESULT:      -4.2      7.925     11.107
REMARK  7 active torsions:
REMARK  status: ('A' for Active; 'I' for Inactive)
REMARK    1  A    between atoms: C_2  and  C_3 
REMARK    2  A    between atoms: C_3  and  O_6 
REMARK    3  A    between atoms: C_3  and  C_4 
REMARK    4  A    between atoms: C_7  and  O_6 
REMARK    5  A    between atoms: C_9  and  C_10 
REMARK    6  A    between atoms: N_15  and  C_14 
REMARK    7  A    between atoms: N_20  and  C_19 
REMARK       I    between atoms: C_22  and  N_20 
ROOT
ATOM      1  C   LIG d   1       5.275  90.778 116.726  0.00  0.00     0.161 C 
ATOM      2  C   LIG d   1       6.677  90.684 116.709  0.00  0.00     0.016 C 
ATOM      3  C   LIG d   1       7.488  90.953 117.834  0.00  0.00     0.038 C 
ATOM      4  C   LIG d   1       6.941  91.190 119.104  0.00  0.00     0.028 C 
ATOM      5  C   LIG d   1       5.540  91.790 119.057  0.00  0.00    -0.047 C 
ATOM      6  C   LIG d   1       4.654  90.926 118.131  0.00  0.00     0.091 C 
ENDROOT
BRANCH   1   7
ATOM      7  O   LIG d   1       4.701  89.647 116.041  0.00  0.00    -0.368 OA
BRANCH   7   8
ATOM      8  C   LIG d   1       5.575  88.508 115.850  0.00  0.00     0.119 C 
BRANCH   8   9
ATOM      9  C   LIG d   1       5.477  88.093 114.369  0.00  0.00     0.028 C 
ATOM     10  C   LIG d   1       6.158  89.103 113.430  0.00  0.00     0.006 C 
ENDBRANCH   8   9
BRANCH   8  11
ATOM     11  C   LIG d   1       5.087  87.292 116.644  0.00  0.00     0.028 C 
ATOM     12  C   LIG d   1       5.648  87.251 118.074  0.00  0.00     0.006 C 
ENDBRANCH   8  11
ENDBRANCH   7   8
ENDBRANCH   1   7
BRANCH   6  13
ATOM     13  N   LIG d   1       3.290  91.492 117.962  0.00  0.00    -0.311 N 
ATOM     14  C   LIG d   1       2.246  91.120 118.701  0.00  0.00     0.210 C 
ATOM     15  C   LIG d   1       0.926  91.813 118.349  0.00  0.00     0.109 C 
ATOM     16  O   LIG d   1       2.294  90.305 119.635  0.00  0.00    -0.276 OA
ATOM     17  H   LIG d   1       3.167  92.182 117.247  0.00  0.00     0.149 HD
ENDBRANCH   6  13
BRANCH   5  18
ATOM     18  N   LIG d   1       5.036  91.856 120.442  0.00  0.00     0.381 N 
ATOM     19  H   LIG d   1       5.245  92.752 120.836  0.00  0.00    -0.090 HD
ATOM     20  H   LIG d   1       5.501  91.154 120.990  0.00  0.00    -0.090 HD
ATOM     21  H   LIG d   1       4.052  91.701 120.455  0.00  0.00    -0.090 HD
ENDBRANCH   5  18
BRANCH   3  22
ATOM     22  C   LIG d   1       8.865  91.027 117.687  0.00  0.00     0.382 C 
ATOM     23  O   LIG d   1       9.423  92.143 117.554  0.00  0.00    -0.241 OA
ATOM     24  O   LIG d   1       9.552  89.989 117.641  0.00  0.00    -0.241 OA
ENDBRANCH   3  22
TORSDOF 7
ENDMDL
MODEL 5
REMARK VINA RESULT:      -4.1     10.512     12.212
REMARK  7 active torsions:
REMARK  status: ('A' for Active; 'I' for Inactive)
REMARK    1  A    between atoms: C_2  and  C_3 
REMARK    2  A    between atoms: C_3  and  O_6 
REMARK    3  A    between atoms: C_3  and  C_4 
REMARK    4  A    between atoms: C_7  and  O_6 
REMARK    5  A    between atoms: C_9  and  C_10 
REMARK    6  A    between atoms: N_15  and  C_14 
REMARK    7  A    between atoms: N_20  and  C_19 
REMARK       I    between atoms: C_22  and  N_20 
ROOT
ATOM      1  C   LIG d   1       5.386  88.422 116.620  0.00  0.00     0.161 C 
ATOM      2  C   LIG d   1       4.513  87.563 115.931  0.00  0.00     0.016 C 
ATOM      3  C   LIG d   1       4.457  87.480 114.520  0.00  0.00     0.038 C 
ATOM      4  C   LIG d   1       5.382  88.144 113.701  0.00  0.00     0.028 C 
ATOM      5  C   LIG d   1       5.952  89.410 114.333  0.00  0.00    -0.047 C 
ATOM      6  C   LIG d   1       6.479  89.072 115.746  0.00  0.00     0.091 C 
ENDROOT
BRANCH   1   7
ATOM      7  O   LIG d   1       5.982  87.723 117.731  0.00  0.00    -0.368 OA
BRANCH   7   8
ATOM      8  C   LIG d   1       5.349  87.916 119.020  0.00  0.00     0.119 C 
BRANCH   8   9
ATOM      9  C   LIG d   1       6.242  88.871 119.835  0.00  0.00     0.028 C 
ATOM     10  C   LIG d   1       5.643  90.284 119.945  0.00  0.00     0.006 C 
ENDBRANCH   8   9
BRANCH   8  11
ATOM     11  C   LIG d   1       5.311  86.612 119.823  0.00  0.00     0.028 C 
ATOM     12  C   LIG d   1       4.707  85.442 119.030  0.00  0.00     0.006 C 
ENDBRANCH   8  11
ENDBRANCH   7   8
ENDBRANCH   1   7
BRANCH   6  13
ATOM     13  N   LIG d   1       6.977  90.272 116.467  0.00  0.00    -0.311 N 
ATOM     14  C   LIG d   1       8.155  90.318 117.087  0.00  0.00     0.210 C 
ATOM     15  C   LIG d   1       8.466  91.645 117.786  0.00  0.00     0.109 C 
ATOM     16  O   LIG d   1       8.986  89.398 117.096  0.00  0.00    -0.276 OA
ATOM     17  H   LIG d   1       6.379  91.075 116.483  0.00  0.00     0.149 HD
ENDBRANCH   6  13
BRANCH   5  18
ATOM     18  N   LIG d   1       7.001  89.924 113.432  0.00  0.00     0.381 N 
ATOM     19  H   LIG d   1       6.628  90.045 112.512  0.00  0.00    -0.090 HD
ATOM     20  H   LIG d   1       7.746  89.252 113.384  0.00  0.00    -0.090 HD
ATOM     21  H   LIG d   1       7.348  90.793 113.775  0.00  0.00    -0.090 HD
ENDBRANCH   5  18
BRANCH   3  22
ATOM     22  C   LIG d   1       3.442  86.756 113.915  0.00  0.00     0.382 C 
ATOM     23  O   LIG d   1       2.389  87.335 113.553  0.00  0.00    -0.241 OA
ATOM     24  O   LIG d   1       3.546  85.524 113.766  0.00  0.00    -0.241 OA
ENDBRANCH   3  22
TORSDOF 7
ENDMDL
MODEL 6
REMARK VINA RESULT:      -4.1      8.160     10.633
REMARK  7 active torsions:
REMARK  status: ('A' for Active; 'I' for Inactive)
REMARK    1  A    between atoms: C_2  and  C_3 
REMARK    2  A    between atoms: C_3  and  O_6 
REMARK    3  A    between atoms: C_3  and  C_4 
REMARK    4  A    between atoms: C_7  and  O_6 
REMARK    5  A    between atoms: C_9  and  C_10 
REMARK    6  A    between atoms: N_15  and  C_14 
REMARK    7  A    between atoms: N_20  and  C_19 
REMARK       I    between atoms: C_22  and  N_20 
ROOT
ATOM      1  C   LIG d   1       5.222  90.302 116.940  0.00  0.00     0.161 C 
ATOM      2  C   LIG d   1       5.744  91.558 117.291  0.00  0.00     0.016 C 
ATOM      3  C   LIG d   1       5.038  92.505 118.068  0.00  0.00     0.038 C 
ATOM      4  C   LIG d   1       3.813  92.198 118.678  0.00  0.00     0.028 C 
ATOM      5  C   LIG d   1       3.019  91.128 117.937  0.00  0.00    -0.047 C 
ATOM      6  C   LIG d   1       3.932  89.906 117.689  0.00  0.00     0.091 C 
ENDROOT
BRANCH   1   7
ATOM      7  O   LIG d   1       6.232  89.288 117.110  0.00  0.00    -0.368 OA
BRANCH   7   8
ATOM      8  C   LIG d   1       6.876  88.820 115.900  0.00  0.00     0.119 C 
BRANCH   8   9
ATOM      9  C   LIG d   1       5.856  88.951 114.752  0.00  0.00     0.028 C 
ATOM     10  C   LIG d   1       6.511  89.383 113.430  0.00  0.00     0.006 C 
ENDBRANCH   8   9
BRANCH   8  11
ATOM     11  C   LIG d   1       7.203  87.327 115.984  0.00  0.00     0.028 C 
ATOM     12  C   LIG d   1       5.960  86.435 115.840  0.00  0.00     0.006 C 
ENDBRANCH   8  11
ENDBRANCH   7   8
ENDBRANCH   1   7
BRANCH   6  13
ATOM     13  N   LIG d   1       3.259  88.846 116.895  0.00  0.00    -0.311 N 
ATOM     14  C   LIG d   1       2.646  87.797 117.442  0.00  0.00     0.210 C 
ATOM     15  C   LIG d   1       2.033  86.812 116.442  0.00  0.00     0.109 C 
ATOM     16  O   LIG d   1       2.524  87.607 118.662  0.00  0.00    -0.276 OA
ATOM     17  H   LIG d   1       3.282  88.938 115.898  0.00  0.00     0.149 HD
ENDBRANCH   6  13
BRANCH   5  18
ATOM     18  N   LIG d   1       1.833  90.807 118.753  0.00  0.00     0.381 N 
ATOM     19  H   LIG d   1       1.749  91.466 119.502  0.00  0.00    -0.090 HD
ATOM     20  H   LIG d   1       1.949  89.891 119.150  0.00  0.00    -0.090 HD
ATOM     21  H   LIG d   1       1.013  90.830 118.188  0.00  0.00    -0.090 HD
ENDBRANCH   5  18
BRANCH   3  22
ATOM     22  C   LIG d   1       5.540  93.790 118.208  0.00  0.00     0.382 C 
ATOM     23  O   LIG d   1       6.447  94.021 119.044  0.00  0.00    -0.241 OA
ATOM     24  O   LIG d   1       5.066  94.729 117.541  0.00  0.00    -0.241 OA
ENDBRANCH   3  22
TORSDOF 7
ENDMDL
MODEL 7
REMARK VINA RESULT:      -4.1      7.853     10.789
REMARK  7 active torsions:
REMARK  status: ('A' for Active; 'I' for Inactive)
REMARK    1  A    between atoms: C_2  and  C_3 
REMARK    2  A    between atoms: C_3  and  O_6 
REMARK    3  A    between atoms: C_3  and  C_4 
REMARK    4  A    between atoms: C_7  and  O_6 
REMARK    5  A    between atoms: C_9  and  C_10 
REMARK    6  A    between atoms: N_15  and  C_14 
REMARK    7  A    between atoms: N_20  and  C_19 
REMARK       I    between atoms: C_22  and  N_20 
ROOT
ATOM      1  C   LIG d   1       4.656  89.465 117.082  0.00  0.00     0.161 C 
ATOM      2  C   LIG d   1       3.621  88.638 116.616  0.00  0.00     0.016 C 
ATOM      3  C   LIG d   1       3.819  87.597 115.680  0.00  0.00     0.038 C 
ATOM      4  C   LIG d   1       5.101  87.212 115.259  0.00  0.00     0.028 C 
ATOM      5  C   LIG d   1       6.122  88.344 115.315  0.00  0.00    -0.047 C 
ATOM      6  C   LIG d   1       6.078  88.989 116.718  0.00  0.00     0.091 C 
ENDROOT
BRANCH   1   7
ATOM      7  O   LIG d   1       4.536  89.641 118.508  0.00  0.00    -0.368 OA
BRANCH   7   8
ATOM      8  C   LIG d   1       4.163  90.967 118.957  0.00  0.00     0.119 C 
BRANCH   8   9
ATOM      9  C   LIG d   1       2.705  90.895 119.449  0.00  0.00     0.028 C 
ATOM     10  C   LIG d   1       1.706  91.414 118.402  0.00  0.00     0.006 C 
ENDBRANCH   8   9
BRANCH   8  11
ATOM     11  C   LIG d   1       4.151  91.966 117.796  0.00  0.00     0.028 C 
ATOM     12  C   LIG d   1       5.087  93.162 118.030  0.00  0.00     0.006 C 
ENDBRANCH   8  11
ENDBRANCH   7   8
ENDBRANCH   1   7
BRANCH   6  13
ATOM     13  N   LIG d   1       6.987  90.160 116.832  0.00  0.00    -0.311 N 
ATOM     14  C   LIG d   1       7.809  90.352 117.862  0.00  0.00     0.210 C 
ATOM     15  C   LIG d   1       8.646  91.634 117.792  0.00  0.00     0.109 C 
ATOM     16  O   LIG d   1       7.948  89.567 118.812  0.00  0.00    -0.276 OA
ATOM     17  H   LIG d   1       6.962  90.831 116.090  0.00  0.00     0.149 HD
ENDBRANCH   6  13
BRANCH   5  18
ATOM     18  N   LIG d   1       7.440  87.772 114.982  0.00  0.00     0.381 N 
ATOM     19  H   LIG d   1       7.800  88.209 114.157  0.00  0.00    -0.090 HD
ATOM     20  H   LIG d   1       7.331  86.790 114.796  0.00  0.00    -0.090 HD
ATOM     21  H   LIG d   1       8.071  87.905 115.741  0.00  0.00    -0.090 HD
ENDBRANCH   5  18
BRANCH   3  22
ATOM     22  C   LIG d   1       2.723  86.954 115.125  0.00  0.00     0.382 C 
ATOM     23  O   LIG d   1       1.746  87.624 114.713  0.00  0.00    -0.241 OA
ATOM     24  O   LIG d   1       2.680  85.710 115.072  0.00  0.00    -0.241 OA
ENDBRANCH   3  22
TORSDOF 7
ENDMDL
MODEL 8
REMARK VINA RESULT:      -3.9      7.133     10.083
REMARK  7 active torsions:
REMARK  status: ('A' for Active; 'I' for Inactive)
REMARK    1  A    between atoms: C_2  and  C_3 
REMARK    2  A    between atoms: C_3  and  O_6 
REMARK    3  A    between atoms: C_3  and  C_4 
REMARK    4  A    between atoms: C_7  and  O_6 
REMARK    5  A    between atoms: C_9  and  C_10 
REMARK    6  A    between atoms: N_15  and  C_14 
REMARK    7  A    between atoms: N_20  and  C_19 
REMARK       I    between atoms: C_22  and  N_20 
ROOT
ATOM      1  C   LIG d   1       3.390  88.899 117.178  0.00  0.00     0.161 C 
ATOM      2  C   LIG d   1       2.397  89.672 117.802  0.00  0.00     0.016 C 
ATOM      3  C   LIG d   1       2.630  90.967 118.320  0.00  0.00     0.038 C 
ATOM      4  C   LIG d   1       3.843  91.641 118.114  0.00  0.00     0.028 C 
ATOM      5  C   LIG d   1       5.033  90.704 117.933  0.00  0.00    -0.047 C 
ATOM      6  C   LIG d   1       4.689  89.661 116.845  0.00  0.00     0.091 C 
ENDROOT
BRANCH   1   7
ATOM      7  O   LIG d   1       2.854  88.280 115.992  0.00  0.00    -0.368 OA
BRANCH   7   8
ATOM      8  C   LIG d   1       2.762  86.834 116.014  0.00  0.00     0.119 C 
BRANCH   8   9
ATOM      9  C   LIG d   1       1.293  86.459 115.736  0.00  0.00     0.028 C 
ATOM     10  C   LIG d   1       1.055  86.067 114.268  0.00  0.00     0.006 C 
ENDBRANCH   8   9
BRANCH   8  11
ATOM     11  C   LIG d   1       3.066  86.277 117.408  0.00  0.00     0.028 C 
ATOM     12  C   LIG d   1       1.915  85.430 117.975  0.00  0.00     0.006 C 
ENDBRANCH   8  11
ENDBRANCH   7   8
ENDBRANCH   1   7
BRANCH   6  13
ATOM     13  N   LIG d   1       5.768  88.654 116.665  0.00  0.00    -0.311 N 
ATOM     14  C   LIG d   1       6.228  88.278 115.473  0.00  0.00     0.210 C 
ATOM     15  C   LIG d   1       7.327  87.212 115.511  0.00  0.00     0.109 C 
ATOM     16  O   LIG d   1       5.852  88.749 114.389  0.00  0.00    -0.276 OA
ATOM     17  H   LIG d   1       6.152  88.243 117.493  0.00  0.00     0.149 HD
ENDBRANCH   6  13
BRANCH   5  18
ATOM     18  N   LIG d   1       6.204  91.533 117.590  0.00  0.00     0.381 N 
ATOM     19  H   LIG d   1       6.520  92.025 118.401  0.00  0.00    -0.090 HD
ATOM     20  H   LIG d   1       5.933  92.208 116.897  0.00  0.00    -0.090 HD
ATOM     21  H   LIG d   1       6.936  90.958 117.235  0.00  0.00    -0.090 HD
ENDBRANCH   5  18
BRANCH   3  22
ATOM     22  C   LIG d   1       1.656  91.585 119.089  0.00  0.00     0.382 C 
ATOM     23  O   LIG d   1       0.449  91.502 118.757  0.00  0.00    -0.241 OA
ATOM     24  O   LIG d   1       1.973  92.262 120.086  0.00  0.00    -0.241 OA
ENDBRANCH   3  22
TORSDOF 7
ENDMDL
MODEL 9
REMARK VINA RESULT:      -3.8      8.232     11.410
REMARK  7 active torsions:
REMARK  status: ('A' for Active; 'I' for Inactive)
REMARK    1  A    between atoms: C_2  and  C_3 
REMARK    2  A    between atoms: C_3  and  O_6 
REMARK    3  A    between atoms: C_3  and  C_4 
REMARK    4  A    between atoms: C_7  and  O_6 
REMARK    5  A    between atoms: C_9  and  C_10 
REMARK    6  A    between atoms: N_15  and  C_14 
REMARK    7  A    between atoms: N_20  and  C_19 
REMARK       I    between atoms: C_22  and  N_20 
ROOT
ATOM      1  C   LIG d   1       5.415  89.973 116.764  0.00  0.00     0.161 C 
ATOM      2  C   LIG d   1       4.498  89.022 116.288  0.00  0.00     0.016 C 
ATOM      3  C   LIG d   1       4.876  87.741 115.822  0.00  0.00     0.038 C 
ATOM      4  C   LIG d   1       6.191  87.267 115.944  0.00  0.00     0.028 C 
ATOM      5  C   LIG d   1       7.237  88.377 115.952  0.00  0.00    -0.047 C 
ATOM      6  C   LIG d   1       6.839  89.433 117.008  0.00  0.00     0.091 C 
ENDROOT
BRANCH   1   7
ATOM      7  O   LIG d   1       4.901  90.590 117.961  0.00  0.00    -0.368 OA
BRANCH   7   8
ATOM      8  C   LIG d   1       4.059  91.753 117.768  0.00  0.00     0.119 C 
BRANCH   8   9
ATOM      9  C   LIG d   1       4.941  93.001 117.966  0.00  0.00     0.028 C 
ATOM     10  C   LIG d   1       5.562  93.064 119.372  0.00  0.00     0.006 C 
ENDBRANCH   8   9
BRANCH   8  11
ATOM     11  C   LIG d   1       2.979  91.845 118.850  0.00  0.00     0.028 C 
ATOM     12  C   LIG d   1       1.586  91.447 118.336  0.00  0.00     0.006 C 
ENDBRANCH   8  11
ENDBRANCH   7   8
ENDBRANCH   1   7
BRANCH   6  13
ATOM     13  N   LIG d   1       7.765  90.596 117.022  0.00  0.00    -0.311 N 
ATOM     14  C   LIG d   1       8.357  91.048 118.126  0.00  0.00     0.210 C 
ATOM     15  C   LIG d   1       9.257  92.271 117.923  0.00  0.00     0.109 C 
ATOM     16  O   LIG d   1       8.248  90.533 119.249  0.00  0.00    -0.276 OA
ATOM     17  H   LIG d   1       7.935  91.055 116.149  0.00  0.00     0.149 HD
ENDBRANCH   6  13
BRANCH   5  18
ATOM     18  N   LIG d   1       8.546  87.753 116.222  0.00  0.00     0.381 N 
ATOM     19  H   LIG d   1       9.275  88.425 116.088  0.00  0.00    -0.090 HD
ATOM     20  H   LIG d   1       8.688  87.001 115.572  0.00  0.00    -0.090 HD
ATOM     21  H   LIG d   1       8.572  87.406 117.155  0.00  0.00    -0.090 HD
ENDBRANCH   5  18
BRANCH   3  22
ATOM     22  C   LIG d   1       3.941  86.935 115.191  0.00  0.00     0.382 C 
ATOM     23  O   LIG d   1       3.869  85.716 115.478  0.00  0.00    -0.241 OA
ATOM     24  O   LIG d   1       3.199  87.403 114.307  0.00  0.00    -0.241 OA
ENDBRANCH   3  22
TORSDOF 7
ENDMDL
