MODEL 1
REMARK VINA RESULT:      -4.3      0.000      0.000
REMARK  7 active torsions:
REMARK  status: ('A' for Active; 'I' for Inactive)
REMARK    1  A    between atoms: C_2  and  C_3 
REMARK    2  A    between atoms: C_3  and  O_6 
REMARK    3  A    between atoms: C_3  and  C_4 
REMARK    4  A    between atoms: C_7  and  O_6 
REMARK    5  A    between atoms: C_9  and  C_10 
REMARK    6  A    between atoms: N_15  and  C_14 
REMARK    7  A    between atoms: N_20  and  C_19 
REMARK       I    between atoms: C_22  and  N_20 
ROOT
ATOM      1  C   LIG d   1      -0.001  88.742 117.264  0.00  0.00     0.161 C 
ATOM      2  C   LIG d   1      -1.367  88.942 117.525  0.00  0.00     0.016 C 
ATOM      3  C   LIG d   1      -1.915  90.193 117.889  0.00  0.00     0.038 C 
ATOM      4  C   LIG d   1      -1.152  91.370 117.869  0.00  0.00     0.028 C 
ATOM      5  C   LIG d   1       0.336  91.132 118.102  0.00  0.00    -0.047 C 
ATOM      6  C   LIG d   1       0.828  90.037 117.129  0.00  0.00     0.091 C 
ENDROOT
BRANCH   1   7
ATOM      7  O   LIG d   1       0.157  87.921 116.090  0.00  0.00    -0.368 OA
BRANCH   7   8
ATOM      8  C   LIG d   1       0.330  86.502 116.323  0.00  0.00     0.119 C 
BRANCH   8   9
ATOM      9  C   LIG d   1       1.777  86.141 115.936  0.00  0.00     0.028 C 
ATOM     10  C   LIG d   1       2.172  86.698 114.557  0.00  0.00     0.006 C 
ENDBRANCH   8   9
BRANCH   8  11
ATOM     11  C   LIG d   1      -0.558  85.672 115.390  0.00  0.00     0.028 C 
ATOM     12  C   LIG d   1      -2.025  85.629 115.846  0.00  0.00     0.006 C 
ENDBRANCH   8  11
ENDBRANCH   7   8
ENDBRANCH   1   7
BRANCH   6  13
ATOM     13  N   LIG d   1       2.254  89.683 117.348  0.00  0.00    -0.311 N 
ATOM     14  C   LIG d   1       3.190  89.795 116.407  0.00  0.00     0.210 C 
ATOM     15  C   LIG d   1       4.594  89.357 116.836  0.00  0.00     0.109 C 
ATOM     16  O   LIG d   1       2.997  90.246 115.268  0.00  0.00    -0.276 OA
ATOM     17  H   LIG d   1       2.505  89.338 118.254  0.00  0.00     0.149 HD
ENDBRANCH   6  13
BRANCH   5  18
ATOM     18  N   LIG d   1       1.028  92.422 117.919  0.00  0.00     0.381 N 
ATOM     19  H   LIG d   1       1.253  92.551 116.953  0.00  0.00    -0.090 HD
ATOM     20  H   LIG d   1       1.885  92.409 118.444  0.00  0.00    -0.090 HD
ATOM     21  H   LIG d   1       0.448  93.168 118.235  0.00  0.00    -0.090 HD
ENDBRANCH   5  18
BRANCH   3  22
ATOM     22  C   LIG d   1      -3.232  90.269 118.317  0.00  0.00     0.382 C 
ATOM     23  O   LIG d   1      -4.040  89.357 118.020  0.00  0.00    -0.241 OA
ATOM     24  O   LIG d   1      -3.632  91.258 118.958  0.00  0.00    -0.241 OA
ENDBRANCH   3  22
TORSDOF 7
ENDMDL
MODEL 2
REMARK VINA RESULT:      -4.2      2.649      5.390
REMARK  7 active torsions:
REMARK  status: ('A' for Active; 'I' for Inactive)
REMARK    1  A    between atoms: C_2  and  C_3 
REMARK    2  A    between atoms: C_3  and  O_6 
REMARK    3  A    between atoms: C_3  and  C_4 
REMARK    4  A    between atoms: C_7  and  O_6 
REMARK    5  A    between atoms: C_9  and  C_10 
REMARK    6  A    between atoms: N_15  and  C_14 
REMARK    7  A    between atoms: N_20  and  C_19 
REMARK       I    between atoms: C_22  and  N_20 
ROOT
ATOM      1  C   LIG d   1      -0.816  90.877 117.884  0.00  0.00     0.161 C 
ATOM      2  C   LIG d   1       0.491  91.369 118.037  0.00  0.00     0.016 C 
ATOM      3  C   LIG d   1       0.784  92.662 118.526  0.00  0.00     0.038 C 
ATOM      4  C   LIG d   1      -0.213  93.504 119.041  0.00  0.00     0.028 C 
ATOM      5  C   LIG d   1      -1.592  93.247 118.441  0.00  0.00    -0.047 C 
ATOM      6  C   LIG d   1      -1.912  91.739 118.546  0.00  0.00     0.091 C 
ENDROOT
BRANCH   1   7
ATOM      7  O   LIG d   1      -0.887  89.520 118.365  0.00  0.00    -0.368 OA
BRANCH   7   8
ATOM      8  C   LIG d   1      -0.051  88.556 117.679  0.00  0.00     0.119 C 
BRANCH   8   9
ATOM      9  C   LIG d   1      -0.978  87.655 116.840  0.00  0.00     0.028 C 
ATOM     10  C   LIG d   1      -0.235  86.452 116.234  0.00  0.00     0.006 C 
ENDBRANCH   8   9
BRANCH   8  11
ATOM     11  C   LIG d   1       0.642  87.615 118.669  0.00  0.00     0.028 C 
ATOM     12  C   LIG d   1       0.902  88.273 120.034  0.00  0.00     0.006 C 
ENDBRANCH   8  11
ENDBRANCH   7   8
ENDBRANCH   1   7
BRANCH   6  13
ATOM     13  N   LIG d   1      -3.207  91.389 117.906  0.00  0.00    -0.311 N 
ATOM     14  C   LIG d   1      -4.292  91.036 118.592  0.00  0.00     0.210 C 
ATOM     15  C   LIG d   1      -5.517  90.695 117.736  0.00  0.00     0.109 C 
ATOM     16  O   LIG d   1      -4.367  91.004 119.830  0.00  0.00    -0.276 OA
ATOM     17  H   LIG d   1      -3.244  91.419 116.906  0.00  0.00     0.149 HD
ENDBRANCH   6  13
BRANCH   5  18
ATOM     18  N   LIG d   1      -2.558  94.095 119.165  0.00  0.00     0.381 N 
ATOM     19  H   LIG d   1      -2.075  94.842 119.624  0.00  0.00    -0.090 HD
ATOM     20  H   LIG d   1      -3.017  93.540 119.865  0.00  0.00    -0.090 HD
ATOM     21  H   LIG d   1      -3.230  94.465 118.529  0.00  0.00    -0.090 HD
ENDBRANCH   5  18
BRANCH   3  22
ATOM     22  C   LIG d   1       2.083  93.142 118.465  0.00  0.00     0.382 C 
ATOM     23  O   LIG d   1       2.531  93.858 119.392  0.00  0.00    -0.241 OA
ATOM     24  O   LIG d   1       2.799  92.905 117.473  0.00  0.00    -0.241 OA
ENDBRANCH   3  22
TORSDOF 7
ENDMDL
MODEL 3
REMARK VINA RESULT:      -4.2      2.458      4.889
REMARK  7 active torsions:
REMARK  status: ('A' for Active; 'I' for Inactive)
REMARK    1  A    between atoms: C_2  and  C_3 
REMARK    2  A    between atoms: C_3  and  O_6 
REMARK    3  A    between atoms: C_3  and  C_4 
REMARK    4  A    between atoms: C_7  and  O_6 
REMARK    5  A    between atoms: C_9  and  C_10 
REMARK    6  A    between atoms: N_15  and  C_14 
REMARK    7  A    between atoms: N_20  and  C_19 
REMARK       I    between atoms: C_22  and  N_20 
ROOT
ATOM      1  C   LIG d   1      -1.045  91.413 118.084  0.00  0.00     0.161 C 
ATOM      2  C   LIG d   1      -2.397  91.524 118.449  0.00  0.00     0.016 C 
ATOM      3  C   LIG d   1      -3.342  90.490 118.256  0.00  0.00     0.038 C 
ATOM      4  C   LIG d   1      -2.964  89.212 117.819  0.00  0.00     0.028 C 
ATOM      5  C   LIG d   1      -1.702  89.213 116.963  0.00  0.00    -0.047 C 
ATOM      6  C   LIG d   1      -0.591  89.987 117.708  0.00  0.00     0.091 C 
ENDROOT
BRANCH   1   7
ATOM      7  O   LIG d   1      -0.211  91.946 119.131  0.00  0.00    -0.368 OA
BRANCH   7   8
ATOM      8  C   LIG d   1       0.502  93.168 118.820  0.00  0.00     0.119 C 
BRANCH   8   9
ATOM      9  C   LIG d   1       1.968  92.972 119.254  0.00  0.00     0.028 C 
ATOM     10  C   LIG d   1       2.959  93.222 118.104  0.00  0.00     0.006 C 
ENDBRANCH   8   9
BRANCH   8  11
ATOM     11  C   LIG d   1      -0.015  94.343 119.655  0.00  0.00     0.028 C 
ATOM     12  C   LIG d   1      -1.272  94.992 119.056  0.00  0.00     0.006 C 
ENDBRANCH   8  11
ENDBRANCH   7   8
ENDBRANCH   1   7
BRANCH   6  13
ATOM     13  N   LIG d   1       0.653  90.109 116.904  0.00  0.00    -0.311 N 
ATOM     14  C   LIG d   1       1.853  89.744 117.351  0.00  0.00     0.210 C 
ATOM     15  C   LIG d   1       3.006  89.972 116.368  0.00  0.00     0.109 C 
ATOM     16  O   LIG d   1       2.069  89.224 118.456  0.00  0.00    -0.276 OA
ATOM     17  H   LIG d   1       0.565  90.492 115.983  0.00  0.00     0.149 HD
ENDBRANCH   6  13
BRANCH   5  18
ATOM     18  N   LIG d   1      -1.345  87.807 116.693  0.00  0.00     0.381 N 
ATOM     19  H   LIG d   1      -1.451  87.265 117.527  0.00  0.00    -0.090 HD
ATOM     20  H   LIG d   1      -0.382  87.765 116.409  0.00  0.00    -0.090 HD
ATOM     21  H   LIG d   1      -1.928  87.440 115.973  0.00  0.00    -0.090 HD
ENDBRANCH   5  18
BRANCH   3  22
ATOM     22  C   LIG d   1      -4.690  90.743 118.463  0.00  0.00     0.382 C 
ATOM     23  O   LIG d   1      -5.548  90.222 117.711  0.00  0.00    -0.241 OA
ATOM     24  O   LIG d   1      -5.055  91.522 119.364  0.00  0.00    -0.241 OA
ENDBRANCH   3  22
TORSDOF 7
ENDMDL
MODEL 4
REMARK VINA RESULT:      -3.9      1.773      2.638
REMARK  7 active torsions:
REMARK  status: ('A' for Active; 'I' for Inactive)
REMARK    1  A    between atoms: C_2  and  C_3 
REMARK    2  A    between atoms: C_3  and  O_6 
REMARK    3  A    between atoms: C_3  and  C_4 
REMARK    4  A    between atoms: C_7  and  O_6 
REMARK    5  A    between atoms: C_9  and  C_10 
REMARK    6  A    between atoms: N_15  and  C_14 
REMARK    7  A    between atoms: N_20  and  C_19 
REMARK       I    between atoms: C_22  and  N_20 
ROOT
ATOM      1  C   LIG d   1       1.115  89.646 117.009  0.00  0.00     0.161 C 
ATOM      2  C   LIG d   1      -0.240  89.280 116.952  0.00  0.00     0.016 C 
ATOM      3  C   LIG d   1      -1.267  89.993 117.612  0.00  0.00     0.038 C 
ATOM      4  C   LIG d   1      -1.026  91.217 118.254  0.00  0.00     0.028 C 
ATOM      5  C   LIG d   1       0.404  91.360 118.766  0.00  0.00    -0.047 C 
ATOM      6  C   LIG d   1       1.383  91.040 117.613  0.00  0.00     0.091 C 
ENDROOT
BRANCH   1   7
ATOM      7  O   LIG d   1       1.704  89.547 115.697  0.00  0.00    -0.368 OA
BRANCH   7   8
ATOM      8  C   LIG d   1       2.911  88.751 115.599  0.00  0.00     0.119 C 
BRANCH   8   9
ATOM      9  C   LIG d   1       3.998  89.637 114.959  0.00  0.00     0.028 C 
ATOM     10  C   LIG d   1       4.089  89.445 113.435  0.00  0.00     0.006 C 
ENDBRANCH   8   9
BRANCH   8  11
ATOM     11  C   LIG d   1       2.726  87.576 114.635  0.00  0.00     0.028 C 
ATOM     12  C   LIG d   1       2.228  86.302 115.336  0.00  0.00     0.006 C 
ENDBRANCH   8  11
ENDBRANCH   7   8
ENDBRANCH   1   7
BRANCH   6  13
ATOM     13  N   LIG d   1       2.804  91.075 118.050  0.00  0.00    -0.311 N 
ATOM     14  C   LIG d   1       3.588  92.143 117.909  0.00  0.00     0.210 C 
ATOM     15  C   LIG d   1       5.024  91.960 118.408  0.00  0.00     0.109 C 
ATOM     16  O   LIG d   1       3.221  93.234 117.448  0.00  0.00    -0.276 OA
ATOM     17  H   LIG d   1       3.174  90.242 118.464  0.00  0.00     0.149 HD
ENDBRANCH   6  13
BRANCH   5  18
ATOM     18  N   LIG d   1       0.555  92.731 119.289  0.00  0.00     0.381 N 
ATOM     19  H   LIG d   1       0.672  93.372 118.530  0.00  0.00    -0.090 HD
ATOM     20  H   LIG d   1       1.377  92.771 119.865  0.00  0.00    -0.090 HD
ATOM     21  H   LIG d   1      -0.247  92.982 119.824  0.00  0.00    -0.090 HD
ENDBRANCH   5  18
BRANCH   3  22
ATOM     22  C   LIG d   1      -2.547  89.462 117.667  0.00  0.00     0.382 C 
ATOM     23  O   LIG d   1      -3.373  89.901 118.502  0.00  0.00    -0.241 OA
ATOM     24  O   LIG d   1      -2.871  88.518 116.921  0.00  0.00    -0.241 OA
ENDBRANCH   3  22
TORSDOF 7
ENDMDL
MODEL 5
REMARK VINA RESULT:      -3.9      2.230      4.207
REMARK  7 active torsions:
REMARK  status: ('A' for Active; 'I' for Inactive)
REMARK    1  A    between atoms: C_2  and  C_3 
REMARK    2  A    between atoms: C_3  and  O_6 
REMARK    3  A    between atoms: C_3  and  C_4 
REMARK    4  A    between atoms: C_7  and  O_6 
REMARK    5  A    between atoms: C_9  and  C_10 
REMARK    6  A    between atoms: N_15  and  C_14 
REMARK    7  A    between atoms: N_20  and  C_19 
REMARK       I    between atoms: C_22  and  N_20 
ROOT
ATOM      1  C   LIG d   1       2.418  90.318 117.020  0.00  0.00     0.161 C 
ATOM      2  C   LIG d   1       1.325  89.514 116.656  0.00  0.00     0.016 C 
ATOM      3  C   LIG d   1       0.032  89.661 117.208  0.00  0.00     0.038 C 
ATOM      4  C   LIG d   1      -0.295  90.728 118.057  0.00  0.00     0.028 C 
ATOM      5  C   LIG d   1       0.897  91.263 118.844  0.00  0.00    -0.047 C 
ATOM      6  C   LIG d   1       2.054  91.559 117.862  0.00  0.00     0.091 C 
ENDROOT
BRANCH   1   7
ATOM      7  O   LIG d   1       3.151  90.709 115.842  0.00  0.00    -0.368 OA
BRANCH   7   8
ATOM      8  C   LIG d   1       4.494  90.180 115.723  0.00  0.00     0.119 C 
BRANCH   8   9
ATOM      9  C   LIG d   1       4.537  89.307 114.454  0.00  0.00     0.028 C 
ATOM     10  C   LIG d   1       5.906  89.354 113.755  0.00  0.00     0.006 C 
ENDBRANCH   8   9
BRANCH   8  11
ATOM     11  C   LIG d   1       4.824  89.231 116.879  0.00  0.00     0.028 C 
ATOM     12  C   LIG d   1       6.020  89.708 117.719  0.00  0.00     0.006 C 
ENDBRANCH   8  11
ENDBRANCH   7   8
ENDBRANCH   1   7
BRANCH   6  13
ATOM     13  N   LIG d   1       3.288  92.007 118.559  0.00  0.00    -0.311 N 
ATOM     14  C   LIG d   1       3.963  93.105 118.222  0.00  0.00     0.210 C 
ATOM     15  C   LIG d   1       5.219  93.374 119.057  0.00  0.00     0.109 C 
ATOM     16  O   LIG d   1       3.622  93.900 117.333  0.00  0.00    -0.276 OA
ATOM     17  H   LIG d   1       3.618  91.438 119.313  0.00  0.00     0.149 HD
ENDBRANCH   6  13
BRANCH   5  18
ATOM     18  N   LIG d   1       0.445  92.458 119.581  0.00  0.00     0.381 N 
ATOM     19  H   LIG d   1       0.714  93.284 119.086  0.00  0.00    -0.090 HD
ATOM     20  H   LIG d   1       0.890  92.471 120.482  0.00  0.00    -0.090 HD
ATOM     21  H   LIG d   1      -0.545  92.436 119.692  0.00  0.00    -0.090 HD
ENDBRANCH   5  18
BRANCH   3  22
ATOM     22  C   LIG d   1      -0.941  88.709 116.942  0.00  0.00     0.382 C 
ATOM     23  O   LIG d   1      -2.130  88.917 117.283  0.00  0.00    -0.241 OA
ATOM     24  O   LIG d   1      -0.636  87.627 116.406  0.00  0.00    -0.241 OA
ENDBRANCH   3  22
TORSDOF 7
ENDMDL
MODEL 6
REMARK VINA RESULT:      -3.9      2.803      5.314
REMARK  7 active torsions:
REMARK  status: ('A' for Active; 'I' for Inactive)
REMARK    1  A    between atoms: C_2  and  C_3 
REMARK    2  A    between atoms: C_3  and  O_6 
REMARK    3  A    between atoms: C_3  and  C_4 
REMARK    4  A    between atoms: C_7  and  O_6 
REMARK    5  A    between atoms: C_9  and  C_10 
REMARK    6  A    between atoms: N_15  and  C_14 
REMARK    7  A    between atoms: N_20  and  C_19 
REMARK       I    between atoms: C_22  and  N_20 
ROOT
ATOM      1  C   LIG d   1      -1.854  91.333 118.872  0.00  0.00     0.161 C 
ATOM      2  C   LIG d   1      -3.257  91.376 118.822  0.00  0.00     0.016 C 
ATOM      3  C   LIG d   1      -4.042  90.409 118.153  0.00  0.00     0.038 C 
ATOM      4  C   LIG d   1      -3.480  89.242 117.614  0.00  0.00     0.028 C 
ATOM      5  C   LIG d   1      -2.021  89.407 117.201  0.00  0.00    -0.047 C 
ATOM      6  C   LIG d   1      -1.229  90.008 118.385  0.00  0.00     0.091 C 
ENDROOT
BRANCH   1   7
ATOM      7  O   LIG d   1      -1.403  91.638 120.207  0.00  0.00    -0.368 OA
BRANCH   7   8
ATOM      8  C   LIG d   1      -0.710  92.899 120.373  0.00  0.00     0.119 C 
BRANCH   8   9
ATOM      9  C   LIG d   1      -0.769  93.641 119.024  0.00  0.00     0.028 C 
ATOM     10  C   LIG d   1      -1.574  94.949 119.108  0.00  0.00     0.006 C 
ENDBRANCH   8   9
BRANCH   8  11
ATOM     11  C   LIG d   1       0.781  92.683 120.652  0.00  0.00     0.028 C 
ATOM     12  C   LIG d   1       1.681  93.217 119.527  0.00  0.00     0.006 C 
ENDBRANCH   8  11
ENDBRANCH   7   8
ENDBRANCH   1   7
BRANCH   6  13
ATOM     13  N   LIG d   1       0.190  90.281 118.038  0.00  0.00    -0.311 N 
ATOM     14  C   LIG d   1       1.184  89.435 118.302  0.00  0.00     0.210 C 
ATOM     15  C   LIG d   1       2.575  89.920 117.879  0.00  0.00     0.109 C 
ATOM     16  O   LIG d   1       1.043  88.316 118.817  0.00  0.00    -0.276 OA
ATOM     17  H   LIG d   1       0.390  91.153 117.589  0.00  0.00     0.149 HD
ENDBRANCH   6  13
BRANCH   5  18
ATOM     18  N   LIG d   1      -1.522  88.082 116.786  0.00  0.00     0.381 N 
ATOM     19  H   LIG d   1      -1.742  87.924 115.823  0.00  0.00    -0.090 HD
ATOM     20  H   LIG d   1      -1.981  87.376 117.335  0.00  0.00    -0.090 HD
ATOM     21  H   LIG d   1      -0.537  88.031 116.922  0.00  0.00    -0.090 HD
ENDBRANCH   5  18
BRANCH   3  22
ATOM     22  C   LIG d   1      -5.401  90.624 117.984  0.00  0.00     0.382 C 
ATOM     23  O   LIG d   1      -6.029  89.997 117.097  0.00  0.00    -0.241 OA
ATOM     24  O   LIG d   1      -5.998  91.469 118.677  0.00  0.00    -0.241 OA
ENDBRANCH   3  22
TORSDOF 7
ENDMDL
MODEL 7
REMARK VINA RESULT:      -3.9      2.197      3.971
REMARK  7 active torsions:
REMARK  status: ('A' for Active; 'I' for Inactive)
REMARK    1  A    between atoms: C_2  and  C_3 
REMARK    2  A    between atoms: C_3  and  O_6 
REMARK    3  A    between atoms: C_3  and  C_4 
REMARK    4  A    between atoms: C_7  and  O_6 
REMARK    5  A    between atoms: C_9  and  C_10 
REMARK    6  A    between atoms: N_15  and  C_14 
REMARK    7  A    between atoms: N_20  and  C_19 
REMARK       I    between atoms: C_22  and  N_20 
ROOT
ATOM      1  C   LIG d   1       2.288  90.319 117.101  0.00  0.00     0.161 C 
ATOM      2  C   LIG d   1       1.169  89.547 116.746  0.00  0.00     0.016 C 
ATOM      3  C   LIG d   1      -0.128  89.776 117.258  0.00  0.00     0.038 C 
ATOM      4  C   LIG d   1      -0.427  90.895 118.049  0.00  0.00     0.028 C 
ATOM      5  C   LIG d   1       0.770  91.413 118.841  0.00  0.00    -0.047 C 
ATOM      6  C   LIG d   1       1.961  91.612 117.876  0.00  0.00     0.091 C 
ENDROOT
BRANCH   1   7
ATOM      7  O   LIG d   1       3.065  90.622 115.926  0.00  0.00    -0.368 OA
BRANCH   7   8
ATOM      8  C   LIG d   1       4.084  89.656 115.568  0.00  0.00     0.119 C 
BRANCH   8   9
ATOM      9  C   LIG d   1       5.411  90.129 116.192  0.00  0.00     0.028 C 
ATOM     10  C   LIG d   1       6.321  88.957 116.596  0.00  0.00     0.006 C 
ENDBRANCH   8   9
BRANCH   8  11
ATOM     11  C   LIG d   1       4.329  89.638 114.056  0.00  0.00     0.028 C 
ATOM     12  C   LIG d   1       4.140  88.244 113.438  0.00  0.00     0.006 C 
ENDBRANCH   8  11
ENDBRANCH   7   8
ENDBRANCH   1   7
BRANCH   6  13
ATOM     13  N   LIG d   1       3.197  92.037 118.583  0.00  0.00    -0.311 N 
ATOM     14  C   LIG d   1       3.913  93.104 118.232  0.00  0.00     0.210 C 
ATOM     15  C   LIG d   1       5.163  93.353 119.081  0.00  0.00     0.109 C 
ATOM     16  O   LIG d   1       3.613  93.887 117.317  0.00  0.00    -0.276 OA
ATOM     17  H   LIG d   1       3.496  91.477 119.357  0.00  0.00     0.149 HD
ENDBRANCH   6  13
BRANCH   5  18
ATOM     18  N   LIG d   1       0.354  92.659 119.512  0.00  0.00     0.381 N 
ATOM     19  H   LIG d   1       0.672  93.449 118.986  0.00  0.00    -0.090 HD
ATOM     20  H   LIG d   1       0.778  92.695 120.422  0.00  0.00    -0.090 HD
ATOM     21  H   LIG d   1      -0.638  92.685 119.598  0.00  0.00    -0.090 HD
ENDBRANCH   5  18
BRANCH   3  22
ATOM     22  C   LIG d   1      -1.137  88.856 117.011  0.00  0.00     0.382 C 
ATOM     23  O   LIG d   1      -2.314  89.107 117.365  0.00  0.00    -0.241 OA
ATOM     24  O   LIG d   1      -0.876  87.761 116.479  0.00  0.00    -0.241 OA
ENDBRANCH   3  22
TORSDOF 7
ENDMDL
MODEL 8
REMARK VINA RESULT:      -3.9      2.104      3.292
REMARK  7 active torsions:
REMARK  status: ('A' for Active; 'I' for Inactive)
REMARK    1  A    between atoms: C_2  and  C_3 
REMARK    2  A    between atoms: C_3  and  O_6 
REMARK    3  A    between atoms: C_3  and  C_4 
REMARK    4  A    between atoms: C_7  and  O_6 
REMARK    5  A    between atoms: C_9  and  C_10 
REMARK    6  A    between atoms: N_15  and  C_14 
REMARK    7  A    between atoms: N_20  and  C_19 
REMARK       I    between atoms: C_22  and  N_20 
ROOT
ATOM      1  C   LIG d   1      -0.258  90.705 119.409  0.00  0.00     0.161 C 
ATOM      2  C   LIG d   1      -1.565  90.224 119.224  0.00  0.00     0.016 C 
ATOM      3  C   LIG d   1      -2.634  91.030 118.770  0.00  0.00     0.038 C 
ATOM      4  C   LIG d   1      -2.434  92.344 118.323  0.00  0.00     0.028 C 
ATOM      5  C   LIG d   1      -1.232  93.026 118.967  0.00  0.00    -0.047 C 
ATOM      6  C   LIG d   1       0.003  92.108 118.822  0.00  0.00     0.091 C 
ENDROOT
BRANCH   1   7
ATOM      7  O   LIG d   1       0.692  89.757 118.884  0.00  0.00    -0.368 OA
BRANCH   7   8
ATOM      8  C   LIG d   1       0.427  89.263 117.548  0.00  0.00     0.119 C 
BRANCH   8   9
ATOM      9  C   LIG d   1       0.365  87.726 117.626  0.00  0.00     0.028 C 
ATOM     10  C   LIG d   1      -0.659  87.129 116.646  0.00  0.00     0.006 C 
ENDBRANCH   8   9
BRANCH   8  11
ATOM     11  C   LIG d   1       1.587  89.575 116.598  0.00  0.00     0.028 C 
ATOM     12  C   LIG d   1       2.963  89.349 117.245  0.00  0.00     0.006 C 
ENDBRANCH   8  11
ENDBRANCH   7   8
ENDBRANCH   1   7
BRANCH   6  13
ATOM     13  N   LIG d   1       1.205  92.662 119.499  0.00  0.00    -0.311 N 
ATOM     14  C   LIG d   1       2.334  92.961 118.860  0.00  0.00     0.210 C 
ATOM     15  C   LIG d   1       3.457  93.502 119.750  0.00  0.00     0.109 C 
ATOM     16  O   LIG d   1       2.502  92.860 117.635  0.00  0.00    -0.276 OA
ATOM     17  H   LIG d   1       1.145  92.806 120.488  0.00  0.00     0.149 HD
ENDBRANCH   6  13
BRANCH   5  18
ATOM     18  N   LIG d   1      -1.058  94.336 118.312  0.00  0.00     0.381 N 
ATOM     19  H   LIG d   1      -1.858  94.911 118.488  0.00  0.00    -0.090 HD
ATOM     20  H   LIG d   1      -0.982  94.196 117.320  0.00  0.00    -0.090 HD
ATOM     21  H   LIG d   1      -0.237  94.784 118.656  0.00  0.00    -0.090 HD
ENDBRANCH   5  18
BRANCH   3  22
ATOM     22  C   LIG d   1      -3.928  90.533 118.797  0.00  0.00     0.382 C 
ATOM     23  O   LIG d   1      -4.176  89.403 118.311  0.00  0.00    -0.241 OA
ATOM     24  O   LIG d   1      -4.859  91.219 119.260  0.00  0.00    -0.241 OA
ENDBRANCH   3  22
TORSDOF 7
ENDMDL
MODEL 9
REMARK VINA RESULT:      -3.9      3.508      5.692
REMARK  7 active torsions:
REMARK  status: ('A' for Active; 'I' for Inactive)
REMARK    1  A    between atoms: C_2  and  C_3 
REMARK    2  A    between atoms: C_3  and  O_6 
REMARK    3  A    between atoms: C_3  and  C_4 
REMARK    4  A    between atoms: C_7  and  O_6 
REMARK    5  A    between atoms: C_9  and  C_10 
REMARK    6  A    between atoms: N_15  and  C_14 
REMARK    7  A    between atoms: N_20  and  C_19 
REMARK       I    between atoms: C_22  and  N_20 
ROOT
ATOM      1  C   LIG d   1      -2.394  92.357 120.547  0.00  0.00     0.161 C 
ATOM      2  C   LIG d   1      -2.986  93.625 120.420  0.00  0.00     0.016 C 
ATOM      3  C   LIG d   1      -2.397  94.690 119.701  0.00  0.00     0.038 C 
ATOM      4  C   LIG d   1      -1.240  94.513 118.928  0.00  0.00     0.028 C 
ATOM      5  C   LIG d   1      -0.339  93.392 119.436  0.00  0.00    -0.047 C 
ATOM      6  C   LIG d   1      -1.186  92.112 119.619  0.00  0.00     0.091 C 
ENDROOT
BRANCH   1   7
ATOM      7  O   LIG d   1      -3.389  91.332 120.356  0.00  0.00    -0.368 OA
BRANCH   7   8
ATOM      8  C   LIG d   1      -3.873  91.158 119.002  0.00  0.00     0.119 C 
BRANCH   8   9
ATOM      9  C   LIG d   1      -5.364  91.547 118.991  0.00  0.00     0.028 C 
ATOM     10  C   LIG d   1      -6.103  91.003 117.756  0.00  0.00     0.006 C 
ENDBRANCH   8   9
BRANCH   8  11
ATOM     11  C   LIG d   1      -3.835  89.686 118.581  0.00  0.00     0.028 C 
ATOM     12  C   LIG d   1      -2.748  89.394 117.534  0.00  0.00     0.006 C 
ENDBRANCH   8  11
ENDBRANCH   7   8
ENDBRANCH   1   7
BRANCH   6  13
ATOM     13  N   LIG d   1      -0.399  90.989 120.193  0.00  0.00    -0.311 N 
ATOM     14  C   LIG d   1       0.316  90.142 119.454  0.00  0.00     0.210 C 
ATOM     15  C   LIG d   1       1.036  89.044 120.243  0.00  0.00     0.109 C 
ATOM     16  O   LIG d   1       0.447  90.215 118.223  0.00  0.00    -0.276 OA
ATOM     17  H   LIG d   1      -0.425  90.875 121.187  0.00  0.00     0.149 HD
ENDBRANCH   6  13
BRANCH   5  18
ATOM     18  N   LIG d   1       0.757  93.226 118.462  0.00  0.00     0.381 N 
ATOM     19  H   LIG d   1       1.620  93.080 118.946  0.00  0.00    -0.090 HD
ATOM     20  H   LIG d   1       0.838  94.066 117.917  0.00  0.00    -0.090 HD
ATOM     21  H   LIG d   1       0.567  92.451 117.865  0.00  0.00    -0.090 HD
ENDBRANCH   5  18
BRANCH   3  22
ATOM     22  C   LIG d   1      -2.946  95.961 119.783  0.00  0.00     0.382 C 
ATOM     23  O   LIG d   1      -2.228  96.969 119.577  0.00  0.00    -0.241 OA
ATOM     24  O   LIG d   1      -4.140  96.114 120.103  0.00  0.00    -0.241 OA
ENDBRANCH   3  22
TORSDOF 7
ENDMDL
