MODEL 1
REMARK VINA RESULT:      -5.7      0.000      0.000
REMARK  7 active torsions:
REMARK  status: ('A' for Active; 'I' for Inactive)
REMARK    1  A    between atoms: C_2  and  C_3 
REMARK    2  A    between atoms: C_3  and  O_6 
REMARK    3  A    between atoms: C_3  and  C_4 
REMARK    4  A    between atoms: C_7  and  O_6 
REMARK    5  A    between atoms: C_9  and  C_10 
REMARK    6  A    between atoms: N_15  and  C_14 
REMARK    7  A    between atoms: N_20  and  C_19 
REMARK       I    between atoms: C_22  and  N_20 
ROOT
ATOM      1  C   LIG d   1      -4.827  91.822 117.737  0.00  0.00     0.161 C 
ATOM      2  C   LIG d   1      -5.039  90.967 116.643  0.00  0.00     0.016 C 
ATOM      3  C   LIG d   1      -5.960  91.244 115.606  0.00  0.00     0.038 C 
ATOM      4  C   LIG d   1      -6.626  92.476 115.516  0.00  0.00     0.028 C 
ATOM      5  C   LIG d   1      -6.822  93.159 116.865  0.00  0.00    -0.047 C 
ATOM      6  C   LIG d   1      -5.463  93.221 117.598  0.00  0.00     0.091 C 
ENDROOT
BRANCH   1   7
ATOM      7  O   LIG d   1      -3.414  91.937 118.000  0.00  0.00    -0.368 OA
BRANCH   7   8
ATOM      8  C   LIG d   1      -2.880  91.047 119.011  0.00  0.00     0.119 C 
BRANCH   8   9
ATOM      9  C   LIG d   1      -2.167  91.917 120.064  0.00  0.00     0.028 C 
ATOM     10  C   LIG d   1      -1.331  93.041 119.429  0.00  0.00     0.006 C 
ENDBRANCH   8   9
BRANCH   8  11
ATOM     11  C   LIG d   1      -1.791  90.138 118.433  0.00  0.00     0.028 C 
ATOM     12  C   LIG d   1      -2.330  88.767 117.995  0.00  0.00     0.006 C 
ENDBRANCH   8  11
ENDBRANCH   7   8
ENDBRANCH   1   7
BRANCH   6  13
ATOM     13  N   LIG d   1      -5.580  93.799 118.963  0.00  0.00    -0.311 N 
ATOM     14  C   LIG d   1      -4.793  94.773 119.416  0.00  0.00     0.210 C 
ATOM     15  C   LIG d   1      -5.070  95.209 120.859  0.00  0.00     0.109 C 
ATOM     16  O   LIG d   1      -3.913  95.339 118.751  0.00  0.00    -0.276 OA
ATOM     17  H   LIG d   1      -6.289  93.419 119.559  0.00  0.00     0.149 HD
ENDBRANCH   6  13
BRANCH   5  18
ATOM     18  N   LIG d   1      -7.403  94.491 116.610  0.00  0.00     0.381 N 
ATOM     19  H   LIG d   1      -8.063  94.435 115.861  0.00  0.00    -0.090 HD
ATOM     20  H   LIG d   1      -6.668  95.119 116.336  0.00  0.00    -0.090 HD
ATOM     21  H   LIG d   1      -7.850  94.831 117.433  0.00  0.00    -0.090 HD
ENDBRANCH   5  18
BRANCH   3  22
ATOM     22  C   LIG d   1      -6.252  90.267 114.667  0.00  0.00     0.382 C 
ATOM     23  O   LIG d   1      -7.286  90.364 113.962  0.00  0.00    -0.241 OA
ATOM     24  O   LIG d   1      -5.519  89.267 114.546  0.00  0.00    -0.241 OA
ENDBRANCH   3  22
TORSDOF 7
ENDMDL
MODEL 2
REMARK VINA RESULT:      -5.6      2.807      6.344
REMARK  7 active torsions:
REMARK  status: ('A' for Active; 'I' for Inactive)
REMARK    1  A    between atoms: C_2  and  C_3 
REMARK    2  A    between atoms: C_3  and  O_6 
REMARK    3  A    between atoms: C_3  and  C_4 
REMARK    4  A    between atoms: C_7  and  O_6 
REMARK    5  A    between atoms: C_9  and  C_10 
REMARK    6  A    between atoms: N_15  and  C_14 
REMARK    7  A    between atoms: N_20  and  C_19 
REMARK       I    between atoms: C_22  and  N_20 
ROOT
ATOM      1  C   LIG d   1      -6.767  92.593 118.096  0.00  0.00     0.161 C 
ATOM      2  C   LIG d   1      -5.727  93.316 118.706  0.00  0.00     0.016 C 
ATOM      3  C   LIG d   1      -4.358  93.057 118.471  0.00  0.00     0.038 C 
ATOM      4  C   LIG d   1      -3.932  92.151 117.487  0.00  0.00     0.028 C 
ATOM      5  C   LIG d   1      -4.941  91.041 117.209  0.00  0.00    -0.047 C 
ATOM      6  C   LIG d   1      -6.323  91.676 116.937  0.00  0.00     0.091 C 
ENDROOT
BRANCH   1   7
ATOM      7  O   LIG d   1      -7.797  93.499 117.653  0.00  0.00    -0.368 OA
BRANCH   7   8
ATOM      8  C   LIG d   1      -8.138  94.571 118.565  0.00  0.00     0.119 C 
BRANCH   8   9
ATOM      9  C   LIG d   1      -9.249  94.050 119.497  0.00  0.00     0.028 C 
ATOM     10  C   LIG d   1     -10.135  95.182 120.044  0.00  0.00     0.006 C 
ENDBRANCH   8   9
BRANCH   8  11
ATOM     11  C   LIG d   1      -8.756  95.759 117.822  0.00  0.00     0.028 C 
ATOM     12  C   LIG d   1      -7.717  96.819 117.423  0.00  0.00     0.006 C 
ENDBRANCH   8  11
ENDBRANCH   7   8
ENDBRANCH   1   7
BRANCH   6  13
ATOM     13  N   LIG d   1      -7.386  90.657 116.738  0.00  0.00    -0.311 N 
ATOM     14  C   LIG d   1      -7.671  90.116 115.555  0.00  0.00     0.210 C 
ATOM     15  C   LIG d   1      -8.817  89.099 115.568  0.00  0.00     0.109 C 
ATOM     16  O   LIG d   1      -7.063  90.358 114.502  0.00  0.00    -0.276 OA
ATOM     17  H   LIG d   1      -7.909  90.379 117.546  0.00  0.00     0.149 HD
ENDBRANCH   6  13
BRANCH   5  18
ATOM     18  N   LIG d   1      -4.433  90.252 116.071  0.00  0.00     0.381 N 
ATOM     19  H   LIG d   1      -4.824  89.332 116.095  0.00  0.00    -0.090 HD
ATOM     20  H   LIG d   1      -3.434  90.172 116.151  0.00  0.00    -0.090 HD
ATOM     21  H   LIG d   1      -4.670  90.700 115.213  0.00  0.00    -0.090 HD
ENDBRANCH   5  18
BRANCH   3  22
ATOM     22  C   LIG d   1      -3.396  93.679 119.252  0.00  0.00     0.382 C 
ATOM     23  O   LIG d   1      -3.585  94.849 119.664  0.00  0.00    -0.241 OA
ATOM     24  O   LIG d   1      -2.324  93.102 119.514  0.00  0.00    -0.241 OA
ENDBRANCH   3  22
TORSDOF 7
ENDMDL
MODEL 3
REMARK VINA RESULT:      -5.4      2.451      4.686
REMARK  7 active torsions:
REMARK  status: ('A' for Active; 'I' for Inactive)
REMARK    1  A    between atoms: C_2  and  C_3 
REMARK    2  A    between atoms: C_3  and  O_6 
REMARK    3  A    between atoms: C_3  and  C_4 
REMARK    4  A    between atoms: C_7  and  O_6 
REMARK    5  A    between atoms: C_9  and  C_10 
REMARK    6  A    between atoms: N_15  and  C_14 
REMARK    7  A    between atoms: N_20  and  C_19 
REMARK       I    between atoms: C_22  and  N_20 
ROOT
ATOM      1  C   LIG d   1      -6.461  93.702 117.595  0.00  0.00     0.161 C 
ATOM      2  C   LIG d   1      -6.955  92.540 116.980  0.00  0.00     0.016 C 
ATOM      3  C   LIG d   1      -6.162  91.399 116.721  0.00  0.00     0.038 C 
ATOM      4  C   LIG d   1      -4.848  91.285 117.200  0.00  0.00     0.028 C 
ATOM      5  C   LIG d   1      -4.152  92.630 117.383  0.00  0.00    -0.047 C 
ATOM      6  C   LIG d   1      -5.060  93.555 118.225  0.00  0.00     0.091 C 
ENDROOT
BRANCH   1   7
ATOM      7  O   LIG d   1      -7.405  94.173 118.577  0.00  0.00    -0.368 OA
BRANCH   7   8
ATOM      8  C   LIG d   1      -8.443  95.059 118.090  0.00  0.00     0.119 C 
BRANCH   8   9
ATOM      9  C   LIG d   1      -7.751  96.313 117.520  0.00  0.00     0.028 C 
ATOM     10  C   LIG d   1      -7.303  97.289 118.621  0.00  0.00     0.006 C 
ENDBRANCH   8   9
BRANCH   8  11
ATOM     11  C   LIG d   1      -9.324  95.568 119.235  0.00  0.00     0.028 C 
ATOM     12  C   LIG d   1      -9.907  94.431 120.089  0.00  0.00     0.006 C 
ENDBRANCH   8  11
ENDBRANCH   7   8
ENDBRANCH   1   7
BRANCH   6  13
ATOM     13  N   LIG d   1      -4.491  94.919 118.381  0.00  0.00    -0.311 N 
ATOM     14  C   LIG d   1      -4.113  95.426 119.553  0.00  0.00     0.210 C 
ATOM     15  C   LIG d   1      -3.572  96.858 119.493  0.00  0.00     0.109 C 
ATOM     16  O   LIG d   1      -4.144  94.814 120.631  0.00  0.00    -0.276 OA
ATOM     17  H   LIG d   1      -4.401  95.473 117.552  0.00  0.00     0.149 HD
ENDBRANCH   6  13
BRANCH   5  18
ATOM     18  N   LIG d   1      -2.844  92.372 118.016  0.00  0.00     0.381 N 
ATOM     19  H   LIG d   1      -2.160  92.179 117.313  0.00  0.00    -0.090 HD
ATOM     20  H   LIG d   1      -2.924  91.564 118.609  0.00  0.00    -0.090 HD
ATOM     21  H   LIG d   1      -2.565  93.161 118.555  0.00  0.00    -0.090 HD
ENDBRANCH   5  18
BRANCH   3  22
ATOM     22  C   LIG d   1      -6.669  90.372 115.940  0.00  0.00     0.382 C 
ATOM     23  O   LIG d   1      -7.909  90.202 115.855  0.00  0.00    -0.241 OA
ATOM     24  O   LIG d   1      -5.901  89.585 115.354  0.00  0.00    -0.241 OA
ENDBRANCH   3  22
TORSDOF 7
ENDMDL
MODEL 4
REMARK VINA RESULT:      -5.3      2.537      5.147
REMARK  7 active torsions:
REMARK  status: ('A' for Active; 'I' for Inactive)
REMARK    1  A    between atoms: C_2  and  C_3 
REMARK    2  A    between atoms: C_3  and  O_6 
REMARK    3  A    between atoms: C_3  and  C_4 
REMARK    4  A    between atoms: C_7  and  O_6 
REMARK    5  A    between atoms: C_9  and  C_10 
REMARK    6  A    between atoms: N_15  and  C_14 
REMARK    7  A    between atoms: N_20  and  C_19 
REMARK       I    between atoms: C_22  and  N_20 
ROOT
ATOM      1  C   LIG d   1      -5.684  91.822 117.929  0.00  0.00     0.161 C 
ATOM      2  C   LIG d   1      -7.001  92.175 118.265  0.00  0.00     0.016 C 
ATOM      3  C   LIG d   1      -7.391  93.489 118.611  0.00  0.00     0.038 C 
ATOM      4  C   LIG d   1      -6.514  94.577 118.496  0.00  0.00     0.028 C 
ATOM      5  C   LIG d   1      -5.046  94.191 118.646  0.00  0.00    -0.047 C 
ATOM      6  C   LIG d   1      -4.736  93.017 117.690  0.00  0.00     0.091 C 
ENDROOT
BRANCH   1   7
ATOM      7  O   LIG d   1      -5.689  90.950 116.782  0.00  0.00    -0.368 OA
BRANCH   7   8
ATOM      8  C   LIG d   1      -6.805  91.102 115.870  0.00  0.00     0.119 C 
BRANCH   8   9
ATOM      9  C   LIG d   1      -7.157  89.702 115.331  0.00  0.00     0.028 C 
ATOM     10  C   LIG d   1      -8.598  89.287 115.673  0.00  0.00     0.006 C 
ENDBRANCH   8   9
BRANCH   8  11
ATOM     11  C   LIG d   1      -6.411  91.923 114.639  0.00  0.00     0.028 C 
ATOM     12  C   LIG d   1      -7.616  92.299 113.763  0.00  0.00     0.006 C 
ENDBRANCH   8  11
ENDBRANCH   7   8
ENDBRANCH   1   7
BRANCH   6  13
ATOM     13  N   LIG d   1      -3.343  92.521 117.835  0.00  0.00    -0.311 N 
ATOM     14  C   LIG d   1      -2.824  92.119 118.994  0.00  0.00     0.210 C 
ATOM     15  C   LIG d   1      -1.363  91.665 118.925  0.00  0.00     0.109 C 
ATOM     16  O   LIG d   1      -3.445  92.066 120.066  0.00  0.00    -0.276 OA
ATOM     17  H   LIG d   1      -2.777  92.501 117.008  0.00  0.00     0.149 HD
ENDBRANCH   6  13
BRANCH   5  18
ATOM     18  N   LIG d   1      -4.238  95.393 118.368  0.00  0.00     0.381 N 
ATOM     19  H   LIG d   1      -3.265  95.168 118.429  0.00  0.00    -0.090 HD
ATOM     20  H   LIG d   1      -4.445  96.091 119.060  0.00  0.00    -0.090 HD
ATOM     21  H   LIG d   1      -4.449  95.743 117.459  0.00  0.00    -0.090 HD
ENDBRANCH   5  18
BRANCH   3  22
ATOM     22  C   LIG d   1      -8.662  93.718 119.116  0.00  0.00     0.382 C 
ATOM     23  O   LIG d   1      -9.142  92.946 119.981  0.00  0.00    -0.241 OA
ATOM     24  O   LIG d   1      -9.353  94.661 118.685  0.00  0.00    -0.241 OA
ENDBRANCH   3  22
TORSDOF 7
ENDMDL
MODEL 5
REMARK VINA RESULT:      -5.1      2.052      4.073
REMARK  7 active torsions:
REMARK  status: ('A' for Active; 'I' for Inactive)
REMARK    1  A    between atoms: C_2  and  C_3 
REMARK    2  A    between atoms: C_3  and  O_6 
REMARK    3  A    between atoms: C_3  and  C_4 
REMARK    4  A    between atoms: C_7  and  O_6 
REMARK    5  A    between atoms: C_9  and  C_10 
REMARK    6  A    between atoms: N_15  and  C_14 
REMARK    7  A    between atoms: N_20  and  C_19 
REMARK       I    between atoms: C_22  and  N_20 
ROOT
ATOM      1  C   LIG d   1      -5.532  92.892 117.028  0.00  0.00     0.161 C 
ATOM      2  C   LIG d   1      -6.496  92.371 116.148  0.00  0.00     0.016 C 
ATOM      3  C   LIG d   1      -6.409  91.083 115.573  0.00  0.00     0.038 C 
ATOM      4  C   LIG d   1      -5.422  90.164 115.959  0.00  0.00     0.028 C 
ATOM      5  C   LIG d   1      -4.143  90.824 116.462  0.00  0.00    -0.047 C 
ATOM      6  C   LIG d   1      -4.507  91.862 117.547  0.00  0.00     0.091 C 
ENDROOT
BRANCH   1   7
ATOM      7  O   LIG d   1      -6.184  93.551 118.132  0.00  0.00    -0.368 OA
BRANCH   7   8
ATOM      8  C   LIG d   1      -6.937  92.698 119.028  0.00  0.00     0.119 C 
BRANCH   8   9
ATOM      9  C   LIG d   1      -8.334  93.327 119.200  0.00  0.00     0.028 C 
ATOM     10  C   LIG d   1      -8.452  94.693 118.505  0.00  0.00     0.006 C 
ENDBRANCH   8   9
BRANCH   8  11
ATOM     11  C   LIG d   1      -6.324  92.684 120.432  0.00  0.00     0.028 C 
ATOM     12  C   LIG d   1      -5.451  93.917 120.712  0.00  0.00     0.006 C 
ENDBRANCH   8  11
ENDBRANCH   7   8
ENDBRANCH   1   7
BRANCH   6  13
ATOM     13  N   LIG d   1      -3.321  92.614 118.033  0.00  0.00    -0.311 N 
ATOM     14  C   LIG d   1      -2.619  92.261 119.109  0.00  0.00     0.210 C 
ATOM     15  C   LIG d   1      -1.446  93.185 119.447  0.00  0.00     0.109 C 
ATOM     16  O   LIG d   1      -2.838  91.252 119.796  0.00  0.00    -0.276 OA
ATOM     17  H   LIG d   1      -3.054  93.429 117.516  0.00  0.00     0.149 HD
ENDBRANCH   6  13
BRANCH   5  18
ATOM     18  N   LIG d   1      -3.256  89.755 116.959  0.00  0.00     0.381 N 
ATOM     19  H   LIG d   1      -2.911  89.996 117.866  0.00  0.00    -0.090 HD
ATOM     20  H   LIG d   1      -2.472  89.667 116.336  0.00  0.00    -0.090 HD
ATOM     21  H   LIG d   1      -3.752  88.892 117.003  0.00  0.00    -0.090 HD
ENDBRANCH   5  18
BRANCH   3  22
ATOM     22  C   LIG d   1      -7.294  90.717 114.569  0.00  0.00     0.382 C 
ATOM     23  O   LIG d   1      -8.089  91.564 114.096  0.00  0.00    -0.241 OA
ATOM     24  O   LIG d   1      -7.336  89.541 114.163  0.00  0.00    -0.241 OA
ENDBRANCH   3  22
TORSDOF 7
ENDMDL
MODEL 6
REMARK VINA RESULT:      -5.1      2.165      5.056
REMARK  7 active torsions:
REMARK  status: ('A' for Active; 'I' for Inactive)
REMARK    1  A    between atoms: C_2  and  C_3 
REMARK    2  A    between atoms: C_3  and  O_6 
REMARK    3  A    between atoms: C_3  and  C_4 
REMARK    4  A    between atoms: C_7  and  O_6 
REMARK    5  A    between atoms: C_9  and  C_10 
REMARK    6  A    between atoms: N_15  and  C_14 
REMARK    7  A    between atoms: N_20  and  C_19 
REMARK       I    between atoms: C_22  and  N_20 
ROOT
ATOM      1  C   LIG d   1      -5.083  91.323 116.935  0.00  0.00     0.161 C 
ATOM      2  C   LIG d   1      -4.070  90.353 117.005  0.00  0.00     0.016 C 
ATOM      3  C   LIG d   1      -2.899  90.505 117.783  0.00  0.00     0.038 C 
ATOM      4  C   LIG d   1      -2.731  91.580 118.668  0.00  0.00     0.028 C 
ATOM      5  C   LIG d   1      -3.496  92.832 118.252  0.00  0.00    -0.047 C 
ATOM      6  C   LIG d   1      -4.969  92.453 117.980  0.00  0.00     0.091 C 
ENDROOT
BRANCH   1   7
ATOM      7  O   LIG d   1      -6.374  90.688 117.022  0.00  0.00    -0.368 OA
BRANCH   7   8
ATOM      8  C   LIG d   1      -7.266  90.902 115.900  0.00  0.00     0.119 C 
BRANCH   8   9
ATOM      9  C   LIG d   1      -7.604  89.520 115.308  0.00  0.00     0.028 C 
ATOM     10  C   LIG d   1      -9.027  89.061 115.667  0.00  0.00     0.006 C 
ENDBRANCH   8   9
BRANCH   8  11
ATOM     11  C   LIG d   1      -6.568  91.666 114.771  0.00  0.00     0.028 C 
ATOM     12  C   LIG d   1      -7.317  91.568 113.433  0.00  0.00     0.006 C 
ENDBRANCH   8  11
ENDBRANCH   7   8
ENDBRANCH   1   7
BRANCH   6  13
ATOM     13  N   LIG d   1      -5.769  93.604 117.487  0.00  0.00    -0.311 N 
ATOM     14  C   LIG d   1      -6.902  94.008 118.058  0.00  0.00     0.210 C 
ATOM     15  C   LIG d   1      -7.579  95.203 117.379  0.00  0.00     0.109 C 
ATOM     16  O   LIG d   1      -7.394  93.512 119.083  0.00  0.00    -0.276 OA
ATOM     17  H   LIG d   1      -5.426  94.084 116.678  0.00  0.00     0.149 HD
ENDBRANCH   6  13
BRANCH   5  18
ATOM     18  N   LIG d   1      -3.344  93.826 119.331  0.00  0.00     0.381 N 
ATOM     19  H   LIG d   1      -3.498  94.746 118.969  0.00  0.00    -0.090 HD
ATOM     20  H   LIG d   1      -2.405  93.780 119.686  0.00  0.00    -0.090 HD
ATOM     21  H   LIG d   1      -3.993  93.637 120.063  0.00  0.00    -0.090 HD
ENDBRANCH   5  18
BRANCH   3  22
ATOM     22  C   LIG d   1      -1.862  89.594 117.649  0.00  0.00     0.382 C 
ATOM     23  O   LIG d   1      -1.918  88.488 118.239  0.00  0.00    -0.241 OA
ATOM     24  O   LIG d   1      -0.851  89.882 116.980  0.00  0.00    -0.241 OA
ENDBRANCH   3  22
TORSDOF 7
ENDMDL
MODEL 7
REMARK VINA RESULT:      -4.9      1.544      4.961
REMARK  7 active torsions:
REMARK  status: ('A' for Active; 'I' for Inactive)
REMARK    1  A    between atoms: C_2  and  C_3 
REMARK    2  A    between atoms: C_3  and  O_6 
REMARK    3  A    between atoms: C_3  and  C_4 
REMARK    4  A    between atoms: C_7  and  O_6 
REMARK    5  A    between atoms: C_9  and  C_10 
REMARK    6  A    between atoms: N_15  and  C_14 
REMARK    7  A    between atoms: N_20  and  C_19 
REMARK       I    between atoms: C_22  and  N_20 
ROOT
ATOM      1  C   LIG d   1      -3.613  92.637 117.928  0.00  0.00     0.161 C 
ATOM      2  C   LIG d   1      -3.436  93.735 118.786  0.00  0.00     0.016 C 
ATOM      3  C   LIG d   1      -4.457  94.670 119.073  0.00  0.00     0.038 C 
ATOM      4  C   LIG d   1      -5.777  94.484 118.638  0.00  0.00     0.028 C 
ATOM      5  C   LIG d   1      -5.883  93.663 117.358  0.00  0.00    -0.047 C 
ATOM      6  C   LIG d   1      -5.078  92.355 117.532  0.00  0.00     0.091 C 
ENDROOT
BRANCH   1   7
ATOM      7  O   LIG d   1      -3.016  91.461 118.510  0.00  0.00    -0.368 OA
BRANCH   7   8
ATOM      8  C   LIG d   1      -1.590  91.306 118.312  0.00  0.00     0.119 C 
BRANCH   8   9
ATOM      9  C   LIG d   1      -1.370  89.989 117.543  0.00  0.00     0.028 C 
ATOM     10  C   LIG d   1      -2.599  89.066 117.596  0.00  0.00     0.006 C 
ENDBRANCH   8   9
BRANCH   8  11
ATOM     11  C   LIG d   1      -0.858  91.124 119.645  0.00  0.00     0.028 C 
ATOM     12  C   LIG d   1      -1.816  90.870 120.820  0.00  0.00     0.006 C 
ENDBRANCH   8  11
ENDBRANCH   7   8
ENDBRANCH   1   7
BRANCH   6  13
ATOM     13  N   LIG d   1      -5.059  91.531 116.295  0.00  0.00    -0.311 N 
ATOM     14  C   LIG d   1      -6.006  90.647 115.989  0.00  0.00     0.210 C 
ATOM     15  C   LIG d   1      -5.783  89.889 114.676  0.00  0.00     0.109 C 
ATOM     16  O   LIG d   1      -7.027  90.441 116.663  0.00  0.00    -0.276 OA
ATOM     17  H   LIG d   1      -4.283  91.657 115.676  0.00  0.00     0.149 HD
ENDBRANCH   6  13
BRANCH   5  18
ATOM     18  N   LIG d   1      -7.316  93.429 117.095  0.00  0.00     0.381 N 
ATOM     19  H   LIG d   1      -7.484  93.436 116.109  0.00  0.00    -0.090 HD
ATOM     20  H   LIG d   1      -7.848  94.173 117.511  0.00  0.00    -0.090 HD
ATOM     21  H   LIG d   1      -7.595  92.554 117.481  0.00  0.00    -0.090 HD
ENDBRANCH   5  18
BRANCH   3  22
ATOM     22  C   LIG d   1      -4.151  95.828 119.772  0.00  0.00     0.382 C 
ATOM     23  O   LIG d   1      -3.158  96.519 119.437  0.00  0.00    -0.241 OA
ATOM     24  O   LIG d   1      -4.829  96.168 120.760  0.00  0.00    -0.241 OA
ENDBRANCH   3  22
TORSDOF 7
ENDMDL
MODEL 8
REMARK VINA RESULT:      -4.8      2.131      4.304
REMARK  7 active torsions:
REMARK  status: ('A' for Active; 'I' for Inactive)
REMARK    1  A    between atoms: C_2  and  C_3 
REMARK    2  A    between atoms: C_3  and  O_6 
REMARK    3  A    between atoms: C_3  and  C_4 
REMARK    4  A    between atoms: C_7  and  O_6 
REMARK    5  A    between atoms: C_9  and  C_10 
REMARK    6  A    between atoms: N_15  and  C_14 
REMARK    7  A    between atoms: N_20  and  C_19 
REMARK       I    between atoms: C_22  and  N_20 
ROOT
ATOM      1  C   LIG d   1      -5.896  92.905 116.992  0.00  0.00     0.161 C 
ATOM      2  C   LIG d   1      -6.750  92.326 116.038  0.00  0.00     0.016 C 
ATOM      3  C   LIG d   1      -6.515  91.062 115.450  0.00  0.00     0.038 C 
ATOM      4  C   LIG d   1      -5.483  90.220 115.889  0.00  0.00     0.028 C 
ATOM      5  C   LIG d   1      -4.301  90.973 116.491  0.00  0.00    -0.047 C 
ATOM      6  C   LIG d   1      -4.825  91.953 117.565  0.00  0.00     0.091 C 
ENDROOT
BRANCH   1   7
ATOM      7  O   LIG d   1      -6.675  93.483 118.058  0.00  0.00    -0.368 OA
BRANCH   7   8
ATOM      8  C   LIG d   1      -6.920  94.908 117.968  0.00  0.00     0.119 C 
BRANCH   8   9
ATOM      9  C   LIG d   1      -6.492  95.537 119.308  0.00  0.00     0.028 C 
ATOM     10  C   LIG d   1      -5.155  96.289 119.202  0.00  0.00     0.006 C 
ENDBRANCH   8   9
BRANCH   8  11
ATOM     11  C   LIG d   1      -8.417  95.209 117.838  0.00  0.00     0.028 C 
ATOM     12  C   LIG d   1      -9.184  94.994 119.152  0.00  0.00     0.006 C 
ENDBRANCH   8  11
ENDBRANCH   7   8
ENDBRANCH   1   7
BRANCH   6  13
ATOM     13  N   LIG d   1      -3.743  92.791 118.145  0.00  0.00    -0.311 N 
ATOM     14  C   LIG d   1      -3.554  92.940 119.454  0.00  0.00     0.210 C 
ATOM     15  C   LIG d   1      -2.393  93.863 119.839  0.00  0.00     0.109 C 
ATOM     16  O   LIG d   1      -4.216  92.370 120.334  0.00  0.00    -0.276 OA
ATOM     17  H   LIG d   1      -3.139  93.264 117.502  0.00  0.00     0.149 HD
ENDBRANCH   6  13
BRANCH   5  18
ATOM     18  N   LIG d   1      -3.363  89.971 117.031  0.00  0.00     0.381 N 
ATOM     19  H   LIG d   1      -2.866  90.357 117.809  0.00  0.00    -0.090 HD
ATOM     20  H   LIG d   1      -2.696  89.732 116.318  0.00  0.00    -0.090 HD
ATOM     21  H   LIG d   1      -3.860  89.157 117.317  0.00  0.00    -0.090 HD
ENDBRANCH   5  18
BRANCH   3  22
ATOM     22  C   LIG d   1      -7.295  90.646 114.381  0.00  0.00     0.382 C 
ATOM     23  O   LIG d   1      -7.105  89.516 113.869  0.00  0.00    -0.241 OA
ATOM     24  O   LIG d   1      -8.155  91.403 113.894  0.00  0.00    -0.241 OA
ENDBRANCH   3  22
TORSDOF 7
ENDMDL
MODEL 9
REMARK VINA RESULT:      -4.8      1.876      2.825
REMARK  7 active torsions:
REMARK  status: ('A' for Active; 'I' for Inactive)
REMARK    1  A    between atoms: C_2  and  C_3 
REMARK    2  A    between atoms: C_3  and  O_6 
REMARK    3  A    between atoms: C_3  and  C_4 
REMARK    4  A    between atoms: C_7  and  O_6 
REMARK    5  A    between atoms: C_9  and  C_10 
REMARK    6  A    between atoms: N_15  and  C_14 
REMARK    7  A    between atoms: N_20  and  C_19 
REMARK       I    between atoms: C_22  and  N_20 
ROOT
ATOM      1  C   LIG d   1      -3.738  90.401 117.536  0.00  0.00     0.161 C 
ATOM      2  C   LIG d   1      -4.646  90.024 116.533  0.00  0.00     0.016 C 
ATOM      3  C   LIG d   1      -5.655  90.881 116.035  0.00  0.00     0.038 C 
ATOM      4  C   LIG d   1      -5.727  92.233 116.402  0.00  0.00     0.028 C 
ATOM      5  C   LIG d   1      -5.149  92.517 117.784  0.00  0.00    -0.047 C 
ATOM      6  C   LIG d   1      -3.731  91.907 117.870  0.00  0.00     0.091 C 
ENDROOT
BRANCH   1   7
ATOM      7  O   LIG d   1      -2.412  89.959 117.186  0.00  0.00    -0.368 OA
BRANCH   7   8
ATOM      8  C   LIG d   1      -2.055  88.619 117.604  0.00  0.00     0.119 C 
BRANCH   8   9
ATOM      9  C   LIG d   1      -2.439  88.480 119.090  0.00  0.00     0.028 C 
ATOM     10  C   LIG d   1      -1.821  87.231 119.741  0.00  0.00     0.006 C 
ENDBRANCH   8   9
BRANCH   8  11
ATOM     11  C   LIG d   1      -0.539  88.405 117.555  0.00  0.00     0.028 C 
ATOM     12  C   LIG d   1       0.230  89.678 117.168  0.00  0.00     0.006 C 
ENDBRANCH   8  11
ENDBRANCH   7   8
ENDBRANCH   1   7
BRANCH   6  13
ATOM     13  N   LIG d   1      -3.126  92.067 119.218  0.00  0.00    -0.311 N 
ATOM     14  C   LIG d   1      -1.857  92.419 119.415  0.00  0.00     0.210 C 
ATOM     15  C   LIG d   1      -1.431  92.507 120.884  0.00  0.00     0.109 C 
ATOM     16  O   LIG d   1      -1.052  92.698 118.513  0.00  0.00    -0.276 OA
ATOM     17  H   LIG d   1      -3.717  91.890 120.007  0.00  0.00     0.149 HD
ENDBRANCH   6  13
BRANCH   5  18
ATOM     18  N   LIG d   1      -5.164  93.978 117.981  0.00  0.00     0.381 N 
ATOM     19  H   LIG d   1      -4.462  94.237 118.646  0.00  0.00    -0.090 HD
ATOM     20  H   LIG d   1      -6.060  94.248 118.347  0.00  0.00    -0.090 HD
ATOM     21  H   LIG d   1      -4.998  94.441 117.115  0.00  0.00    -0.090 HD
ENDBRANCH   5  18
BRANCH   3  22
ATOM     22  C   LIG d   1      -6.629  90.375 115.188  0.00  0.00     0.382 C 
ATOM     23  O   LIG d   1      -7.839  90.626 115.404  0.00  0.00    -0.241 OA
ATOM     24  O   LIG d   1      -6.317  89.634 114.236  0.00  0.00    -0.241 OA
ENDBRANCH   3  22
TORSDOF 7
ENDMDL
