MODEL 1
REMARK VINA RESULT:      -5.2      0.000      0.000
REMARK  7 active torsions:
REMARK  status: ('A' for Active; 'I' for Inactive)
REMARK    1  A    between atoms: C_2  and  C_3 
REMARK    2  A    between atoms: C_3  and  O_6 
REMARK    3  A    between atoms: C_3  and  C_4 
REMARK    4  A    between atoms: C_7  and  O_6 
REMARK    5  A    between atoms: C_9  and  C_10 
REMARK    6  A    between atoms: N_15  and  C_14 
REMARK    7  A    between atoms: N_20  and  C_19 
REMARK       I    between atoms: C_22  and  N_20 
ROOT
ATOM      1  C   LIG d   1      -5.611  91.646 119.204  0.00  0.00     0.161 C 
ATOM      2  C   LIG d   1      -6.869  92.143 118.824  0.00  0.00     0.016 C 
ATOM      3  C   LIG d   1      -7.170  93.523 118.746  0.00  0.00     0.038 C 
ATOM      4  C   LIG d   1      -6.181  94.507 118.897  0.00  0.00     0.028 C 
ATOM      5  C   LIG d   1      -5.016  94.064 119.776  0.00  0.00    -0.047 C 
ATOM      6  C   LIG d   1      -4.489  92.704 119.264  0.00  0.00     0.091 C 
ENDROOT
BRANCH   1   7
ATOM      7  O   LIG d   1      -5.231  90.562 118.333  0.00  0.00    -0.368 OA
BRANCH   7   8
ATOM      8  C   LIG d   1      -4.554  90.936 117.108  0.00  0.00     0.119 C 
BRANCH   8   9
ATOM      9  C   LIG d   1      -5.448  90.496 115.932  0.00  0.00     0.028 C 
ATOM     10  C   LIG d   1      -6.150  91.683 115.252  0.00  0.00     0.006 C 
ENDBRANCH   8   9
BRANCH   8  11
ATOM     11  C   LIG d   1      -3.246  90.160 116.935  0.00  0.00     0.028 C 
ATOM     12  C   LIG d   1      -2.968  89.194 118.098  0.00  0.00     0.006 C 
ENDBRANCH   8  11
ENDBRANCH   7   8
ENDBRANCH   1   7
BRANCH   6  13
ATOM     13  N   LIG d   1      -3.403  92.159 120.119  0.00  0.00    -0.311 N 
ATOM     14  C   LIG d   1      -2.108  92.316 119.848  0.00  0.00     0.210 C 
ATOM     15  C   LIG d   1      -1.154  91.657 120.849  0.00  0.00     0.109 C 
ATOM     16  O   LIG d   1      -1.659  92.966 118.892  0.00  0.00    -0.276 OA
ATOM     17  H   LIG d   1      -3.677  91.644 120.933  0.00  0.00     0.149 HD
ENDBRANCH   6  13
BRANCH   5  18
ATOM     18  N   LIG d   1      -3.997  95.131 119.735  0.00  0.00     0.381 N 
ATOM     19  H   LIG d   1      -3.511  95.101 118.861  0.00  0.00    -0.090 HD
ATOM     20  H   LIG d   1      -3.332  94.973 120.472  0.00  0.00    -0.090 HD
ATOM     21  H   LIG d   1      -4.430  96.020 119.853  0.00  0.00    -0.090 HD
ENDBRANCH   5  18
BRANCH   3  22
ATOM     22  C   LIG d   1      -8.481  93.931 118.554  0.00  0.00     0.382 C 
ATOM     23  O   LIG d   1      -9.324  93.785 119.471  0.00  0.00    -0.241 OA
ATOM     24  O   LIG d   1      -8.841  94.402 117.459  0.00  0.00    -0.241 OA
ENDBRANCH   3  22
TORSDOF 7
ENDMDL
MODEL 2
REMARK VINA RESULT:      -5.2      2.368      4.062
REMARK  7 active torsions:
REMARK  status: ('A' for Active; 'I' for Inactive)
REMARK    1  A    between atoms: C_2  and  C_3 
REMARK    2  A    between atoms: C_3  and  O_6 
REMARK    3  A    between atoms: C_3  and  C_4 
REMARK    4  A    between atoms: C_7  and  O_6 
REMARK    5  A    between atoms: C_9  and  C_10 
REMARK    6  A    between atoms: N_15  and  C_14 
REMARK    7  A    between atoms: N_20  and  C_19 
REMARK       I    between atoms: C_22  and  N_20 
ROOT
ATOM      1  C   LIG d   1      -5.529  92.630 118.697  0.00  0.00     0.161 C 
ATOM      2  C   LIG d   1      -5.950  93.724 119.473  0.00  0.00     0.016 C 
ATOM      3  C   LIG d   1      -7.056  94.537 119.136  0.00  0.00     0.038 C 
ATOM      4  C   LIG d   1      -7.915  94.218 118.074  0.00  0.00     0.028 C 
ATOM      5  C   LIG d   1      -7.238  93.416 116.967  0.00  0.00    -0.047 C 
ATOM      6  C   LIG d   1      -6.520  92.200 117.596  0.00  0.00     0.091 C 
ENDROOT
BRANCH   1   7
ATOM      7  O   LIG d   1      -5.217  91.515 119.555  0.00  0.00    -0.368 OA
BRANCH   7   8
ATOM      8  C   LIG d   1      -3.810  91.280 119.809  0.00  0.00     0.119 C 
BRANCH   8   9
ATOM      9  C   LIG d   1      -3.012  92.047 118.737  0.00  0.00     0.028 C 
ATOM     10  C   LIG d   1      -1.840  92.843 119.336  0.00  0.00     0.006 C 
ENDBRANCH   8   9
BRANCH   8  11
ATOM     11  C   LIG d   1      -3.446  89.806 119.608  0.00  0.00     0.028 C 
ATOM     12  C   LIG d   1      -3.062  89.480 118.156  0.00  0.00     0.006 C 
ENDBRANCH   8  11
ENDBRANCH   7   8
ENDBRANCH   1   7
BRANCH   6  13
ATOM     13  N   LIG d   1      -5.761  91.408 116.592  0.00  0.00    -0.311 N 
ATOM     14  C   LIG d   1      -6.216  90.278 116.055  0.00  0.00     0.210 C 
ATOM     15  C   LIG d   1      -5.266  89.610 115.055  0.00  0.00     0.109 C 
ATOM     16  O   LIG d   1      -7.328  89.781 116.287  0.00  0.00    -0.276 OA
ATOM     17  H   LIG d   1      -4.862  91.756 116.324  0.00  0.00     0.149 HD
ENDBRANCH   6  13
BRANCH   5  18
ATOM     18  N   LIG d   1      -8.278  93.034 115.993  0.00  0.00     0.381 N 
ATOM     19  H   LIG d   1      -8.064  93.428 115.098  0.00  0.00    -0.090 HD
ATOM     20  H   LIG d   1      -9.160  93.404 116.298  0.00  0.00    -0.090 HD
ATOM     21  H   LIG d   1      -8.331  92.042 115.923  0.00  0.00    -0.090 HD
ENDBRANCH   5  18
BRANCH   3  22
ATOM     22  C   LIG d   1      -7.289  95.707 119.842  0.00  0.00     0.382 C 
ATOM     23  O   LIG d   1      -8.046  96.587 119.366  0.00  0.00    -0.241 OA
ATOM     24  O   LIG d   1      -6.718  95.913 120.930  0.00  0.00    -0.241 OA
ENDBRANCH   3  22
TORSDOF 7
ENDMDL
MODEL 3
REMARK VINA RESULT:      -5.1      2.113      3.942
REMARK  7 active torsions:
REMARK  status: ('A' for Active; 'I' for Inactive)
REMARK    1  A    between atoms: C_2  and  C_3 
REMARK    2  A    between atoms: C_3  and  O_6 
REMARK    3  A    between atoms: C_3  and  C_4 
REMARK    4  A    between atoms: C_7  and  O_6 
REMARK    5  A    between atoms: C_9  and  C_10 
REMARK    6  A    between atoms: N_15  and  C_14 
REMARK    7  A    between atoms: N_20  and  C_19 
REMARK       I    between atoms: C_22  and  N_20 
ROOT
ATOM      1  C   LIG d   1      -4.803  92.177 118.067  0.00  0.00     0.161 C 
ATOM      2  C   LIG d   1      -5.969  92.960 118.068  0.00  0.00     0.016 C 
ATOM      3  C   LIG d   1      -7.002  92.819 117.114  0.00  0.00     0.038 C 
ATOM      4  C   LIG d   1      -7.008  91.776 116.176  0.00  0.00     0.028 C 
ATOM      5  C   LIG d   1      -5.613  91.276 115.817  0.00  0.00    -0.047 C 
ATOM      6  C   LIG d   1      -4.843  90.960 117.119  0.00  0.00     0.091 C 
ENDROOT
BRANCH   1   7
ATOM      7  O   LIG d   1      -4.495  91.756 119.410  0.00  0.00    -0.368 OA
BRANCH   7   8
ATOM      8  C   LIG d   1      -3.342  92.381 120.025  0.00  0.00     0.119 C 
BRANCH   8   9
ATOM      9  C   LIG d   1      -3.858  93.517 120.930  0.00  0.00     0.028 C 
ATOM     10  C   LIG d   1      -3.587  94.909 120.335  0.00  0.00     0.006 C 
ENDBRANCH   8   9
BRANCH   8  11
ATOM     11  C   LIG d   1      -2.455  93.065 118.981  0.00  0.00     0.028 C 
ATOM     12  C   LIG d   1      -0.995  92.587 119.033  0.00  0.00     0.006 C 
ENDBRANCH   8  11
ENDBRANCH   7   8
ENDBRANCH   1   7
BRANCH   6  13
ATOM     13  N   LIG d   1      -3.439  90.545 116.861  0.00  0.00    -0.311 N 
ATOM     14  C   LIG d   1      -2.823  89.579 117.540  0.00  0.00     0.210 C 
ATOM     15  C   LIG d   1      -1.370  89.324 117.128  0.00  0.00     0.109 C 
ATOM     16  O   LIG d   1      -3.352  88.888 118.424  0.00  0.00    -0.276 OA
ATOM     17  H   LIG d   1      -2.945  91.032 116.139  0.00  0.00     0.149 HD
ENDBRANCH   6  13
BRANCH   5  18
ATOM     18  N   LIG d   1      -5.772  90.101 114.940  0.00  0.00     0.381 N 
ATOM     19  H   LIG d   1      -5.189  89.355 115.263  0.00  0.00    -0.090 HD
ATOM     20  H   LIG d   1      -5.483  90.348 114.010  0.00  0.00    -0.090 HD
ATOM     21  H   LIG d   1      -6.725  89.808 114.932  0.00  0.00    -0.090 HD
ENDBRANCH   5  18
BRANCH   3  22
ATOM     22  C   LIG d   1      -8.026  93.753 117.066  0.00  0.00     0.382 C 
ATOM     23  O   LIG d   1      -8.819  93.765 116.093  0.00  0.00    -0.241 OA
ATOM     24  O   LIG d   1      -8.139  94.613 117.960  0.00  0.00    -0.241 OA
ENDBRANCH   3  22
TORSDOF 7
ENDMDL
MODEL 4
REMARK VINA RESULT:      -5.1      2.328      3.497
REMARK  7 active torsions:
REMARK  status: ('A' for Active; 'I' for Inactive)
REMARK    1  A    between atoms: C_2  and  C_3 
REMARK    2  A    between atoms: C_3  and  O_6 
REMARK    3  A    between atoms: C_3  and  C_4 
REMARK    4  A    between atoms: C_7  and  O_6 
REMARK    5  A    between atoms: C_9  and  C_10 
REMARK    6  A    between atoms: N_15  and  C_14 
REMARK    7  A    between atoms: N_20  and  C_19 
REMARK       I    between atoms: C_22  and  N_20 
ROOT
ATOM      1  C   LIG d   1      -4.374  90.718 117.547  0.00  0.00     0.161 C 
ATOM      2  C   LIG d   1      -5.308  90.215 116.626  0.00  0.00     0.016 C 
ATOM      3  C   LIG d   1      -6.508  90.884 116.291  0.00  0.00     0.038 C 
ATOM      4  C   LIG d   1      -6.784  92.182 116.745  0.00  0.00     0.028 C 
ATOM      5  C   LIG d   1      -6.111  92.517 118.071  0.00  0.00    -0.047 C 
ATOM      6  C   LIG d   1      -4.605  92.185 117.967  0.00  0.00     0.091 C 
ENDROOT
BRANCH   1   7
ATOM      7  O   LIG d   1      -3.039  90.550 117.030  0.00  0.00    -0.368 OA
BRANCH   7   8
ATOM      8  C   LIG d   1      -2.416  89.266 117.279  0.00  0.00     0.119 C 
BRANCH   8   9
ATOM      9  C   LIG d   1      -2.714  88.883 118.742  0.00  0.00     0.028 C 
ATOM     10  C   LIG d   1      -1.916  87.651 119.201  0.00  0.00     0.006 C 
ENDBRANCH   8   9
BRANCH   8  11
ATOM     11  C   LIG d   1      -0.890  89.359 117.188  0.00  0.00     0.028 C 
ATOM     12  C   LIG d   1      -0.353  90.744 117.584  0.00  0.00     0.006 C 
ENDBRANCH   8  11
ENDBRANCH   7   8
ENDBRANCH   1   7
BRANCH   6  13
ATOM     13  N   LIG d   1      -3.886  92.404 119.249  0.00  0.00    -0.311 N 
ATOM     14  C   LIG d   1      -2.745  93.085 119.344  0.00  0.00     0.210 C 
ATOM     15  C   LIG d   1      -2.161  93.175 120.757  0.00  0.00     0.109 C 
ATOM     16  O   LIG d   1      -2.179  93.650 118.396  0.00  0.00    -0.276 OA
ATOM     17  H   LIG d   1      -4.292  92.006 120.074  0.00  0.00     0.149 HD
ENDBRANCH   6  13
BRANCH   5  18
ATOM     18  N   LIG d   1      -6.370  93.941 118.356  0.00  0.00     0.381 N 
ATOM     19  H   LIG d   1      -7.194  94.030 118.916  0.00  0.00    -0.090 HD
ATOM     20  H   LIG d   1      -6.526  94.423 117.488  0.00  0.00    -0.090 HD
ATOM     21  H   LIG d   1      -5.592  94.341 118.832  0.00  0.00    -0.090 HD
ENDBRANCH   5  18
BRANCH   3  22
ATOM     22  C   LIG d   1      -7.465  90.236 115.526  0.00  0.00     0.382 C 
ATOM     23  O   LIG d   1      -8.362  89.560 116.084  0.00  0.00    -0.241 OA
ATOM     24  O   LIG d   1      -7.416  90.282 114.282  0.00  0.00    -0.241 OA
ENDBRANCH   3  22
TORSDOF 7
ENDMDL
MODEL 5
REMARK VINA RESULT:      -5.0      2.287      5.426
REMARK  7 active torsions:
REMARK  status: ('A' for Active; 'I' for Inactive)
REMARK    1  A    between atoms: C_2  and  C_3 
REMARK    2  A    between atoms: C_3  and  O_6 
REMARK    3  A    between atoms: C_3  and  C_4 
REMARK    4  A    between atoms: C_7  and  O_6 
REMARK    5  A    between atoms: C_9  and  C_10 
REMARK    6  A    between atoms: N_15  and  C_14 
REMARK    7  A    between atoms: N_20  and  C_19 
REMARK       I    between atoms: C_22  and  N_20 
ROOT
ATOM      1  C   LIG d   1      -5.685  91.585 119.105  0.00  0.00     0.161 C 
ATOM      2  C   LIG d   1      -4.876  90.829 118.240  0.00  0.00     0.016 C 
ATOM      3  C   LIG d   1      -5.056  90.793 116.838  0.00  0.00     0.038 C 
ATOM      4  C   LIG d   1      -5.970  91.635 116.186  0.00  0.00     0.028 C 
ATOM      5  C   LIG d   1      -7.151  92.040 117.062  0.00  0.00    -0.047 C 
ATOM      6  C   LIG d   1      -6.616  92.595 118.402  0.00  0.00     0.091 C 
ENDROOT
BRANCH   1   7
ATOM      7  O   LIG d   1      -4.864  92.255 120.081  0.00  0.00    -0.368 OA
BRANCH   7   8
ATOM      8  C   LIG d   1      -4.234  93.485 119.647  0.00  0.00     0.119 C 
BRANCH   8   9
ATOM      9  C   LIG d   1      -2.709  93.267 119.697  0.00  0.00     0.028 C 
ATOM     10  C   LIG d   1      -2.070  93.267 118.298  0.00  0.00     0.006 C 
ENDBRANCH   8   9
BRANCH   8  11
ATOM     11  C   LIG d   1      -4.512  94.630 120.627  0.00  0.00     0.028 C 
ATOM     12  C   LIG d   1      -4.772  95.969 119.920  0.00  0.00     0.006 C 
ENDBRANCH   8  11
ENDBRANCH   7   8
ENDBRANCH   1   7
BRANCH   6  13
ATOM     13  N   LIG d   1      -7.707  92.937 119.350  0.00  0.00    -0.311 N 
ATOM     14  C   LIG d   1      -8.243  94.152 119.444  0.00  0.00     0.210 C 
ATOM     15  C   LIG d   1      -9.343  94.295 120.501  0.00  0.00     0.109 C 
ATOM     16  O   LIG d   1      -7.935  95.118 118.730  0.00  0.00    -0.276 OA
ATOM     17  H   LIG d   1      -8.040  92.204 119.946  0.00  0.00     0.149 HD
ENDBRANCH   6  13
BRANCH   5  18
ATOM     18  N   LIG d   1      -7.949  93.024 116.306  0.00  0.00     0.381 N 
ATOM     19  H   LIG d   1      -8.027  92.735 115.351  0.00  0.00    -0.090 HD
ATOM     20  H   LIG d   1      -7.478  93.911 116.330  0.00  0.00    -0.090 HD
ATOM     21  H   LIG d   1      -8.856  93.110 116.710  0.00  0.00    -0.090 HD
ENDBRANCH   5  18
BRANCH   3  22
ATOM     22  C   LIG d   1      -4.345  89.878 116.077  0.00  0.00     0.382 C 
ATOM     23  O   LIG d   1      -4.910  89.272 115.135  0.00  0.00    -0.241 OA
ATOM     24  O   LIG d   1      -3.157  89.619 116.348  0.00  0.00    -0.241 OA
ENDBRANCH   3  22
TORSDOF 7
ENDMDL
MODEL 6
REMARK VINA RESULT:      -5.0      2.212      4.650
REMARK  7 active torsions:
REMARK  status: ('A' for Active; 'I' for Inactive)
REMARK    1  A    between atoms: C_2  and  C_3 
REMARK    2  A    between atoms: C_3  and  O_6 
REMARK    3  A    between atoms: C_3  and  C_4 
REMARK    4  A    between atoms: C_7  and  O_6 
REMARK    5  A    between atoms: C_9  and  C_10 
REMARK    6  A    between atoms: N_15  and  C_14 
REMARK    7  A    between atoms: N_20  and  C_19 
REMARK       I    between atoms: C_22  and  N_20 
ROOT
ATOM      1  C   LIG d   1      -6.065  92.690 118.032  0.00  0.00     0.161 C 
ATOM      2  C   LIG d   1      -6.955  91.893 117.294  0.00  0.00     0.016 C 
ATOM      3  C   LIG d   1      -6.548  90.778 116.526  0.00  0.00     0.038 C 
ATOM      4  C   LIG d   1      -5.233  90.291 116.567  0.00  0.00     0.028 C 
ATOM      5  C   LIG d   1      -4.200  91.362 116.898  0.00  0.00    -0.047 C 
ATOM      6  C   LIG d   1      -4.643  92.108 118.177  0.00  0.00     0.091 C 
ENDROOT
BRANCH   1   7
ATOM      7  O   LIG d   1      -6.625  92.975 119.329  0.00  0.00    -0.368 OA
BRANCH   7   8
ATOM      8  C   LIG d   1      -6.763  94.376 119.671  0.00  0.00     0.119 C 
BRANCH   8   9
ATOM      9  C   LIG d   1      -7.767  94.472 120.836  0.00  0.00     0.028 C 
ATOM     10  C   LIG d   1      -9.173  93.991 120.441  0.00  0.00     0.006 C 
ENDBRANCH   8   9
BRANCH   8  11
ATOM     11  C   LIG d   1      -7.396  95.169 118.524  0.00  0.00     0.028 C 
ATOM     12  C   LIG d   1      -7.068  96.670 118.585  0.00  0.00     0.006 C 
ENDBRANCH   8  11
ENDBRANCH   7   8
ENDBRANCH   1   7
BRANCH   6  13
ATOM     13  N   LIG d   1      -3.732  93.229 118.525  0.00  0.00    -0.311 N 
ATOM     14  C   LIG d   1      -2.710  93.108 119.370  0.00  0.00     0.210 C 
ATOM     15  C   LIG d   1      -1.908  94.392 119.604  0.00  0.00     0.109 C 
ATOM     16  O   LIG d   1      -2.372  92.051 119.924  0.00  0.00    -0.276 OA
ATOM     17  H   LIG d   1      -3.915  94.115 118.096  0.00  0.00     0.149 HD
ENDBRANCH   6  13
BRANCH   5  18
ATOM     18  N   LIG d   1      -2.894  90.692 117.043  0.00  0.00     0.381 N 
ATOM     19  H   LIG d   1      -2.630  90.669 118.008  0.00  0.00    -0.090 HD
ATOM     20  H   LIG d   1      -2.201  91.218 116.540  0.00  0.00    -0.090 HD
ATOM     21  H   LIG d   1      -2.944  89.765 116.683  0.00  0.00    -0.090 HD
ENDBRANCH   5  18
BRANCH   3  22
ATOM     22  C   LIG d   1      -7.453  90.161 115.675  0.00  0.00     0.382 C 
ATOM     23  O   LIG d   1      -7.359  90.325 114.435  0.00  0.00    -0.241 OA
ATOM     24  O   LIG d   1      -8.388  89.479 116.135  0.00  0.00    -0.241 OA
ENDBRANCH   3  22
TORSDOF 7
ENDMDL
MODEL 7
REMARK VINA RESULT:      -4.7      1.160      2.152
REMARK  7 active torsions:
REMARK  status: ('A' for Active; 'I' for Inactive)
REMARK    1  A    between atoms: C_2  and  C_3 
REMARK    2  A    between atoms: C_3  and  O_6 
REMARK    3  A    between atoms: C_3  and  C_4 
REMARK    4  A    between atoms: C_7  and  O_6 
REMARK    5  A    between atoms: C_9  and  C_10 
REMARK    6  A    between atoms: N_15  and  C_14 
REMARK    7  A    between atoms: N_20  and  C_19 
REMARK       I    between atoms: C_22  and  N_20 
ROOT
ATOM      1  C   LIG d   1      -5.700  92.406 118.701  0.00  0.00     0.161 C 
ATOM      2  C   LIG d   1      -6.999  92.898 118.909  0.00  0.00     0.016 C 
ATOM      3  C   LIG d   1      -7.286  94.021 119.719  0.00  0.00     0.038 C 
ATOM      4  C   LIG d   1      -6.271  94.824 120.259  0.00  0.00     0.028 C 
ATOM      5  C   LIG d   1      -4.963  94.074 120.491  0.00  0.00    -0.047 C 
ATOM      6  C   LIG d   1      -4.570  93.336 119.191  0.00  0.00     0.091 C 
ENDROOT
BRANCH   1   7
ATOM      7  O   LIG d   1      -5.516  92.086 117.307  0.00  0.00    -0.368 OA
BRANCH   7   8
ATOM      8  C   LIG d   1      -5.648  90.688 116.952  0.00  0.00     0.119 C 
BRANCH   8   9
ATOM      9  C   LIG d   1      -4.332  90.256 116.277  0.00  0.00     0.028 C 
ATOM     10  C   LIG d   1      -3.332  89.650 117.276  0.00  0.00     0.006 C 
ENDBRANCH   8   9
BRANCH   8  11
ATOM     11  C   LIG d   1      -6.734  90.483 115.892  0.00  0.00     0.028 C 
ATOM     12  C   LIG d   1      -6.551  91.393 114.667  0.00  0.00     0.006 C 
ENDBRANCH   8  11
ENDBRANCH   7   8
ENDBRANCH   1   7
BRANCH   6  13
ATOM     13  N   LIG d   1      -3.347  92.509 119.356  0.00  0.00    -0.311 N 
ATOM     14  C   LIG d   1      -2.131  92.920 119.001  0.00  0.00     0.210 C 
ATOM     15  C   LIG d   1      -1.010  91.903 119.239  0.00  0.00     0.109 C 
ATOM     16  O   LIG d   1      -1.869  94.041 118.541  0.00  0.00    -0.276 OA
ATOM     17  H   LIG d   1      -3.463  91.597 119.751  0.00  0.00     0.149 HD
ENDBRANCH   6  13
BRANCH   5  18
ATOM     18  N   LIG d   1      -3.955  95.060 120.924  0.00  0.00     0.381 N 
ATOM     19  H   LIG d   1      -3.413  94.682 121.676  0.00  0.00    -0.090 HD
ATOM     20  H   LIG d   1      -4.426  95.882 121.258  0.00  0.00    -0.090 HD
ATOM     21  H   LIG d   1      -3.359  95.296 120.161  0.00  0.00    -0.090 HD
ENDBRANCH   5  18
BRANCH   3  22
ATOM     22  C   LIG d   1      -8.602  94.326 120.030  0.00  0.00     0.382 C 
ATOM     23  O   LIG d   1      -9.539  93.752 119.423  0.00  0.00    -0.241 OA
ATOM     24  O   LIG d   1      -8.865  95.199 120.878  0.00  0.00    -0.241 OA
ENDBRANCH   3  22
TORSDOF 7
ENDMDL
MODEL 8
REMARK VINA RESULT:      -4.7      1.428      1.890
REMARK  7 active torsions:
REMARK  status: ('A' for Active; 'I' for Inactive)
REMARK    1  A    between atoms: C_2  and  C_3 
REMARK    2  A    between atoms: C_3  and  O_6 
REMARK    3  A    between atoms: C_3  and  C_4 
REMARK    4  A    between atoms: C_7  and  O_6 
REMARK    5  A    between atoms: C_9  and  C_10 
REMARK    6  A    between atoms: N_15  and  C_14 
REMARK    7  A    between atoms: N_20  and  C_19 
REMARK       I    between atoms: C_22  and  N_20 
ROOT
ATOM      1  C   LIG d   1      -6.353  91.457 118.736  0.00  0.00     0.161 C 
ATOM      2  C   LIG d   1      -7.455  92.309 118.925  0.00  0.00     0.016 C 
ATOM      3  C   LIG d   1      -7.332  93.678 119.255  0.00  0.00     0.038 C 
ATOM      4  C   LIG d   1      -6.089  94.329 119.270  0.00  0.00     0.028 C 
ATOM      5  C   LIG d   1      -4.922  93.398 119.581  0.00  0.00    -0.047 C 
ATOM      6  C   LIG d   1      -4.991  92.175 118.639  0.00  0.00     0.091 C 
ENDROOT
BRANCH   1   7
ATOM      7  O   LIG d   1      -6.569  90.631 117.575  0.00  0.00    -0.368 OA
BRANCH   7   8
ATOM      8  C   LIG d   1      -6.634  91.323 116.303  0.00  0.00     0.119 C 
BRANCH   8   9
ATOM      9  C   LIG d   1      -7.728  90.640 115.460  0.00  0.00     0.028 C 
ATOM     10  C   LIG d   1      -8.415  89.488 116.213  0.00  0.00     0.006 C 
ENDBRANCH   8   9
BRANCH   8  11
ATOM     11  C   LIG d   1      -5.338  91.146 115.506  0.00  0.00     0.028 C 
ATOM     12  C   LIG d   1      -4.775  89.718 115.593  0.00  0.00     0.006 C 
ENDBRANCH   8  11
ENDBRANCH   7   8
ENDBRANCH   1   7
BRANCH   6  13
ATOM     13  N   LIG d   1      -3.933  91.173 118.932  0.00  0.00    -0.311 N 
ATOM     14  C   LIG d   1      -2.726  91.194 118.369  0.00  0.00     0.210 C 
ATOM     15  C   LIG d   1      -1.793  90.056 118.796  0.00  0.00     0.109 C 
ATOM     16  O   LIG d   1      -2.329  92.064 117.580  0.00  0.00    -0.276 OA
ATOM     17  H   LIG d   1      -4.160  90.448 119.585  0.00  0.00     0.149 HD
ENDBRANCH   6  13
BRANCH   5  18
ATOM     18  N   LIG d   1      -3.678  94.176 119.428  0.00  0.00     0.381 N 
ATOM     19  H   LIG d   1      -3.170  94.175 120.290  0.00  0.00    -0.090 HD
ATOM     20  H   LIG d   1      -3.915  95.127 119.203  0.00  0.00    -0.090 HD
ATOM     21  H   LIG d   1      -3.118  93.785 118.703  0.00  0.00    -0.090 HD
ENDBRANCH   5  18
BRANCH   3  22
ATOM     22  C   LIG d   1      -8.458  94.402 119.614  0.00  0.00     0.382 C 
ATOM     23  O   LIG d   1      -9.597  93.890 119.495  0.00  0.00    -0.241 OA
ATOM     24  O   LIG d   1      -8.353  95.577 120.014  0.00  0.00    -0.241 OA
ENDBRANCH   3  22
TORSDOF 7
ENDMDL
MODEL 9
REMARK VINA RESULT:      -4.7      2.313      4.366
REMARK  7 active torsions:
REMARK  status: ('A' for Active; 'I' for Inactive)
REMARK    1  A    between atoms: C_2  and  C_3 
REMARK    2  A    between atoms: C_3  and  O_6 
REMARK    3  A    between atoms: C_3  and  C_4 
REMARK    4  A    between atoms: C_7  and  O_6 
REMARK    5  A    between atoms: C_9  and  C_10 
REMARK    6  A    between atoms: N_15  and  C_14 
REMARK    7  A    between atoms: N_20  and  C_19 
REMARK       I    between atoms: C_22  and  N_20 
ROOT
ATOM      1  C   LIG d   1      -4.915  91.714 118.341  0.00  0.00     0.161 C 
ATOM      2  C   LIG d   1      -5.768  91.809 117.229  0.00  0.00     0.016 C 
ATOM      3  C   LIG d   1      -5.618  91.023 116.063  0.00  0.00     0.038 C 
ATOM      4  C   LIG d   1      -4.689  89.975 115.991  0.00  0.00     0.028 C 
ATOM      5  C   LIG d   1      -3.476  90.176 116.894  0.00  0.00    -0.047 C 
ATOM      6  C   LIG d   1      -3.964  90.499 118.325  0.00  0.00     0.091 C 
ENDROOT
BRANCH   1   7
ATOM      7  O   LIG d   1      -5.692  91.726 119.555  0.00  0.00    -0.368 OA
BRANCH   7   8
ATOM      8  C   LIG d   1      -5.632  92.944 120.338  0.00  0.00     0.119 C 
BRANCH   8   9
ATOM      9  C   LIG d   1      -6.937  93.723 120.083  0.00  0.00     0.028 C 
ATOM     10  C   LIG d   1      -6.722  94.946 119.175  0.00  0.00     0.006 C 
ENDBRANCH   8   9
BRANCH   8  11
ATOM     11  C   LIG d   1      -4.508  93.864 119.852  0.00  0.00     0.028 C 
ATOM     12  C   LIG d   1      -3.369  94.004 120.874  0.00  0.00     0.006 C 
ENDBRANCH   8  11
ENDBRANCH   7   8
ENDBRANCH   1   7
BRANCH   6  13
ATOM     13  N   LIG d   1      -2.842  90.793 119.253  0.00  0.00    -0.311 N 
ATOM     14  C   LIG d   1      -2.275  89.873 120.033  0.00  0.00     0.210 C 
ATOM     15  C   LIG d   1      -1.147  90.392 120.930  0.00  0.00     0.109 C 
ATOM     16  O   LIG d   1      -2.578  88.671 120.043  0.00  0.00    -0.276 OA
ATOM     17  H   LIG d   1      -2.513  91.738 119.286  0.00  0.00     0.149 HD
ENDBRANCH   6  13
BRANCH   5  18
ATOM     18  N   LIG d   1      -2.660  88.949 116.824  0.00  0.00     0.381 N 
ATOM     19  H   LIG d   1      -3.245  88.146 116.945  0.00  0.00    -0.090 HD
ATOM     20  H   LIG d   1      -1.987  88.964 117.570  0.00  0.00    -0.090 HD
ATOM     21  H   LIG d   1      -2.193  88.900 115.946  0.00  0.00    -0.090 HD
ENDBRANCH   5  18
BRANCH   3  22
ATOM     22  C   LIG d   1      -6.376  91.310 114.939  0.00  0.00     0.382 C 
ATOM     23  O   LIG d   1      -6.388  92.474 114.470  0.00  0.00    -0.241 OA
ATOM     24  O   LIG d   1      -7.085  90.430 114.413  0.00  0.00    -0.241 OA
ENDBRANCH   3  22
TORSDOF 7
ENDMDL
