MODEL 1
REMARK VINA RESULT:      -5.5      0.000      0.000
REMARK  7 active torsions:
REMARK  status: ('A' for Active; 'I' for Inactive)
REMARK    1  A    between atoms: C_2  and  C_3 
REMARK    2  A    between atoms: C_3  and  O_6 
REMARK    3  A    between atoms: C_3  and  C_4 
REMARK    4  A    between atoms: C_7  and  O_6 
REMARK    5  A    between atoms: C_9  and  C_10 
REMARK    6  A    between atoms: N_15  and  C_14 
REMARK    7  A    between atoms: N_20  and  C_19 
REMARK       I    between atoms: C_22  and  N_20 
ROOT
ATOM      1  C   LIG d   1      -4.354  91.584 117.967  0.00  0.00     0.161 C 
ATOM      2  C   LIG d   1      -5.144  90.734 117.176  0.00  0.00     0.016 C 
ATOM      3  C   LIG d   1      -6.380  91.123 116.610  0.00  0.00     0.038 C 
ATOM      4  C   LIG d   1      -6.840  92.447 116.673  0.00  0.00     0.028 C 
ATOM      5  C   LIG d   1      -6.323  93.211 117.888  0.00  0.00    -0.047 C 
ATOM      6  C   LIG d   1      -4.785  93.066 117.955  0.00  0.00     0.091 C 
ENDROOT
BRANCH   1   7
ATOM      7  O   LIG d   1      -2.970  91.462 117.584  0.00  0.00    -0.368 OA
BRANCH   7   8
ATOM      8  C   LIG d   1      -2.062  90.993 118.611  0.00  0.00     0.119 C 
BRANCH   8   9
ATOM      9  C   LIG d   1      -0.710  91.700 118.393  0.00  0.00     0.028 C 
ATOM     10  C   LIG d   1       0.103  91.071 117.250  0.00  0.00     0.006 C 
ENDBRANCH   8   9
BRANCH   8  11
ATOM     11  C   LIG d   1      -1.768  89.498 118.454  0.00  0.00     0.028 C 
ATOM     12  C   LIG d   1      -2.546  88.630 119.456  0.00  0.00     0.006 C 
ENDBRANCH   8  11
ENDBRANCH   7   8
ENDBRANCH   1   7
BRANCH   6  13
ATOM     13  N   LIG d   1      -4.207  93.713 119.161  0.00  0.00    -0.311 N 
ATOM     14  C   LIG d   1      -3.176  94.556 119.118  0.00  0.00     0.210 C 
ATOM     15  C   LIG d   1      -2.724  95.094 120.478  0.00  0.00     0.109 C 
ATOM     16  O   LIG d   1      -2.615  94.933 118.078  0.00  0.00    -0.276 OA
ATOM     17  H   LIG d   1      -4.622  93.487 120.043  0.00  0.00     0.149 HD
ENDBRANCH   6  13
BRANCH   5  18
ATOM     18  N   LIG d   1      -6.766  94.611 117.756  0.00  0.00     0.381 N 
ATOM     19  H   LIG d   1      -7.632  94.647 117.256  0.00  0.00    -0.090 HD
ATOM     20  H   LIG d   1      -6.078  95.122 117.230  0.00  0.00    -0.090 HD
ATOM     21  H   LIG d   1      -6.877  95.020 118.657  0.00  0.00    -0.090 HD
ENDBRANCH   5  18
BRANCH   3  22
ATOM     22  C   LIG d   1      -7.189  90.173 116.006  0.00  0.00     0.382 C 
ATOM     23  O   LIG d   1      -8.044  89.555 116.685  0.00  0.00    -0.241 OA
ATOM     24  O   LIG d   1      -7.044  89.893 114.801  0.00  0.00    -0.241 OA
ENDBRANCH   3  22
TORSDOF 7
ENDMDL
MODEL 2
REMARK VINA RESULT:      -5.4      2.670      6.835
REMARK  7 active torsions:
REMARK  status: ('A' for Active; 'I' for Inactive)
REMARK    1  A    between atoms: C_2  and  C_3 
REMARK    2  A    between atoms: C_3  and  O_6 
REMARK    3  A    between atoms: C_3  and  C_4 
REMARK    4  A    between atoms: C_7  and  O_6 
REMARK    5  A    between atoms: C_9  and  C_10 
REMARK    6  A    between atoms: N_15  and  C_14 
REMARK    7  A    between atoms: N_20  and  C_19 
REMARK       I    between atoms: C_22  and  N_20 
ROOT
ATOM      1  C   LIG d   1      -6.602  93.051 118.216  0.00  0.00     0.161 C 
ATOM      2  C   LIG d   1      -5.555  93.856 118.694  0.00  0.00     0.016 C 
ATOM      3  C   LIG d   1      -4.188  93.539 118.519  0.00  0.00     0.038 C 
ATOM      4  C   LIG d   1      -3.773  92.465 117.717  0.00  0.00     0.028 C 
ATOM      5  C   LIG d   1      -4.797  91.339 117.635  0.00  0.00    -0.047 C 
ATOM      6  C   LIG d   1      -6.168  91.934 117.244  0.00  0.00     0.091 C 
ENDROOT
BRANCH   1   7
ATOM      7  O   LIG d   1      -7.616  93.877 117.610  0.00  0.00    -0.368 OA
BRANCH   7   8
ATOM      8  C   LIG d   1      -7.994  95.065 118.348  0.00  0.00     0.119 C 
BRANCH   8   9
ATOM      9  C   LIG d   1      -9.116  94.666 119.326  0.00  0.00     0.028 C 
ATOM     10  C   LIG d   1      -9.551  95.833 120.228  0.00  0.00     0.006 C 
ENDBRANCH   8   9
BRANCH   8  11
ATOM     11  C   LIG d   1      -8.616  96.119 117.426  0.00  0.00     0.028 C 
ATOM     12  C   LIG d   1      -7.815  97.430 117.393  0.00  0.00     0.006 C 
ENDBRANCH   8  11
ENDBRANCH   7   8
ENDBRANCH   1   7
BRANCH   6  13
ATOM     13  N   LIG d   1      -7.246  90.911 117.224  0.00  0.00    -0.311 N 
ATOM     14  C   LIG d   1      -7.512  90.147 116.166  0.00  0.00     0.210 C 
ATOM     15  C   LIG d   1      -8.678  89.170 116.350  0.00  0.00     0.109 C 
ATOM     16  O   LIG d   1      -6.873  90.163 115.103  0.00  0.00    -0.276 OA
ATOM     17  H   LIG d   1      -7.794  90.809 118.056  0.00  0.00     0.149 HD
ENDBRANCH   6  13
BRANCH   5  18
ATOM     18  N   LIG d   1      -4.296  90.351 116.661  0.00  0.00     0.381 N 
ATOM     19  H   LIG d   1      -4.890  90.338 115.856  0.00  0.00    -0.090 HD
ATOM     20  H   LIG d   1      -4.316  89.439 117.083  0.00  0.00    -0.090 HD
ATOM     21  H   LIG d   1      -3.364  90.579 116.392  0.00  0.00    -0.090 HD
ENDBRANCH   5  18
BRANCH   3  22
ATOM     22  C   LIG d   1      -3.221  94.278 119.183  0.00  0.00     0.382 C 
ATOM     23  O   LIG d   1      -3.055  94.128 120.417  0.00  0.00    -0.241 OA
ATOM     24  O   LIG d   1      -2.542  95.125 118.571  0.00  0.00    -0.241 OA
ENDBRANCH   3  22
TORSDOF 7
ENDMDL
MODEL 3
REMARK VINA RESULT:      -5.3      2.244      4.609
REMARK  7 active torsions:
REMARK  status: ('A' for Active; 'I' for Inactive)
REMARK    1  A    between atoms: C_2  and  C_3 
REMARK    2  A    between atoms: C_3  and  O_6 
REMARK    3  A    between atoms: C_3  and  C_4 
REMARK    4  A    between atoms: C_7  and  O_6 
REMARK    5  A    between atoms: C_9  and  C_10 
REMARK    6  A    between atoms: N_15  and  C_14 
REMARK    7  A    between atoms: N_20  and  C_19 
REMARK       I    between atoms: C_22  and  N_20 
ROOT
ATOM      1  C   LIG d   1      -6.309  93.289 117.690  0.00  0.00     0.161 C 
ATOM      2  C   LIG d   1      -7.093  92.250 117.162  0.00  0.00     0.016 C 
ATOM      3  C   LIG d   1      -6.565  90.996 116.776  0.00  0.00     0.038 C 
ATOM      4  C   LIG d   1      -5.233  90.641 117.035  0.00  0.00     0.028 C 
ATOM      5  C   LIG d   1      -4.290  91.838 117.104  0.00  0.00    -0.047 C 
ATOM      6  C   LIG d   1      -4.874  92.881 118.083  0.00  0.00     0.091 C 
ENDROOT
BRANCH   1   7
ATOM      7  O   LIG d   1      -6.985  93.888 118.814  0.00  0.00    -0.368 OA
BRANCH   7   8
ATOM      8  C   LIG d   1      -7.582  95.187 118.580  0.00  0.00     0.119 C 
BRANCH   8   9
ATOM      9  C   LIG d   1      -6.602  96.250 119.113  0.00  0.00     0.028 C 
ATOM     10  C   LIG d   1      -6.193  95.992 120.572  0.00  0.00     0.006 C 
ENDBRANCH   8   9
BRANCH   8  11
ATOM     11  C   LIG d   1      -8.862  95.368 119.401  0.00  0.00     0.028 C 
ATOM     12  C   LIG d   1      -9.370  94.052 120.011  0.00  0.00     0.006 C 
ENDBRANCH   8  11
ENDBRANCH   7   8
ENDBRANCH   1   7
BRANCH   6  13
ATOM     13  N   LIG d   1      -4.055  94.120 118.145  0.00  0.00    -0.311 N 
ATOM     14  C   LIG d   1      -3.132  94.343 119.079  0.00  0.00     0.210 C 
ATOM     15  C   LIG d   1      -2.417  95.693 118.973  0.00  0.00     0.109 C 
ATOM     16  O   LIG d   1      -2.816  93.537 119.967  0.00  0.00    -0.276 OA
ATOM     17  H   LIG d   1      -4.225  94.815 117.445  0.00  0.00     0.149 HD
ENDBRANCH   6  13
BRANCH   5  18
ATOM     18  N   LIG d   1      -2.964  91.337 117.514  0.00  0.00     0.381 N 
ATOM     19  H   LIG d   1      -3.053  90.784 118.343  0.00  0.00    -0.090 HD
ATOM     20  H   LIG d   1      -2.370  92.121 117.720  0.00  0.00    -0.090 HD
ATOM     21  H   LIG d   1      -2.564  90.791 116.783  0.00  0.00    -0.090 HD
ENDBRANCH   5  18
BRANCH   3  22
ATOM     22  C   LIG d   1      -7.365  90.097 116.087  0.00  0.00     0.382 C 
ATOM     23  O   LIG d   1      -8.222  89.420 116.704  0.00  0.00    -0.241 OA
ATOM     24  O   LIG d   1      -7.209  89.922 114.864  0.00  0.00    -0.241 OA
ENDBRANCH   3  22
TORSDOF 7
ENDMDL
MODEL 4
REMARK VINA RESULT:      -5.1      1.596      4.470
REMARK  7 active torsions:
REMARK  status: ('A' for Active; 'I' for Inactive)
REMARK    1  A    between atoms: C_2  and  C_3 
REMARK    2  A    between atoms: C_3  and  O_6 
REMARK    3  A    between atoms: C_3  and  C_4 
REMARK    4  A    between atoms: C_7  and  O_6 
REMARK    5  A    between atoms: C_9  and  C_10 
REMARK    6  A    between atoms: N_15  and  C_14 
REMARK    7  A    between atoms: N_20  and  C_19 
REMARK       I    between atoms: C_22  and  N_20 
ROOT
ATOM      1  C   LIG d   1      -4.519  91.610 117.514  0.00  0.00     0.161 C 
ATOM      2  C   LIG d   1      -3.633  92.620 117.924  0.00  0.00     0.016 C 
ATOM      3  C   LIG d   1      -4.052  93.812 118.559  0.00  0.00     0.038 C 
ATOM      4  C   LIG d   1      -5.380  94.007 118.967  0.00  0.00     0.028 C 
ATOM      5  C   LIG d   1      -6.392  93.237 118.125  0.00  0.00    -0.047 C 
ATOM      6  C   LIG d   1      -5.958  91.756 118.050  0.00  0.00     0.091 C 
ENDROOT
BRANCH   1   7
ATOM      7  O   LIG d   1      -3.982  90.319 117.864  0.00  0.00    -0.368 OA
BRANCH   7   8
ATOM      8  C   LIG d   1      -2.872  90.320 118.795  0.00  0.00     0.119 C 
BRANCH   8   9
ATOM      9  C   LIG d   1      -1.700  89.583 118.119  0.00  0.00     0.028 C 
ATOM     10  C   LIG d   1      -0.515  90.517 117.820  0.00  0.00     0.006 C 
ENDBRANCH   8   9
BRANCH   8  11
ATOM     11  C   LIG d   1      -3.196  89.503 120.049  0.00  0.00     0.028 C 
ATOM     12  C   LIG d   1      -2.602  88.086 120.007  0.00  0.00     0.006 C 
ENDBRANCH   8  11
ENDBRANCH   7   8
ENDBRANCH   1   7
BRANCH   6  13
ATOM     13  N   LIG d   1      -6.848  90.948 117.175  0.00  0.00    -0.311 N 
ATOM     14  C   LIG d   1      -6.957  91.142 115.862  0.00  0.00     0.210 C 
ATOM     15  C   LIG d   1      -7.946  90.213 115.151  0.00  0.00     0.109 C 
ATOM     16  O   LIG d   1      -6.305  91.974 115.213  0.00  0.00    -0.276 OA
ATOM     17  H   LIG d   1      -7.391  90.230 117.615  0.00  0.00     0.149 HD
ENDBRANCH   6  13
BRANCH   5  18
ATOM     18  N   LIG d   1      -7.718  93.422 118.743  0.00  0.00     0.381 N 
ATOM     19  H   LIG d   1      -8.253  92.581 118.654  0.00  0.00    -0.090 HD
ATOM     20  H   LIG d   1      -8.203  94.157 118.259  0.00  0.00    -0.090 HD
ATOM     21  H   LIG d   1      -7.616  93.659 119.705  0.00  0.00    -0.090 HD
ENDBRANCH   5  18
BRANCH   3  22
ATOM     22  C   LIG d   1      -3.144  94.841 118.757  0.00  0.00     0.382 C 
ATOM     23  O   LIG d   1      -1.918  94.588 118.836  0.00  0.00    -0.241 OA
ATOM     24  O   LIG d   1      -3.539  96.013 118.902  0.00  0.00    -0.241 OA
ENDBRANCH   3  22
TORSDOF 7
ENDMDL
MODEL 5
REMARK VINA RESULT:      -5.1      1.902      2.683
REMARK  7 active torsions:
REMARK  status: ('A' for Active; 'I' for Inactive)
REMARK    1  A    between atoms: C_2  and  C_3 
REMARK    2  A    between atoms: C_3  and  O_6 
REMARK    3  A    between atoms: C_3  and  C_4 
REMARK    4  A    between atoms: C_7  and  O_6 
REMARK    5  A    between atoms: C_9  and  C_10 
REMARK    6  A    between atoms: N_15  and  C_14 
REMARK    7  A    between atoms: N_20  and  C_19 
REMARK       I    between atoms: C_22  and  N_20 
ROOT
ATOM      1  C   LIG d   1      -5.666  92.201 118.619  0.00  0.00     0.161 C 
ATOM      2  C   LIG d   1      -5.619  91.231 117.604  0.00  0.00     0.016 C 
ATOM      3  C   LIG d   1      -6.272  91.376 116.358  0.00  0.00     0.038 C 
ATOM      4  C   LIG d   1      -6.896  92.575 115.983  0.00  0.00     0.028 C 
ATOM      5  C   LIG d   1      -7.400  93.392 117.168  0.00  0.00    -0.047 C 
ATOM      6  C   LIG d   1      -6.249  93.562 118.186  0.00  0.00     0.091 C 
ENDROOT
BRANCH   1   7
ATOM      7  O   LIG d   1      -4.354  92.376 119.189  0.00  0.00    -0.368 OA
BRANCH   7   8
ATOM      8  C   LIG d   1      -3.255  92.451 118.247  0.00  0.00     0.119 C 
BRANCH   8   9
ATOM      9  C   LIG d   1      -2.067  91.685 118.860  0.00  0.00     0.028 C 
ATOM     10  C   LIG d   1      -2.063  90.198 118.469  0.00  0.00     0.006 C 
ENDBRANCH   8   9
BRANCH   8  11
ATOM     11  C   LIG d   1      -2.764  93.892 118.078  0.00  0.00     0.028 C 
ATOM     12  C   LIG d   1      -1.257  93.979 117.790  0.00  0.00     0.006 C 
ENDBRANCH   8  11
ENDBRANCH   7   8
ENDBRANCH   1   7
BRANCH   6  13
ATOM     13  N   LIG d   1      -6.681  94.278 119.415  0.00  0.00    -0.311 N 
ATOM     14  C   LIG d   1      -6.555  95.594 119.579  0.00  0.00     0.210 C 
ATOM     15  C   LIG d   1      -7.045  96.126 120.930  0.00  0.00     0.109 C 
ATOM     16  O   LIG d   1      -6.115  96.375 118.723  0.00  0.00    -0.276 OA
ATOM     17  H   LIG d   1      -7.078  93.725 120.149  0.00  0.00     0.149 HD
ENDBRANCH   6  13
BRANCH   5  18
ATOM     18  N   LIG d   1      -7.902  94.675 116.644  0.00  0.00     0.381 N 
ATOM     19  H   LIG d   1      -7.474  94.872 115.761  0.00  0.00    -0.090 HD
ATOM     20  H   LIG d   1      -7.654  95.408 117.285  0.00  0.00    -0.090 HD
ATOM     21  H   LIG d   1      -8.892  94.637 116.539  0.00  0.00    -0.090 HD
ENDBRANCH   5  18
BRANCH   3  22
ATOM     22  C   LIG d   1      -6.339  90.298 115.488  0.00  0.00     0.382 C 
ATOM     23  O   LIG d   1      -7.416  90.031 114.904  0.00  0.00    -0.241 OA
ATOM     24  O   LIG d   1      -5.348  89.564 115.314  0.00  0.00    -0.241 OA
ENDBRANCH   3  22
TORSDOF 7
ENDMDL
MODEL 6
REMARK VINA RESULT:      -4.9      1.891      2.616
REMARK  7 active torsions:
REMARK  status: ('A' for Active; 'I' for Inactive)
REMARK    1  A    between atoms: C_2  and  C_3 
REMARK    2  A    between atoms: C_3  and  O_6 
REMARK    3  A    between atoms: C_3  and  C_4 
REMARK    4  A    between atoms: C_7  and  O_6 
REMARK    5  A    between atoms: C_9  and  C_10 
REMARK    6  A    between atoms: N_15  and  C_14 
REMARK    7  A    between atoms: N_20  and  C_19 
REMARK       I    between atoms: C_22  and  N_20 
ROOT
ATOM      1  C   LIG d   1      -3.021  90.743 118.717  0.00  0.00     0.161 C 
ATOM      2  C   LIG d   1      -4.218  90.409 118.062  0.00  0.00     0.016 C 
ATOM      3  C   LIG d   1      -5.054  91.361 117.435  0.00  0.00     0.038 C 
ATOM      4  C   LIG d   1      -4.671  92.702 117.289  0.00  0.00     0.028 C 
ATOM      5  C   LIG d   1      -3.711  93.179 118.374  0.00  0.00    -0.047 C 
ATOM      6  C   LIG d   1      -2.531  92.186 118.472  0.00  0.00     0.091 C 
ENDROOT
BRANCH   1   7
ATOM      7  O   LIG d   1      -1.991  89.798 118.365  0.00  0.00    -0.368 OA
BRANCH   7   8
ATOM      8  C   LIG d   1      -1.378  89.084 119.467  0.00  0.00     0.119 C 
BRANCH   8   9
ATOM      9  C   LIG d   1      -0.027  88.535 118.969  0.00  0.00     0.028 C 
ATOM     10  C   LIG d   1       0.320  89.027 117.554  0.00  0.00     0.006 C 
ENDBRANCH   8   9
BRANCH   8  11
ATOM     11  C   LIG d   1      -2.198  87.851 119.856  0.00  0.00     0.028 C 
ATOM     12  C   LIG d   1      -1.349  86.573 119.943  0.00  0.00     0.006 C 
ENDBRANCH   8  11
ENDBRANCH   7   8
ENDBRANCH   1   7
BRANCH   6  13
ATOM     13  N   LIG d   1      -1.588  92.532 119.566  0.00  0.00    -0.311 N 
ATOM     14  C   LIG d   1      -0.269  92.620 119.398  0.00  0.00     0.210 C 
ATOM     15  C   LIG d   1       0.522  92.970 120.662  0.00  0.00     0.109 C 
ATOM     16  O   LIG d   1       0.316  92.472 118.315  0.00  0.00    -0.276 OA
ATOM     17  H   LIG d   1      -1.981  92.699 120.472  0.00  0.00     0.149 HD
ENDBRANCH   6  13
BRANCH   5  18
ATOM     18  N   LIG d   1      -3.287  94.548 118.023  0.00  0.00     0.381 N 
ATOM     19  H   LIG d   1      -2.357  94.530 117.654  0.00  0.00    -0.090 HD
ATOM     20  H   LIG d   1      -3.286  95.111 118.855  0.00  0.00    -0.090 HD
ATOM     21  H   LIG d   1      -3.912  94.937 117.351  0.00  0.00    -0.090 HD
ENDBRANCH   5  18
BRANCH   3  22
ATOM     22  C   LIG d   1      -6.308  90.981 116.981  0.00  0.00     0.382 C 
ATOM     23  O   LIG d   1      -6.476  89.842 116.482  0.00  0.00    -0.241 OA
ATOM     24  O   LIG d   1      -7.264  91.778 117.024  0.00  0.00    -0.241 OA
ENDBRANCH   3  22
TORSDOF 7
ENDMDL
MODEL 7
REMARK VINA RESULT:      -4.9      2.839      4.166
REMARK  7 active torsions:
REMARK  status: ('A' for Active; 'I' for Inactive)
REMARK    1  A    between atoms: C_2  and  C_3 
REMARK    2  A    between atoms: C_3  and  O_6 
REMARK    3  A    between atoms: C_3  and  C_4 
REMARK    4  A    between atoms: C_7  and  O_6 
REMARK    5  A    between atoms: C_9  and  C_10 
REMARK    6  A    between atoms: N_15  and  C_14 
REMARK    7  A    between atoms: N_20  and  C_19 
REMARK       I    between atoms: C_22  and  N_20 
ROOT
ATOM      1  C   LIG d   1      -5.983  93.074 119.737  0.00  0.00     0.161 C 
ATOM      2  C   LIG d   1      -7.357  93.364 119.683  0.00  0.00     0.016 C 
ATOM      3  C   LIG d   1      -7.870  94.645 119.375  0.00  0.00     0.038 C 
ATOM      4  C   LIG d   1      -7.041  95.694 118.949  0.00  0.00     0.028 C 
ATOM      5  C   LIG d   1      -5.614  95.589 119.476  0.00  0.00    -0.047 C 
ATOM      6  C   LIG d   1      -5.067  94.177 119.167  0.00  0.00     0.091 C 
ENDROOT
BRANCH   1   7
ATOM      7  O   LIG d   1      -5.723  91.818 119.080  0.00  0.00    -0.368 OA
BRANCH   7   8
ATOM      8  C   LIG d   1      -5.485  91.881 117.653  0.00  0.00     0.119 C 
BRANCH   8   9
ATOM      9  C   LIG d   1      -6.596  91.067 116.961  0.00  0.00     0.028 C 
ATOM     10  C   LIG d   1      -6.098  90.356 115.692  0.00  0.00     0.006 C 
ENDBRANCH   8   9
BRANCH   8  11
ATOM     11  C   LIG d   1      -4.175  91.183 117.274  0.00  0.00     0.028 C 
ATOM     12  C   LIG d   1      -3.504  90.489 118.470  0.00  0.00     0.006 C 
ENDBRANCH   8  11
ENDBRANCH   7   8
ENDBRANCH   1   7
BRANCH   6  13
ATOM     13  N   LIG d   1      -3.705  93.962 119.723  0.00  0.00    -0.311 N 
ATOM     14  C   LIG d   1      -2.590  94.119 119.012  0.00  0.00     0.210 C 
ATOM     15  C   LIG d   1      -1.292  93.827 119.772  0.00  0.00     0.109 C 
ATOM     16  O   LIG d   1      -2.550  94.503 117.833  0.00  0.00    -0.276 OA
ATOM     17  H   LIG d   1      -3.643  93.678 120.681  0.00  0.00     0.149 HD
ENDBRANCH   6  13
BRANCH   5  18
ATOM     18  N   LIG d   1      -4.826  96.665 118.845  0.00  0.00     0.381 N 
ATOM     19  H   LIG d   1      -4.086  96.946 119.457  0.00  0.00    -0.090 HD
ATOM     20  H   LIG d   1      -5.424  97.457 118.689  0.00  0.00    -0.090 HD
ATOM     21  H   LIG d   1      -4.448  96.349 117.979  0.00  0.00    -0.090 HD
ENDBRANCH   5  18
BRANCH   3  22
ATOM     22  C   LIG d   1      -9.224  94.898 119.531  0.00  0.00     0.382 C 
ATOM     23  O   LIG d   1      -9.605  95.962 120.077  0.00  0.00    -0.241 OA
ATOM     24  O   LIG d   1     -10.070  94.057 119.172  0.00  0.00    -0.241 OA
ENDBRANCH   3  22
TORSDOF 7
ENDMDL
MODEL 8
REMARK VINA RESULT:      -4.8      6.517      9.541
REMARK  7 active torsions:
REMARK  status: ('A' for Active; 'I' for Inactive)
REMARK    1  A    between atoms: C_2  and  C_3 
REMARK    2  A    between atoms: C_3  and  O_6 
REMARK    3  A    between atoms: C_3  and  C_4 
REMARK    4  A    between atoms: C_7  and  O_6 
REMARK    5  A    between atoms: C_9  and  C_10 
REMARK    6  A    between atoms: N_15  and  C_14 
REMARK    7  A    between atoms: N_20  and  C_19 
REMARK       I    between atoms: C_22  and  N_20 
ROOT
ATOM      1  C   LIG d   1       3.787  88.974 116.936  0.00  0.00     0.161 C 
ATOM      2  C   LIG d   1       2.511  89.538 116.772  0.00  0.00     0.016 C 
ATOM      3  C   LIG d   1       2.178  90.846 117.193  0.00  0.00     0.038 C 
ATOM      4  C   LIG d   1       3.147  91.739 117.673  0.00  0.00     0.028 C 
ATOM      5  C   LIG d   1       4.339  91.047 118.325  0.00  0.00    -0.047 C 
ATOM      6  C   LIG d   1       4.886  89.972 117.357  0.00  0.00     0.091 C 
ENDROOT
BRANCH   1   7
ATOM      7  O   LIG d   1       4.173  88.281 115.733  0.00  0.00    -0.368 OA
BRANCH   7   8
ATOM      8  C   LIG d   1       3.369  88.547 114.558  0.00  0.00     0.119 C 
BRANCH   8   9
ATOM      9  C   LIG d   1       2.875  87.191 114.018  0.00  0.00     0.028 C 
ATOM     10  C   LIG d   1       3.518  85.999 114.748  0.00  0.00     0.006 C 
ENDBRANCH   8   9
BRANCH   8  11
ATOM     11  C   LIG d   1       4.212  89.150 113.430  0.00  0.00     0.028 C 
ATOM     12  C   LIG d   1       5.719  89.113 113.728  0.00  0.00     0.006 C 
ENDBRANCH   8  11
ENDBRANCH   7   8
ENDBRANCH   1   7
BRANCH   6  13
ATOM     13  N   LIG d   1       6.001  89.189 117.951  0.00  0.00    -0.311 N 
ATOM     14  C   LIG d   1       7.283  89.524 117.819  0.00  0.00     0.210 C 
ATOM     15  C   LIG d   1       8.274  88.570 118.493  0.00  0.00     0.109 C 
ATOM     16  O   LIG d   1       7.693  90.540 117.236  0.00  0.00    -0.276 OA
ATOM     17  H   LIG d   1       5.757  88.367 118.467  0.00  0.00     0.149 HD
ENDBRANCH   6  13
BRANCH   5  18
ATOM     18  N   LIG d   1       5.333  92.086 118.655  0.00  0.00     0.381 N 
ATOM     19  H   LIG d   1       6.104  91.675 119.142  0.00  0.00    -0.090 HD
ATOM     20  H   LIG d   1       4.904  92.765 119.259  0.00  0.00    -0.090 HD
ATOM     21  H   LIG d   1       5.654  92.528 117.822  0.00  0.00    -0.090 HD
ENDBRANCH   5  18
BRANCH   3  22
ATOM     22  C   LIG d   1       0.855  91.259 117.172  0.00  0.00     0.382 C 
ATOM     23  O   LIG d   1       0.578  92.480 117.251  0.00  0.00    -0.241 OA
ATOM     24  O   LIG d   1      -0.067  90.423 117.119  0.00  0.00    -0.241 OA
ENDBRANCH   3  22
TORSDOF 7
ENDMDL
MODEL 9
REMARK VINA RESULT:      -4.7      4.149      6.303
REMARK  7 active torsions:
REMARK  status: ('A' for Active; 'I' for Inactive)
REMARK    1  A    between atoms: C_2  and  C_3 
REMARK    2  A    between atoms: C_3  and  O_6 
REMARK    3  A    between atoms: C_3  and  C_4 
REMARK    4  A    between atoms: C_7  and  O_6 
REMARK    5  A    between atoms: C_9  and  C_10 
REMARK    6  A    between atoms: N_15  and  C_14 
REMARK    7  A    between atoms: N_20  and  C_19 
REMARK       I    between atoms: C_22  and  N_20 
ROOT
ATOM      1  C   LIG d   1       0.979  89.639 117.844  0.00  0.00     0.161 C 
ATOM      2  C   LIG d   1      -0.359  89.211 117.830  0.00  0.00     0.016 C 
ATOM      3  C   LIG d   1      -1.400  89.888 118.505  0.00  0.00     0.038 C 
ATOM      4  C   LIG d   1      -1.198  91.133 119.119  0.00  0.00     0.028 C 
ATOM      5  C   LIG d   1       0.236  91.351 119.589  0.00  0.00    -0.047 C 
ATOM      6  C   LIG d   1       1.199  91.055 118.417  0.00  0.00     0.091 C 
ENDROOT
BRANCH   1   7
ATOM      7  O   LIG d   1       1.538  89.543 116.519  0.00  0.00    -0.368 OA
BRANCH   7   8
ATOM      8  C   LIG d   1       2.700  88.690 116.378  0.00  0.00     0.119 C 
BRANCH   8   9
ATOM      9  C   LIG d   1       3.588  89.296 115.274  0.00  0.00     0.028 C 
ATOM     10  C   LIG d   1       5.052  89.452 115.718  0.00  0.00     0.006 C 
ENDBRANCH   8   9
BRANCH   8  11
ATOM     11  C   LIG d   1       2.312  87.299 115.867  0.00  0.00     0.028 C 
ATOM     12  C   LIG d   1       2.673  87.084 114.389  0.00  0.00     0.006 C 
ENDBRANCH   8  11
ENDBRANCH   7   8
ENDBRANCH   1   7
BRANCH   6  13
ATOM     13  N   LIG d   1       2.626  91.163 118.815  0.00  0.00    -0.311 N 
ATOM     14  C   LIG d   1       3.542  91.806 118.092  0.00  0.00     0.210 C 
ATOM     15  C   LIG d   1       4.960  91.779 118.674  0.00  0.00     0.109 C 
ATOM     16  O   LIG d   1       3.310  92.422 117.042  0.00  0.00    -0.276 OA
ATOM     17  H   LIG d   1       2.896  90.718 119.670  0.00  0.00     0.149 HD
ENDBRANCH   6  13
BRANCH   5  18
ATOM     18  N   LIG d   1       0.336  92.737 120.085  0.00  0.00     0.381 N 
ATOM     19  H   LIG d   1       0.861  93.291 119.437  0.00  0.00    -0.090 HD
ATOM     20  H   LIG d   1       0.823  92.734 120.964  0.00  0.00    -0.090 HD
ATOM     21  H   LIG d   1      -0.574  93.124 120.202  0.00  0.00    -0.090 HD
ENDBRANCH   5  18
BRANCH   3  22
ATOM     22  C   LIG d   1      -2.652  89.300 118.603  0.00  0.00     0.382 C 
ATOM     23  O   LIG d   1      -3.605  89.735 117.912  0.00  0.00    -0.241 OA
ATOM     24  O   LIG d   1      -2.851  88.370 119.407  0.00  0.00    -0.241 OA
ENDBRANCH   3  22
TORSDOF 7
ENDMDL
