MODEL 1
REMARK VINA RESULT:      -5.1      0.000      0.000
REMARK  7 active torsions:
REMARK  status: ('A' for Active; 'I' for Inactive)
REMARK    1  A    between atoms: C_2  and  C_3 
REMARK    2  A    between atoms: C_3  and  O_6 
REMARK    3  A    between atoms: C_3  and  C_4 
REMARK    4  A    between atoms: C_7  and  O_6 
REMARK    5  A    between atoms: C_9  and  C_10 
REMARK    6  A    between atoms: N_15  and  C_14 
REMARK    7  A    between atoms: N_20  and  C_19 
REMARK       I    between atoms: C_22  and  N_20 
ROOT
ATOM      1  C   LIG d   1      -5.837  91.906 118.383  0.00  0.00     0.161 C 
ATOM      2  C   LIG d   1      -6.749  91.868 117.314  0.00  0.00     0.016 C 
ATOM      3  C   LIG d   1      -6.533  91.122 116.133  0.00  0.00     0.038 C 
ATOM      4  C   LIG d   1      -5.453  90.235 116.003  0.00  0.00     0.028 C 
ATOM      5  C   LIG d   1      -4.245  90.624 116.849  0.00  0.00    -0.047 C 
ATOM      6  C   LIG d   1      -4.707  90.858 118.305  0.00  0.00     0.091 C 
ENDROOT
BRANCH   1   7
ATOM      7  O   LIG d   1      -6.545  91.788 119.633  0.00  0.00    -0.368 OA
BRANCH   7   8
ATOM      8  C   LIG d   1      -6.619  92.990 120.439  0.00  0.00     0.119 C 
BRANCH   8   9
ATOM      9  C   LIG d   1      -8.069  93.507 120.367  0.00  0.00     0.028 C 
ATOM     10  C   LIG d   1      -8.230  94.665 119.368  0.00  0.00     0.006 C 
ENDBRANCH   8   9
BRANCH   8  11
ATOM     11  C   LIG d   1      -5.759  94.111 119.848  0.00  0.00     0.028 C 
ATOM     12  C   LIG d   1      -4.577  94.495 120.752  0.00  0.00     0.006 C 
ENDBRANCH   8  11
ENDBRANCH   7   8
ENDBRANCH   1   7
BRANCH   6  13
ATOM     13  N   LIG d   1      -3.602  91.324 119.183  0.00  0.00    -0.311 N 
ATOM     14  C   LIG d   1      -2.839  90.501 119.900  0.00  0.00     0.210 C 
ATOM     15  C   LIG d   1      -1.769  91.190 120.753  0.00  0.00     0.109 C 
ATOM     16  O   LIG d   1      -2.926  89.264 119.887  0.00  0.00    -0.276 OA
ATOM     17  H   LIG d   1      -3.441  92.311 119.229  0.00  0.00     0.149 HD
ENDBRANCH   6  13
BRANCH   5  18
ATOM     18  N   LIG d   1      -3.248  89.544 116.725  0.00  0.00     0.381 N 
ATOM     19  H   LIG d   1      -2.704  89.679 115.896  0.00  0.00    -0.090 HD
ATOM     20  H   LIG d   1      -3.729  88.665 116.647  0.00  0.00    -0.090 HD
ATOM     21  H   LIG d   1      -2.653  89.536 117.524  0.00  0.00    -0.090 HD
ENDBRANCH   5  18
BRANCH   3  22
ATOM     22  C   LIG d   1      -7.382  91.288 115.050  0.00  0.00     0.382 C 
ATOM     23  O   LIG d   1      -8.401  90.564 114.935  0.00  0.00    -0.241 OA
ATOM     24  O   LIG d   1      -7.119  92.123 114.163  0.00  0.00    -0.241 OA
ENDBRANCH   3  22
TORSDOF 7
ENDMDL
MODEL 2
REMARK VINA RESULT:      -4.9      2.169      5.299
REMARK  7 active torsions:
REMARK  status: ('A' for Active; 'I' for Inactive)
REMARK    1  A    between atoms: C_2  and  C_3 
REMARK    2  A    between atoms: C_3  and  O_6 
REMARK    3  A    between atoms: C_3  and  C_4 
REMARK    4  A    between atoms: C_7  and  O_6 
REMARK    5  A    between atoms: C_9  and  C_10 
REMARK    6  A    between atoms: N_15  and  C_14 
REMARK    7  A    between atoms: N_20  and  C_19 
REMARK       I    between atoms: C_22  and  N_20 
ROOT
ATOM      1  C   LIG d   1      -5.404  91.246 117.559  0.00  0.00     0.161 C 
ATOM      2  C   LIG d   1      -4.213  90.521 117.387  0.00  0.00     0.016 C 
ATOM      3  C   LIG d   1      -3.086  90.665 118.227  0.00  0.00     0.038 C 
ATOM      4  C   LIG d   1      -3.126  91.441 119.396  0.00  0.00     0.028 C 
ATOM      5  C   LIG d   1      -4.136  92.581 119.331  0.00  0.00    -0.047 C 
ATOM      6  C   LIG d   1      -5.506  92.014 118.894  0.00  0.00     0.091 C 
ENDROOT
BRANCH   1   7
ATOM      7  O   LIG d   1      -6.537  90.370 117.397  0.00  0.00    -0.368 OA
BRANCH   7   8
ATOM      8  C   LIG d   1      -7.604  90.858 116.546  0.00  0.00     0.119 C 
BRANCH   8   9
ATOM      9  C   LIG d   1      -8.101  89.671 115.700  0.00  0.00     0.028 C 
ATOM     10  C   LIG d   1      -9.113  88.794 116.456  0.00  0.00     0.006 C 
ENDBRANCH   8   9
BRANCH   8  11
ATOM     11  C   LIG d   1      -7.084  91.887 115.537  0.00  0.00     0.028 C 
ATOM     12  C   LIG d   1      -6.998  91.328 114.108  0.00  0.00     0.006 C 
ENDBRANCH   8  11
ENDBRANCH   7   8
ENDBRANCH   1   7
BRANCH   6  13
ATOM     13  N   LIG d   1      -6.531  93.076 118.724  0.00  0.00    -0.311 N 
ATOM     14  C   LIG d   1      -7.430  93.384 119.658  0.00  0.00     0.210 C 
ATOM     15  C   LIG d   1      -8.409  94.497 119.271  0.00  0.00     0.109 C 
ATOM     16  O   LIG d   1      -7.488  92.864 120.782  0.00  0.00    -0.276 OA
ATOM     17  H   LIG d   1      -6.536  93.571 117.853  0.00  0.00     0.149 HD
ENDBRANCH   6  13
BRANCH   5  18
ATOM     18  N   LIG d   1      -4.173  93.220 120.660  0.00  0.00     0.381 N 
ATOM     19  H   LIG d   1      -4.477  94.169 120.571  0.00  0.00    -0.090 HD
ATOM     20  H   LIG d   1      -3.245  93.221 121.046  0.00  0.00    -0.090 HD
ATOM     21  H   LIG d   1      -4.790  92.721 121.262  0.00  0.00    -0.090 HD
ENDBRANCH   5  18
BRANCH   3  22
ATOM     22  C   LIG d   1      -1.887  90.061 117.879  0.00  0.00     0.382 C 
ATOM     23  O   LIG d   1      -1.891  88.939 117.318  0.00  0.00    -0.241 OA
ATOM     24  O   LIG d   1      -0.801  90.603 118.159  0.00  0.00    -0.241 OA
ENDBRANCH   3  22
TORSDOF 7
ENDMDL
MODEL 3
REMARK VINA RESULT:      -4.5      6.204      9.031
REMARK  7 active torsions:
REMARK  status: ('A' for Active; 'I' for Inactive)
REMARK    1  A    between atoms: C_2  and  C_3 
REMARK    2  A    between atoms: C_3  and  O_6 
REMARK    3  A    between atoms: C_3  and  C_4 
REMARK    4  A    between atoms: C_7  and  O_6 
REMARK    5  A    between atoms: C_9  and  C_10 
REMARK    6  A    between atoms: N_15  and  C_14 
REMARK    7  A    between atoms: N_20  and  C_19 
REMARK       I    between atoms: C_22  and  N_20 
ROOT
ATOM      1  C   LIG d   1       1.329  88.801 116.713  0.00  0.00     0.161 C 
ATOM      2  C   LIG d   1      -0.046  88.528 116.795  0.00  0.00     0.016 C 
ATOM      3  C   LIG d   1      -0.971  89.378 117.443  0.00  0.00     0.038 C 
ATOM      4  C   LIG d   1      -0.603  90.644 117.925  0.00  0.00     0.028 C 
ATOM      5  C   LIG d   1       0.868  90.740 118.312  0.00  0.00    -0.047 C 
ATOM      6  C   LIG d   1       1.731  90.230 117.135  0.00  0.00     0.091 C 
ENDROOT
BRANCH   1   7
ATOM      7  O   LIG d   1       1.805  88.520 115.382  0.00  0.00    -0.368 OA
BRANCH   7   8
ATOM      8  C   LIG d   1       2.789  87.463 115.266  0.00  0.00     0.119 C 
BRANCH   8   9
ATOM      9  C   LIG d   1       3.676  87.787 114.048  0.00  0.00     0.028 C 
ATOM     10  C   LIG d   1       4.374  89.152 114.177  0.00  0.00     0.006 C 
ENDBRANCH   8   9
BRANCH   8  11
ATOM     11  C   LIG d   1       2.129  86.120 114.941  0.00  0.00     0.028 C 
ATOM     12  C   LIG d   1       2.003  85.868 113.431  0.00  0.00     0.006 C 
ENDBRANCH   8  11
ENDBRANCH   7   8
ENDBRANCH   1   7
BRANCH   6  13
ATOM     13  N   LIG d   1       3.181  90.211 117.462  0.00  0.00    -0.311 N 
ATOM     14  C   LIG d   1       3.986  91.257 117.283  0.00  0.00     0.210 C 
ATOM     15  C   LIG d   1       5.450  91.019 117.666  0.00  0.00     0.109 C 
ATOM     16  O   LIG d   1       3.620  92.370 116.875  0.00  0.00    -0.276 OA
ATOM     17  H   LIG d   1       3.555  89.358 117.828  0.00  0.00     0.149 HD
ENDBRANCH   6  13
BRANCH   5  18
ATOM     18  N   LIG d   1       1.145  92.146 118.664  0.00  0.00     0.381 N 
ATOM     19  H   LIG d   1       0.392  92.512 119.211  0.00  0.00    -0.090 HD
ATOM     20  H   LIG d   1       1.214  92.685 117.820  0.00  0.00    -0.090 HD
ATOM     21  H   LIG d   1       1.997  92.207 119.177  0.00  0.00    -0.090 HD
ENDBRANCH   5  18
BRANCH   3  22
ATOM     22  C   LIG d   1      -2.273  88.948 117.650  0.00  0.00     0.382 C 
ATOM     23  O   LIG d   1      -3.148  89.154 116.775  0.00  0.00    -0.241 OA
ATOM     24  O   LIG d   1      -2.593  88.395 118.719  0.00  0.00    -0.241 OA
ENDBRANCH   3  22
TORSDOF 7
ENDMDL
MODEL 4
REMARK VINA RESULT:      -4.2      6.736      9.909
REMARK  7 active torsions:
REMARK  status: ('A' for Active; 'I' for Inactive)
REMARK    1  A    between atoms: C_2  and  C_3 
REMARK    2  A    between atoms: C_3  and  O_6 
REMARK    3  A    between atoms: C_3  and  C_4 
REMARK    4  A    between atoms: C_7  and  O_6 
REMARK    5  A    between atoms: C_9  and  C_10 
REMARK    6  A    between atoms: N_15  and  C_14 
REMARK    7  A    between atoms: N_20  and  C_19 
REMARK       I    between atoms: C_22  and  N_20 
ROOT
ATOM      1  C   LIG d   1       3.208  91.010 116.796  0.00  0.00     0.161 C 
ATOM      2  C   LIG d   1       2.646  91.831 117.788  0.00  0.00     0.016 C 
ATOM      3  C   LIG d   1       1.344  91.645 118.306  0.00  0.00     0.038 C 
ATOM      4  C   LIG d   1       0.566  90.527 117.972  0.00  0.00     0.028 C 
ATOM      5  C   LIG d   1       0.892  89.950 116.599  0.00  0.00    -0.047 C 
ATOM      6  C   LIG d   1       2.417  89.718 116.501  0.00  0.00     0.091 C 
ENDROOT
BRANCH   1   7
ATOM      7  O   LIG d   1       4.572  90.694 117.138  0.00  0.00    -0.368 OA
BRANCH   7   8
ATOM      8  C   LIG d   1       4.756  89.685 118.162  0.00  0.00     0.119 C 
BRANCH   8   9
ATOM      9  C   LIG d   1       5.653  90.294 119.257  0.00  0.00     0.028 C 
ATOM     10  C   LIG d   1       6.225  91.663 118.852  0.00  0.00     0.006 C 
ENDBRANCH   8   9
BRANCH   8  11
ATOM     11  C   LIG d   1       5.533  88.480 117.624  0.00  0.00     0.028 C 
ATOM     12  C   LIG d   1       6.337  88.808 116.356  0.00  0.00     0.006 C 
ENDBRANCH   8  11
ENDBRANCH   7   8
ENDBRANCH   1   7
BRANCH   6  13
ATOM     13  N   LIG d   1       2.832  89.234 115.158  0.00  0.00    -0.311 N 
ATOM     14  C   LIG d   1       3.019  87.947 114.869  0.00  0.00     0.210 C 
ATOM     15  C   LIG d   1       3.465  87.667 113.430  0.00  0.00     0.109 C 
ATOM     16  O   LIG d   1       2.828  87.010 115.658  0.00  0.00    -0.276 OA
ATOM     17  H   LIG d   1       2.979  89.925 114.449  0.00  0.00     0.149 HD
ENDBRANCH   6  13
BRANCH   5  18
ATOM     18  N   LIG d   1       0.107  88.711 116.438  0.00  0.00     0.381 N 
ATOM     19  H   LIG d   1       0.269  88.323 115.530  0.00  0.00    -0.090 HD
ATOM     20  H   LIG d   1      -0.870  88.932 116.517  0.00  0.00    -0.090 HD
ATOM     21  H   LIG d   1       0.364  88.051 117.139  0.00  0.00    -0.090 HD
ENDBRANCH   5  18
BRANCH   3  22
ATOM     22  C   LIG d   1       0.791  92.607 119.137  0.00  0.00     0.382 C 
ATOM     23  O   LIG d   1      -0.338  93.088 118.877  0.00  0.00    -0.241 OA
ATOM     24  O   LIG d   1       1.427  93.033 120.120  0.00  0.00    -0.241 OA
ENDBRANCH   3  22
TORSDOF 7
ENDMDL
MODEL 5
REMARK VINA RESULT:      -4.1      4.972      8.475
REMARK  7 active torsions:
REMARK  status: ('A' for Active; 'I' for Inactive)
REMARK    1  A    between atoms: C_2  and  C_3 
REMARK    2  A    between atoms: C_3  and  O_6 
REMARK    3  A    between atoms: C_3  and  C_4 
REMARK    4  A    between atoms: C_7  and  O_6 
REMARK    5  A    between atoms: C_9  and  C_10 
REMARK    6  A    between atoms: N_15  and  C_14 
REMARK    7  A    between atoms: N_20  and  C_19 
REMARK       I    between atoms: C_22  and  N_20 
ROOT
ATOM      1  C   LIG d   1       0.240  90.355 116.908  0.00  0.00     0.161 C 
ATOM      2  C   LIG d   1       1.622  90.603 116.847  0.00  0.00     0.016 C 
ATOM      3  C   LIG d   1       2.285  91.522 117.692  0.00  0.00     0.038 C 
ATOM      4  C   LIG d   1       1.632  92.147 118.765  0.00  0.00     0.028 C 
ATOM      5  C   LIG d   1       0.132  92.311 118.548  0.00  0.00    -0.047 C 
ATOM      6  C   LIG d   1      -0.469  90.945 118.144  0.00  0.00     0.091 C 
ENDROOT
BRANCH   1   7
ATOM      7  O   LIG d   1      -0.006  88.937 116.818  0.00  0.00    -0.368 OA
BRANCH   7   8
ATOM      8  C   LIG d   1       1.105  88.074 117.165  0.00  0.00     0.119 C 
BRANCH   8   9
ATOM      9  C   LIG d   1       1.383  87.166 115.951  0.00  0.00     0.028 C 
ATOM     10  C   LIG d   1       2.798  87.363 115.383  0.00  0.00     0.006 C 
ENDBRANCH   8   9
BRANCH   8  11
ATOM     11  C   LIG d   1       0.736  87.123 118.307  0.00  0.00     0.028 C 
ATOM     12  C   LIG d   1      -0.636  87.436 118.923  0.00  0.00     0.006 C 
ENDBRANCH   8  11
ENDBRANCH   7   8
ENDBRANCH   1   7
BRANCH   6  13
ATOM     13  N   LIG d   1      -1.919  91.034 117.831  0.00  0.00    -0.311 N 
ATOM     14  C   LIG d   1      -2.878  90.746 118.710  0.00  0.00     0.210 C 
ATOM     15  C   LIG d   1      -4.307  90.884 118.176  0.00  0.00     0.109 C 
ATOM     16  O   LIG d   1      -2.681  90.421 119.891  0.00  0.00    -0.276 OA
ATOM     17  H   LIG d   1      -2.169  91.320 116.905  0.00  0.00     0.149 HD
ENDBRANCH   6  13
BRANCH   5  18
ATOM     18  N   LIG d   1      -0.443  92.849 119.795  0.00  0.00     0.381 N 
ATOM     19  H   LIG d   1       0.269  93.313 120.324  0.00  0.00    -0.090 HD
ATOM     20  H   LIG d   1      -0.798  92.087 120.345  0.00  0.00    -0.090 HD
ATOM     21  H   LIG d   1      -1.178  93.487 119.584  0.00  0.00    -0.090 HD
ENDBRANCH   5  18
BRANCH   3  22
ATOM     22  C   LIG d   1       3.609  91.853 117.443  0.00  0.00     0.382 C 
ATOM     23  O   LIG d   1       4.203  91.360 116.454  0.00  0.00    -0.241 OA
ATOM     24  O   LIG d   1       4.229  92.603 118.220  0.00  0.00    -0.241 OA
ENDBRANCH   3  22
TORSDOF 7
ENDMDL
MODEL 6
REMARK VINA RESULT:      -4.0      5.035      7.902
REMARK  7 active torsions:
REMARK  status: ('A' for Active; 'I' for Inactive)
REMARK    1  A    between atoms: C_2  and  C_3 
REMARK    2  A    between atoms: C_3  and  O_6 
REMARK    3  A    between atoms: C_3  and  C_4 
REMARK    4  A    between atoms: C_7  and  O_6 
REMARK    5  A    between atoms: C_9  and  C_10 
REMARK    6  A    between atoms: N_15  and  C_14 
REMARK    7  A    between atoms: N_20  and  C_19 
REMARK       I    between atoms: C_22  and  N_20 
ROOT
ATOM      1  C   LIG d   1      -0.078  89.113 116.832  0.00  0.00     0.161 C 
ATOM      2  C   LIG d   1       0.923  88.176 116.524  0.00  0.00     0.016 C 
ATOM      3  C   LIG d   1       2.306  88.451 116.632  0.00  0.00     0.038 C 
ATOM      4  C   LIG d   1       2.783  89.640 117.205  0.00  0.00     0.028 C 
ATOM      5  C   LIG d   1       1.817  90.811 117.061  0.00  0.00    -0.047 C 
ATOM      6  C   LIG d   1       0.421  90.376 117.563  0.00  0.00     0.091 C 
ENDROOT
BRANCH   1   7
ATOM      7  O   LIG d   1      -1.126  88.476 117.590  0.00  0.00    -0.368 OA
BRANCH   7   8
ATOM      8  C   LIG d   1      -0.938  88.433 119.026  0.00  0.00     0.119 C 
BRANCH   8   9
ATOM      9  C   LIG d   1      -0.332  87.059 119.372  0.00  0.00     0.028 C 
ATOM     10  C   LIG d   1      -1.364  86.103 119.996  0.00  0.00     0.006 C 
ENDBRANCH   8   9
BRANCH   8  11
ATOM     11  C   LIG d   1      -2.278  88.484 119.765  0.00  0.00     0.028 C 
ATOM     12  C   LIG d   1      -3.191  89.614 119.265  0.00  0.00     0.006 C 
ENDBRANCH   8  11
ENDBRANCH   7   8
ENDBRANCH   1   7
BRANCH   6  13
ATOM     13  N   LIG d   1      -0.603  91.437 117.380  0.00  0.00    -0.311 N 
ATOM     14  C   LIG d   1      -0.926  92.316 118.327  0.00  0.00     0.210 C 
ATOM     15  C   LIG d   1      -2.022  93.313 117.937  0.00  0.00     0.109 C 
ATOM     16  O   LIG d   1      -0.387  92.385 119.441  0.00  0.00    -0.276 OA
ATOM     17  H   LIG d   1      -1.069  91.473 116.494  0.00  0.00     0.149 HD
ENDBRANCH   6  13
BRANCH   5  18
ATOM     18  N   LIG d   1       2.377  91.946 117.820  0.00  0.00     0.381 N 
ATOM     19  H   LIG d   1       1.636  92.537 118.140  0.00  0.00    -0.090 HD
ATOM     20  H   LIG d   1       2.969  92.483 117.211  0.00  0.00    -0.090 HD
ATOM     21  H   LIG d   1       2.903  91.610 118.596  0.00  0.00    -0.090 HD
ENDBRANCH   5  18
BRANCH   3  22
ATOM     22  C   LIG d   1       3.228  87.547 116.128  0.00  0.00     0.382 C 
ATOM     23  O   LIG d   1       2.894  86.756 115.212  0.00  0.00    -0.241 OA
ATOM     24  O   LIG d   1       4.375  87.480 116.608  0.00  0.00    -0.241 OA
ENDBRANCH   3  22
TORSDOF 7
ENDMDL
MODEL 7
REMARK VINA RESULT:      -3.9      7.432      9.613
REMARK  7 active torsions:
REMARK  status: ('A' for Active; 'I' for Inactive)
REMARK    1  A    between atoms: C_2  and  C_3 
REMARK    2  A    between atoms: C_3  and  O_6 
REMARK    3  A    between atoms: C_3  and  C_4 
REMARK    4  A    between atoms: C_7  and  O_6 
REMARK    5  A    between atoms: C_9  and  C_10 
REMARK    6  A    between atoms: N_15  and  C_14 
REMARK    7  A    between atoms: N_20  and  C_19 
REMARK       I    between atoms: C_22  and  N_20 
ROOT
ATOM      1  C   LIG d   1       2.853  89.845 116.218  0.00  0.00     0.161 C 
ATOM      2  C   LIG d   1       2.677  88.729 115.384  0.00  0.00     0.016 C 
ATOM      3  C   LIG d   1       3.750  87.979 114.850  0.00  0.00     0.038 C 
ATOM      4  C   LIG d   1       5.079  88.207 115.239  0.00  0.00     0.028 C 
ATOM      5  C   LIG d   1       5.343  89.641 115.683  0.00  0.00    -0.047 C 
ATOM      6  C   LIG d   1       4.291  90.040 116.743  0.00  0.00     0.091 C 
ENDROOT
BRANCH   1   7
ATOM      7  O   LIG d   1       1.922  89.786 117.317  0.00  0.00    -0.368 OA
BRANCH   7   8
ATOM      8  C   LIG d   1       0.530  90.013 116.987  0.00  0.00     0.119 C 
BRANCH   8   9
ATOM      9  C   LIG d   1       0.051  91.224 117.811  0.00  0.00     0.028 C 
ATOM     10  C   LIG d   1       1.065  91.637 118.891  0.00  0.00     0.006 C 
ENDBRANCH   8   9
BRANCH   8  11
ATOM     11  C   LIG d   1      -0.348  88.842 117.437  0.00  0.00     0.028 C 
ATOM     12  C   LIG d   1      -1.840  89.205 117.498  0.00  0.00     0.006 C 
ENDBRANCH   8  11
ENDBRANCH   7   8
ENDBRANCH   1   7
BRANCH   6  13
ATOM     13  N   LIG d   1       4.425  91.457 117.170  0.00  0.00    -0.311 N 
ATOM     14  C   LIG d   1       5.129  91.838 118.235  0.00  0.00     0.210 C 
ATOM     15  C   LIG d   1       5.121  93.346 118.509  0.00  0.00     0.109 C 
ATOM     16  O   LIG d   1       5.785  91.075 118.959  0.00  0.00    -0.276 OA
ATOM     17  H   LIG d   1       3.951  92.146 116.620  0.00  0.00     0.149 HD
ENDBRANCH   6  13
BRANCH   5  18
ATOM     18  N   LIG d   1       6.727  89.703 116.191  0.00  0.00     0.381 N 
ATOM     19  H   LIG d   1       6.726  90.027 117.137  0.00  0.00    -0.090 HD
ATOM     20  H   LIG d   1       7.249  90.356 115.633  0.00  0.00    -0.090 HD
ATOM     21  H   LIG d   1       7.149  88.802 116.141  0.00  0.00    -0.090 HD
ENDBRANCH   5  18
BRANCH   3  22
ATOM     22  C   LIG d   1       3.502  87.015 113.885  0.00  0.00     0.382 C 
ATOM     23  O   LIG d   1       4.447  86.326 113.430  0.00  0.00    -0.241 OA
ATOM     24  O   LIG d   1       2.353  86.857 113.430  0.00  0.00    -0.241 OA
ENDBRANCH   3  22
TORSDOF 7
ENDMDL
MODEL 8
REMARK VINA RESULT:      -3.9      8.146     11.291
REMARK  7 active torsions:
REMARK  status: ('A' for Active; 'I' for Inactive)
REMARK    1  A    between atoms: C_2  and  C_3 
REMARK    2  A    between atoms: C_3  and  O_6 
REMARK    3  A    between atoms: C_3  and  C_4 
REMARK    4  A    between atoms: C_7  and  O_6 
REMARK    5  A    between atoms: C_9  and  C_10 
REMARK    6  A    between atoms: N_15  and  C_14 
REMARK    7  A    between atoms: N_20  and  C_19 
REMARK       I    between atoms: C_22  and  N_20 
ROOT
ATOM      1  C   LIG d   1       4.316  90.215 117.117  0.00  0.00     0.161 C 
ATOM      2  C   LIG d   1       5.062  90.989 118.022  0.00  0.00     0.016 C 
ATOM      3  C   LIG d   1       6.471  90.928 118.121  0.00  0.00     0.038 C 
ATOM      4  C   LIG d   1       7.247  90.196 117.211  0.00  0.00     0.028 C 
ATOM      5  C   LIG d   1       6.509  89.008 116.604  0.00  0.00    -0.047 C 
ATOM      6  C   LIG d   1       5.154  89.494 116.041  0.00  0.00     0.091 C 
ENDROOT
BRANCH   1   7
ATOM      7  O   LIG d   1       3.301  91.030 116.498  0.00  0.00    -0.368 OA
BRANCH   7   8
ATOM      8  C   LIG d   1       1.951  90.851 116.993  0.00  0.00     0.119 C 
BRANCH   8   9
ATOM      9  C   LIG d   1       1.764  91.810 118.185  0.00  0.00     0.028 C 
ATOM     10  C   LIG d   1       0.286  91.978 118.577  0.00  0.00     0.006 C 
ENDBRANCH   8   9
BRANCH   8  11
ATOM     11  C   LIG d   1       1.750  89.446 117.568  0.00  0.00     0.028 C 
ATOM     12  C   LIG d   1       0.800  88.586 116.721  0.00  0.00     0.006 C 
ENDBRANCH   8  11
ENDBRANCH   7   8
ENDBRANCH   1   7
BRANCH   6  13
ATOM     13  N   LIG d   1       4.331  88.379 115.503  0.00  0.00    -0.311 N 
ATOM     14  C   LIG d   1       3.804  88.380 114.280  0.00  0.00     0.210 C 
ATOM     15  C   LIG d   1       2.973  87.141 113.933  0.00  0.00     0.109 C 
ATOM     16  O   LIG d   1       3.973  89.275 113.438  0.00  0.00    -0.276 OA
ATOM     17  H   LIG d   1       4.170  87.598 116.109  0.00  0.00     0.149 HD
ENDBRANCH   6  13
BRANCH   5  18
ATOM     18  N   LIG d   1       7.385  88.418 115.574  0.00  0.00     0.381 N 
ATOM     19  H   LIG d   1       7.415  87.424 115.683  0.00  0.00    -0.090 HD
ATOM     20  H   LIG d   1       8.316  88.776 115.695  0.00  0.00    -0.090 HD
ATOM     21  H   LIG d   1       7.048  88.649 114.666  0.00  0.00    -0.090 HD
ENDBRANCH   5  18
BRANCH   3  22
ATOM     22  C   LIG d   1       7.115  91.575 119.165  0.00  0.00     0.382 C 
ATOM     23  O   LIG d   1       6.449  92.226 120.006  0.00  0.00    -0.241 OA
ATOM     24  O   LIG d   1       8.357  91.552 119.252  0.00  0.00    -0.241 OA
ENDBRANCH   3  22
TORSDOF 7
ENDMDL
MODEL 9
REMARK VINA RESULT:      -3.8      2.334      5.553
REMARK  7 active torsions:
REMARK  status: ('A' for Active; 'I' for Inactive)
REMARK    1  A    between atoms: C_2  and  C_3 
REMARK    2  A    between atoms: C_3  and  O_6 
REMARK    3  A    between atoms: C_3  and  C_4 
REMARK    4  A    between atoms: C_7  and  O_6 
REMARK    5  A    between atoms: C_9  and  C_10 
REMARK    6  A    between atoms: N_15  and  C_14 
REMARK    7  A    between atoms: N_20  and  C_19 
REMARK       I    between atoms: C_22  and  N_20 
ROOT
ATOM      1  C   LIG d   1      -5.993  91.166 117.540  0.00  0.00     0.161 C 
ATOM      2  C   LIG d   1      -4.674  90.701 117.407  0.00  0.00     0.016 C 
ATOM      3  C   LIG d   1      -3.661  90.953 118.361  0.00  0.00     0.038 C 
ATOM      4  C   LIG d   1      -3.938  91.563 119.593  0.00  0.00     0.028 C 
ATOM      5  C   LIG d   1      -5.145  92.494 119.551  0.00  0.00    -0.047 C 
ATOM      6  C   LIG d   1      -6.341  91.737 118.930  0.00  0.00     0.091 C 
ENDROOT
BRANCH   1   7
ATOM      7  O   LIG d   1      -6.918  90.119 117.182  0.00  0.00    -0.368 OA
BRANCH   7   8
ATOM      8  C   LIG d   1      -7.346  90.092 115.798  0.00  0.00     0.119 C 
BRANCH   8   9
ATOM      9  C   LIG d   1      -7.394  91.550 115.300  0.00  0.00     0.028 C 
ATOM     10  C   LIG d   1      -6.939  91.685 113.837  0.00  0.00     0.006 C 
ENDBRANCH   8   9
BRANCH   8  11
ATOM     11  C   LIG d   1      -8.781  89.572 115.669  0.00  0.00     0.028 C 
ATOM     12  C   LIG d   1      -9.161  88.588 116.786  0.00  0.00     0.006 C 
ENDBRANCH   8  11
ENDBRANCH   7   8
ENDBRANCH   1   7
BRANCH   6  13
ATOM     13  N   LIG d   1      -7.540  92.602 118.774  0.00  0.00    -0.311 N 
ATOM     14  C   LIG d   1      -7.475  93.922 118.610  0.00  0.00     0.210 C 
ATOM     15  C   LIG d   1      -8.830  94.626 118.489  0.00  0.00     0.109 C 
ATOM     16  O   LIG d   1      -6.423  94.573 118.522  0.00  0.00    -0.276 OA
ATOM     17  H   LIG d   1      -8.434  92.152 118.802  0.00  0.00     0.149 HD
ENDBRANCH   6  13
BRANCH   5  18
ATOM     18  N   LIG d   1      -5.403  92.952 120.929  0.00  0.00     0.381 N 
ATOM     19  H   LIG d   1      -5.602  92.167 121.515  0.00  0.00    -0.090 HD
ATOM     20  H   LIG d   1      -6.207  93.556 120.926  0.00  0.00    -0.090 HD
ATOM     21  H   LIG d   1      -4.611  93.445 121.278  0.00  0.00    -0.090 HD
ENDBRANCH   5  18
BRANCH   3  22
ATOM     22  C   LIG d   1      -2.345  90.629 118.067  0.00  0.00     0.382 C 
ATOM     23  O   LIG d   1      -1.459  91.516 118.100  0.00  0.00    -0.241 OA
ATOM     24  O   LIG d   1      -2.041  89.470 117.727  0.00  0.00    -0.241 OA
ENDBRANCH   3  22
TORSDOF 7
ENDMDL
