MODEL 1
REMARK VINA RESULT:      -4.4      0.000      0.000
REMARK  7 active torsions:
REMARK  status: ('A' for Active; 'I' for Inactive)
REMARK    1  A    between atoms: C_2  and  C_3 
REMARK    2  A    between atoms: C_3  and  O_6 
REMARK    3  A    between atoms: C_3  and  C_4 
REMARK    4  A    between atoms: C_7  and  O_6 
REMARK    5  A    between atoms: C_9  and  C_10 
REMARK    6  A    between atoms: N_15  and  C_14 
REMARK    7  A    between atoms: N_20  and  C_19 
REMARK       I    between atoms: C_22  and  N_20 
ROOT
ATOM      1  C   LIG d   1       2.182  89.630 115.540  0.00  0.00     0.161 C 
ATOM      2  C   LIG d   1       3.477  89.201 115.203  0.00  0.00     0.016 C 
ATOM      3  C   LIG d   1       4.647  89.703 115.817  0.00  0.00     0.038 C 
ATOM      4  C   LIG d   1       4.593  90.563 116.923  0.00  0.00     0.028 C 
ATOM      5  C   LIG d   1       3.327  91.411 116.970  0.00  0.00    -0.047 C 
ATOM      6  C   LIG d   1       2.098  90.486 116.821  0.00  0.00     0.091 C 
ENDROOT
BRANCH   1   7
ATOM      7  O   LIG d   1       1.301  88.493 115.639  0.00  0.00    -0.368 OA
BRANCH   7   8
ATOM      8  C   LIG d   1       1.938  87.210 115.858  0.00  0.00     0.119 C 
BRANCH   8   9
ATOM      9  C   LIG d   1       1.233  86.182 114.952  0.00  0.00     0.028 C 
ATOM     10  C   LIG d   1       1.793  86.181 113.519  0.00  0.00     0.006 C 
ENDBRANCH   8   9
BRANCH   8  11
ATOM     11  C   LIG d   1       1.711  86.713 117.288  0.00  0.00     0.028 C 
ATOM     12  C   LIG d   1       2.864  87.077 118.236  0.00  0.00     0.006 C 
ENDBRANCH   8  11
ENDBRANCH   7   8
ENDBRANCH   1   7
BRANCH   6  13
ATOM     13  N   LIG d   1       0.820  91.244 116.772  0.00  0.00    -0.311 N 
ATOM     14  C   LIG d   1       0.132  91.591 117.858  0.00  0.00     0.210 C 
ATOM     15  C   LIG d   1      -1.169  92.352 117.583  0.00  0.00     0.109 C 
ATOM     16  O   LIG d   1       0.491  91.370 119.024  0.00  0.00    -0.276 OA
ATOM     17  H   LIG d   1       0.471  91.491 115.867  0.00  0.00     0.149 HD
ENDBRANCH   6  13
BRANCH   5  18
ATOM     18  N   LIG d   1       3.337  92.158 118.242  0.00  0.00     0.381 N 
ATOM     19  H   LIG d   1       4.280  92.291 118.549  0.00  0.00    -0.090 HD
ATOM     20  H   LIG d   1       2.851  91.621 118.939  0.00  0.00    -0.090 HD
ATOM     21  H   LIG d   1       2.891  93.041 118.123  0.00  0.00    -0.090 HD
ENDBRANCH   5  18
BRANCH   3  22
ATOM     22  C   LIG d   1       5.890  89.374 115.298  0.00  0.00     0.382 C 
ATOM     23  O   LIG d   1       6.862  89.187 116.069  0.00  0.00    -0.241 OA
ATOM     24  O   LIG d   1       6.063  89.306 114.066  0.00  0.00    -0.241 OA
ENDBRANCH   3  22
TORSDOF 7
ENDMDL
MODEL 2
REMARK VINA RESULT:      -4.4      2.682      5.093
REMARK  7 active torsions:
REMARK  status: ('A' for Active; 'I' for Inactive)
REMARK    1  A    between atoms: C_2  and  C_3 
REMARK    2  A    between atoms: C_3  and  O_6 
REMARK    3  A    between atoms: C_3  and  C_4 
REMARK    4  A    between atoms: C_7  and  O_6 
REMARK    5  A    between atoms: C_9  and  C_10 
REMARK    6  A    between atoms: N_15  and  C_14 
REMARK    7  A    between atoms: N_20  and  C_19 
REMARK       I    between atoms: C_22  and  N_20 
ROOT
ATOM      1  C   LIG d   1       2.815  91.667 118.154  0.00  0.00     0.161 C 
ATOM      2  C   LIG d   1       3.483  91.050 117.083  0.00  0.00     0.016 C 
ATOM      3  C   LIG d   1       2.814  90.440 115.997  0.00  0.00     0.038 C 
ATOM      4  C   LIG d   1       1.425  90.539 115.831  0.00  0.00     0.028 C 
ATOM      5  C   LIG d   1       0.669  90.715 117.144  0.00  0.00    -0.047 C 
ATOM      6  C   LIG d   1       1.303  91.883 117.934  0.00  0.00     0.091 C 
ENDROOT
BRANCH   1   7
ATOM      7  O   LIG d   1       3.457  92.916 118.475  0.00  0.00    -0.368 OA
BRANCH   7   8
ATOM      8  C   LIG d   1       4.760  92.820 119.103  0.00  0.00     0.119 C 
BRANCH   8   9
ATOM      9  C   LIG d   1       4.540  92.361 120.557  0.00  0.00     0.028 C 
ATOM     10  C   LIG d   1       5.417  91.153 120.930  0.00  0.00     0.006 C 
ENDBRANCH   8   9
BRANCH   8  11
ATOM     11  C   LIG d   1       5.430  94.193 119.209  0.00  0.00     0.028 C 
ATOM     12  C   LIG d   1       6.885  94.186 118.714  0.00  0.00     0.006 C 
ENDBRANCH   8  11
ENDBRANCH   7   8
ENDBRANCH   1   7
BRANCH   6  13
ATOM     13  N   LIG d   1       0.677  92.068 119.270  0.00  0.00    -0.311 N 
ATOM     14  C   LIG d   1      -0.411  92.810 119.472  0.00  0.00     0.210 C 
ATOM     15  C   LIG d   1      -0.880  92.885 120.929  0.00  0.00     0.109 C 
ATOM     16  O   LIG d   1      -1.050  93.387 118.580  0.00  0.00    -0.276 OA
ATOM     17  H   LIG d   1       1.113  91.610 120.046  0.00  0.00     0.149 HD
ENDBRANCH   6  13
BRANCH   5  18
ATOM     18  N   LIG d   1      -0.750  90.943 116.814  0.00  0.00     0.381 N 
ATOM     19  H   LIG d   1      -0.895  91.907 116.589  0.00  0.00    -0.090 HD
ATOM     20  H   LIG d   1      -1.311  90.719 117.617  0.00  0.00    -0.090 HD
ATOM     21  H   LIG d   1      -1.017  90.371 116.043  0.00  0.00    -0.090 HD
ENDBRANCH   5  18
BRANCH   3  22
ATOM     22  C   LIG d   1       3.534  89.686 115.082  0.00  0.00     0.382 C 
ATOM     23  O   LIG d   1       3.584  90.040 113.880  0.00  0.00    -0.241 OA
ATOM     24  O   LIG d   1       4.098  88.633 115.436  0.00  0.00    -0.241 OA
ENDBRANCH   3  22
TORSDOF 7
ENDMDL
MODEL 3
REMARK VINA RESULT:      -4.3      7.251     10.116
REMARK  7 active torsions:
REMARK  status: ('A' for Active; 'I' for Inactive)
REMARK    1  A    between atoms: C_2  and  C_3 
REMARK    2  A    between atoms: C_3  and  O_6 
REMARK    3  A    between atoms: C_3  and  C_4 
REMARK    4  A    between atoms: C_7  and  O_6 
REMARK    5  A    between atoms: C_9  and  C_10 
REMARK    6  A    between atoms: N_15  and  C_14 
REMARK    7  A    between atoms: N_20  and  C_19 
REMARK       I    between atoms: C_22  and  N_20 
ROOT
ATOM      1  C   LIG d   1      -5.460  93.201 119.040  0.00  0.00     0.161 C 
ATOM      2  C   LIG d   1      -4.339  93.532 119.819  0.00  0.00     0.016 C 
ATOM      3  C   LIG d   1      -3.029  93.087 119.526  0.00  0.00     0.038 C 
ATOM      4  C   LIG d   1      -2.727  92.401 118.340  0.00  0.00     0.028 C 
ATOM      5  C   LIG d   1      -3.905  91.612 117.780  0.00  0.00    -0.047 C 
ATOM      6  C   LIG d   1      -5.133  92.546 117.682  0.00  0.00     0.091 C 
ENDROOT
BRANCH   1   7
ATOM      7  O   LIG d   1      -6.283  94.368 118.848  0.00  0.00    -0.368 OA
BRANCH   7   8
ATOM      8  C   LIG d   1      -6.279  95.335 119.927  0.00  0.00     0.119 C 
BRANCH   8   9
ATOM      9  C   LIG d   1      -7.654  95.262 120.620  0.00  0.00     0.028 C 
ATOM     10  C   LIG d   1      -8.820  95.382 119.624  0.00  0.00     0.006 C 
ENDBRANCH   8   9
BRANCH   8  11
ATOM     11  C   LIG d   1      -6.170  96.766 119.392  0.00  0.00     0.028 C 
ATOM     12  C   LIG d   1      -4.729  97.160 119.032  0.00  0.00     0.006 C 
ENDBRANCH   8  11
ENDBRANCH   7   8
ENDBRANCH   1   7
BRANCH   6  13
ATOM     13  N   LIG d   1      -6.353  91.832 117.222  0.00  0.00    -0.311 N 
ATOM     14  C   LIG d   1      -6.636  91.616 115.938  0.00  0.00     0.210 C 
ATOM     15  C   LIG d   1      -7.954  90.878 115.682  0.00  0.00     0.109 C 
ATOM     16  O   LIG d   1      -5.905  91.937 114.989  0.00  0.00    -0.276 OA
ATOM     17  H   LIG d   1      -6.986  91.509 117.927  0.00  0.00     0.149 HD
ENDBRANCH   6  13
BRANCH   5  18
ATOM     18  N   LIG d   1      -3.492  91.060 116.476  0.00  0.00     0.381 N 
ATOM     19  H   LIG d   1      -2.553  90.722 116.533  0.00  0.00    -0.090 HD
ATOM     20  H   LIG d   1      -3.523  91.793 115.789  0.00  0.00    -0.090 HD
ATOM     21  H   LIG d   1      -4.104  90.320 116.210  0.00  0.00    -0.090 HD
ENDBRANCH   5  18
BRANCH   3  22
ATOM     22  C   LIG d   1      -2.011  93.294 120.445  0.00  0.00     0.382 C 
ATOM     23  O   LIG d   1      -1.678  94.463 120.759  0.00  0.00    -0.241 OA
ATOM     24  O   LIG d   1      -1.392  92.329 120.930  0.00  0.00    -0.241 OA
ENDBRANCH   3  22
TORSDOF 7
ENDMDL
MODEL 4
REMARK VINA RESULT:      -4.3      1.944      4.578
REMARK  7 active torsions:
REMARK  status: ('A' for Active; 'I' for Inactive)
REMARK    1  A    between atoms: C_2  and  C_3 
REMARK    2  A    between atoms: C_3  and  O_6 
REMARK    3  A    between atoms: C_3  and  C_4 
REMARK    4  A    between atoms: C_7  and  O_6 
REMARK    5  A    between atoms: C_9  and  C_10 
REMARK    6  A    between atoms: N_15  and  C_14 
REMARK    7  A    between atoms: N_20  and  C_19 
REMARK       I    between atoms: C_22  and  N_20 
ROOT
ATOM      1  C   LIG d   1       3.854  89.199 117.378  0.00  0.00     0.161 C 
ATOM      2  C   LIG d   1       3.238  88.063 116.826  0.00  0.00     0.016 C 
ATOM      3  C   LIG d   1       1.926  88.068 116.300  0.00  0.00     0.038 C 
ATOM      4  C   LIG d   1       1.191  89.253 116.152  0.00  0.00     0.028 C 
ATOM      5  C   LIG d   1       1.576  90.334 117.156  0.00  0.00    -0.047 C 
ATOM      6  C   LIG d   1       3.109  90.526 117.123  0.00  0.00     0.091 C 
ENDROOT
BRANCH   1   7
ATOM      7  O   LIG d   1       5.215  89.291 116.913  0.00  0.00    -0.368 OA
BRANCH   7   8
ATOM      8  C   LIG d   1       5.579  88.405 115.825  0.00  0.00     0.119 C 
BRANCH   8   9
ATOM      9  C   LIG d   1       6.891  87.700 116.221  0.00  0.00     0.028 C 
ATOM     10  C   LIG d   1       7.685  88.488 117.276  0.00  0.00     0.006 C 
ENDBRANCH   8   9
BRANCH   8  11
ATOM     11  C   LIG d   1       5.909  89.192 114.553  0.00  0.00     0.028 C 
ATOM     12  C   LIG d   1       4.748  89.208 113.545  0.00  0.00     0.006 C 
ENDBRANCH   8  11
ENDBRANCH   7   8
ENDBRANCH   1   7
BRANCH   6  13
ATOM     13  N   LIG d   1       3.579  91.507 118.136  0.00  0.00    -0.311 N 
ATOM     14  C   LIG d   1       3.674  92.815 117.902  0.00  0.00     0.210 C 
ATOM     15  C   LIG d   1       4.201  93.646 119.076  0.00  0.00     0.109 C 
ATOM     16  O   LIG d   1       3.342  93.369 116.843  0.00  0.00    -0.276 OA
ATOM     17  H   LIG d   1       3.840  91.147 119.033  0.00  0.00     0.149 HD
ENDBRANCH   6  13
BRANCH   5  18
ATOM     18  N   LIG d   1       0.833  91.558 116.800  0.00  0.00     0.381 N 
ATOM     19  H   LIG d   1       0.221  91.812 117.550  0.00  0.00    -0.090 HD
ATOM     20  H   LIG d   1       0.274  91.374 115.986  0.00  0.00    -0.090 HD
ATOM     21  H   LIG d   1       1.469  92.302 116.614  0.00  0.00    -0.090 HD
ENDBRANCH   5  18
BRANCH   3  22
ATOM     22  C   LIG d   1       1.321  86.870 115.953  0.00  0.00     0.382 C 
ATOM     23  O   LIG d   1       0.921  86.687 114.777  0.00  0.00    -0.241 OA
ATOM     24  O   LIG d   1       1.130  85.986 116.810  0.00  0.00    -0.241 OA
ENDBRANCH   3  22
TORSDOF 7
ENDMDL
MODEL 5
REMARK VINA RESULT:      -4.2      2.210      5.164
REMARK  7 active torsions:
REMARK  status: ('A' for Active; 'I' for Inactive)
REMARK    1  A    between atoms: C_2  and  C_3 
REMARK    2  A    between atoms: C_3  and  O_6 
REMARK    3  A    between atoms: C_3  and  C_4 
REMARK    4  A    between atoms: C_7  and  O_6 
REMARK    5  A    between atoms: C_9  and  C_10 
REMARK    6  A    between atoms: N_15  and  C_14 
REMARK    7  A    between atoms: N_20  and  C_19 
REMARK       I    between atoms: C_22  and  N_20 
ROOT
ATOM      1  C   LIG d   1       3.534  89.635 117.613  0.00  0.00     0.161 C 
ATOM      2  C   LIG d   1       2.260  90.176 117.375  0.00  0.00     0.016 C 
ATOM      3  C   LIG d   1       1.922  91.521 117.650  0.00  0.00     0.038 C 
ATOM      4  C   LIG d   1       2.884  92.462 118.045  0.00  0.00     0.028 C 
ATOM      5  C   LIG d   1       4.069  91.844 118.780  0.00  0.00    -0.047 C 
ATOM      6  C   LIG d   1       4.627  90.674 117.939  0.00  0.00     0.091 C 
ENDROOT
BRANCH   1   7
ATOM      7  O   LIG d   1       3.935  88.819 116.495  0.00  0.00    -0.368 OA
BRANCH   7   8
ATOM      8  C   LIG d   1       4.369  89.531 115.310  0.00  0.00     0.119 C 
BRANCH   8   9
ATOM      9  C   LIG d   1       3.521  89.022 114.128  0.00  0.00     0.028 C 
ATOM     10  C   LIG d   1       2.784  87.713 114.455  0.00  0.00     0.006 C 
ENDBRANCH   8   9
BRANCH   8  11
ATOM     11  C   LIG d   1       5.816  89.182 114.949  0.00  0.00     0.028 C 
ATOM     12  C   LIG d   1       6.076  89.211 113.435  0.00  0.00     0.006 C 
ENDBRANCH   8  11
ENDBRANCH   7   8
ENDBRANCH   1   7
BRANCH   6  13
ATOM     13  N   LIG d   1       5.736  89.960 118.625  0.00  0.00    -0.311 N 
ATOM     14  C   LIG d   1       7.023  90.181 118.364  0.00  0.00     0.210 C 
ATOM     15  C   LIG d   1       8.003  89.324 119.171  0.00  0.00     0.109 C 
ATOM     16  O   LIG d   1       7.447  91.028 117.564  0.00  0.00    -0.276 OA
ATOM     17  H   LIG d   1       5.482  89.278 119.312  0.00  0.00     0.149 HD
ENDBRANCH   6  13
BRANCH   5  18
ATOM     18  N   LIG d   1       5.058  92.914 119.010  0.00  0.00     0.381 N 
ATOM     19  H   LIG d   1       5.094  93.519 118.214  0.00  0.00    -0.090 HD
ATOM     20  H   LIG d   1       5.964  92.498 119.132  0.00  0.00    -0.090 HD
ATOM     21  H   LIG d   1       4.812  93.437 119.822  0.00  0.00    -0.090 HD
ENDBRANCH   5  18
BRANCH   3  22
ATOM     22  C   LIG d   1       0.598  91.927 117.569  0.00  0.00     0.382 C 
ATOM     23  O   LIG d   1      -0.234  91.523 118.417  0.00  0.00    -0.241 OA
ATOM     24  O   LIG d   1       0.217  92.656 116.634  0.00  0.00    -0.241 OA
ENDBRANCH   3  22
TORSDOF 7
ENDMDL
MODEL 6
REMARK VINA RESULT:      -4.2      2.636      4.732
REMARK  7 active torsions:
REMARK  status: ('A' for Active; 'I' for Inactive)
REMARK    1  A    between atoms: C_2  and  C_3 
REMARK    2  A    between atoms: C_3  and  O_6 
REMARK    3  A    between atoms: C_3  and  C_4 
REMARK    4  A    between atoms: C_7  and  O_6 
REMARK    5  A    between atoms: C_9  and  C_10 
REMARK    6  A    between atoms: N_15  and  C_14 
REMARK    7  A    between atoms: N_20  and  C_19 
REMARK       I    between atoms: C_22  and  N_20 
ROOT
ATOM      1  C   LIG d   1       4.301  89.841 118.109  0.00  0.00     0.161 C 
ATOM      2  C   LIG d   1       5.611  89.341 118.030  0.00  0.00     0.016 C 
ATOM      3  C   LIG d   1       6.247  89.014 116.810  0.00  0.00     0.038 C 
ATOM      4  C   LIG d   1       5.665  89.309 115.569  0.00  0.00     0.028 C 
ATOM      5  C   LIG d   1       4.141  89.347 115.607  0.00  0.00    -0.047 C 
ATOM      6  C   LIG d   1       3.691  90.274 116.760  0.00  0.00     0.091 C 
ENDROOT
BRANCH   1   7
ATOM      7  O   LIG d   1       4.249  90.927 119.055  0.00  0.00    -0.368 OA
BRANCH   7   8
ATOM      8  C   LIG d   1       4.890  92.160 118.644  0.00  0.00     0.119 C 
BRANCH   8   9
ATOM      9  C   LIG d   1       6.149  92.339 119.515  0.00  0.00     0.028 C 
ATOM     10  C   LIG d   1       7.424  92.516 118.674  0.00  0.00     0.006 C 
ENDBRANCH   8   9
BRANCH   8  11
ATOM     11  C   LIG d   1       4.009  93.375 118.950  0.00  0.00     0.028 C 
ATOM     12  C   LIG d   1       2.844  93.043 119.896  0.00  0.00     0.006 C 
ENDBRANCH   8  11
ENDBRANCH   7   8
ENDBRANCH   1   7
BRANCH   6  13
ATOM     13  N   LIG d   1       2.214  90.301 116.922  0.00  0.00    -0.311 N 
ATOM     14  C   LIG d   1       1.484  91.409 116.805  0.00  0.00     0.210 C 
ATOM     15  C   LIG d   1      -0.020  91.219 117.030  0.00  0.00     0.109 C 
ATOM     16  O   LIG d   1       1.935  92.524 116.506  0.00  0.00    -0.276 OA
ATOM     17  H   LIG d   1       1.763  89.433 117.135  0.00  0.00     0.149 HD
ENDBRANCH   6  13
BRANCH   5  18
ATOM     18  N   LIG d   1       3.673  89.800 114.284  0.00  0.00     0.381 N 
ATOM     19  H   LIG d   1       4.454  89.922 113.672  0.00  0.00    -0.090 HD
ATOM     20  H   LIG d   1       3.213  90.687 114.389  0.00  0.00    -0.090 HD
ATOM     21  H   LIG d   1       3.040  89.133 113.900  0.00  0.00    -0.090 HD
ENDBRANCH   5  18
BRANCH   3  22
ATOM     22  C   LIG d   1       7.463  88.348 116.826  0.00  0.00     0.382 C 
ATOM     23  O   LIG d   1       7.540  87.172 116.395  0.00  0.00    -0.241 OA
ATOM     24  O   LIG d   1       8.475  88.892 117.307  0.00  0.00    -0.241 OA
ENDBRANCH   3  22
TORSDOF 7
ENDMDL
MODEL 7
REMARK VINA RESULT:      -4.2      2.133      5.132
REMARK  7 active torsions:
REMARK  status: ('A' for Active; 'I' for Inactive)
REMARK    1  A    between atoms: C_2  and  C_3 
REMARK    2  A    between atoms: C_3  and  O_6 
REMARK    3  A    between atoms: C_3  and  C_4 
REMARK    4  A    between atoms: C_7  and  O_6 
REMARK    5  A    between atoms: C_9  and  C_10 
REMARK    6  A    between atoms: N_15  and  C_14 
REMARK    7  A    between atoms: N_20  and  C_19 
REMARK       I    between atoms: C_22  and  N_20 
ROOT
ATOM      1  C   LIG d   1       1.994  90.652 116.975  0.00  0.00     0.161 C 
ATOM      2  C   LIG d   1       0.680  91.135 116.859  0.00  0.00     0.016 C 
ATOM      3  C   LIG d   1       0.070  91.968 117.825  0.00  0.00     0.038 C 
ATOM      4  C   LIG d   1       0.788  92.501 118.905  0.00  0.00     0.028 C 
ATOM      5  C   LIG d   1       1.968  91.636 119.334  0.00  0.00    -0.047 C 
ATOM      6  C   LIG d   1       2.830  91.313 118.092  0.00  0.00     0.091 C 
ENDROOT
BRANCH   1   7
ATOM      7  O   LIG d   1       2.671  90.767 115.708  0.00  0.00    -0.368 OA
BRANCH   7   8
ATOM      8  C   LIG d   1       2.763  89.554 114.922  0.00  0.00     0.119 C 
BRANCH   8   9
ATOM      9  C   LIG d   1       2.733  88.364 115.901  0.00  0.00     0.028 C 
ATOM     10  C   LIG d   1       1.969  87.156 115.334  0.00  0.00     0.006 C 
ENDBRANCH   8   9
BRANCH   8  11
ATOM     11  C   LIG d   1       4.112  89.455 114.204  0.00  0.00     0.028 C 
ATOM     12  C   LIG d   1       5.285  89.221 115.170  0.00  0.00     0.006 C 
ENDBRANCH   8  11
ENDBRANCH   7   8
ENDBRANCH   1   7
BRANCH   6  13
ATOM     13  N   LIG d   1       3.960  90.400 118.407  0.00  0.00    -0.311 N 
ATOM     14  C   LIG d   1       5.196  90.825 118.662  0.00  0.00     0.210 C 
ATOM     15  C   LIG d   1       6.216  89.717 118.944  0.00  0.00     0.109 C 
ATOM     16  O   LIG d   1       5.539  92.016 118.712  0.00  0.00    -0.276 OA
ATOM     17  H   LIG d   1       3.764  89.418 118.419  0.00  0.00     0.149 HD
ENDBRANCH   6  13
BRANCH   5  18
ATOM     18  N   LIG d   1       2.708  92.374 120.374  0.00  0.00     0.381 N 
ATOM     19  H   LIG d   1       2.092  93.008 120.842  0.00  0.00    -0.090 HD
ATOM     20  H   LIG d   1       3.438  92.909 119.937  0.00  0.00    -0.090 HD
ATOM     21  H   LIG d   1       3.101  91.736 121.031  0.00  0.00    -0.090 HD
ENDBRANCH   5  18
BRANCH   3  22
ATOM     22  C   LIG d   1      -1.286  92.244 117.735  0.00  0.00     0.382 C 
ATOM     23  O   LIG d   1      -2.115  91.303 117.673  0.00  0.00    -0.241 OA
ATOM     24  O   LIG d   1      -1.689  93.421 117.671  0.00  0.00    -0.241 OA
ENDBRANCH   3  22
TORSDOF 7
ENDMDL
MODEL 8
REMARK VINA RESULT:      -4.2      2.618      3.551
REMARK  7 active torsions:
REMARK  status: ('A' for Active; 'I' for Inactive)
REMARK    1  A    between atoms: C_2  and  C_3 
REMARK    2  A    between atoms: C_3  and  O_6 
REMARK    3  A    between atoms: C_3  and  C_4 
REMARK    4  A    between atoms: C_7  and  O_6 
REMARK    5  A    between atoms: C_9  and  C_10 
REMARK    6  A    between atoms: N_15  and  C_14 
REMARK    7  A    between atoms: N_20  and  C_19 
REMARK       I    between atoms: C_22  and  N_20 
ROOT
ATOM      1  C   LIG d   1       0.921  91.534 116.596  0.00  0.00     0.161 C 
ATOM      2  C   LIG d   1       2.236  91.863 116.962  0.00  0.00     0.016 C 
ATOM      3  C   LIG d   1       2.579  92.422 118.215  0.00  0.00     0.038 C 
ATOM      4  C   LIG d   1       1.642  92.550 119.251  0.00  0.00     0.028 C 
ATOM      5  C   LIG d   1       0.207  92.700 118.755  0.00  0.00    -0.047 C 
ATOM      6  C   LIG d   1      -0.099  91.563 117.754  0.00  0.00     0.091 C 
ENDROOT
BRANCH   1   7
ATOM      7  O   LIG d   1       0.902  90.248 115.944  0.00  0.00    -0.368 OA
BRANCH   7   8
ATOM      8  C   LIG d   1       2.103  89.448 116.079  0.00  0.00     0.119 C 
BRANCH   8   9
ATOM      9  C   LIG d   1       2.474  88.931 114.675  0.00  0.00     0.028 C 
ATOM     10  C   LIG d   1       3.911  88.388 114.611  0.00  0.00     0.006 C 
ENDBRANCH   8   9
BRANCH   8  11
ATOM     11  C   LIG d   1       1.845  88.194 116.918  0.00  0.00     0.028 C 
ATOM     12  C   LIG d   1       2.385  88.315 118.352  0.00  0.00     0.006 C 
ENDBRANCH   8  11
ENDBRANCH   7   8
ENDBRANCH   1   7
BRANCH   6  13
ATOM     13  N   LIG d   1      -1.454  91.683 117.156  0.00  0.00    -0.311 N 
ATOM     14  C   LIG d   1      -2.577  91.439 117.830  0.00  0.00     0.210 C 
ATOM     15  C   LIG d   1      -3.867  91.604 117.020  0.00  0.00     0.109 C 
ATOM     16  O   LIG d   1      -2.629  91.134 119.031  0.00  0.00    -0.276 OA
ATOM     17  H   LIG d   1      -1.506  91.957 116.194  0.00  0.00     0.149 HD
ENDBRANCH   6  13
BRANCH   5  18
ATOM     18  N   LIG d   1      -0.677  92.684 119.936  0.00  0.00     0.381 N 
ATOM     19  H   LIG d   1      -0.137  92.838 120.764  0.00  0.00    -0.090 HD
ATOM     20  H   LIG d   1      -1.111  91.781 120.005  0.00  0.00    -0.090 HD
ATOM     21  H   LIG d   1      -1.374  93.390 119.849  0.00  0.00    -0.090 HD
ENDBRANCH   5  18
BRANCH   3  22
ATOM     22  C   LIG d   1       3.864  92.897 118.427  0.00  0.00     0.382 C 
ATOM     23  O   LIG d   1       4.168  94.063 118.075  0.00  0.00    -0.241 OA
ATOM     24  O   LIG d   1       4.736  92.160 118.925  0.00  0.00    -0.241 OA
ENDBRANCH   3  22
TORSDOF 7
ENDMDL
MODEL 9
REMARK VINA RESULT:      -3.9      2.120      5.029
REMARK  7 active torsions:
REMARK  status: ('A' for Active; 'I' for Inactive)
REMARK    1  A    between atoms: C_2  and  C_3 
REMARK    2  A    between atoms: C_3  and  O_6 
REMARK    3  A    between atoms: C_3  and  C_4 
REMARK    4  A    between atoms: C_7  and  O_6 
REMARK    5  A    between atoms: C_9  and  C_10 
REMARK    6  A    between atoms: N_15  and  C_14 
REMARK    7  A    between atoms: N_20  and  C_19 
REMARK       I    between atoms: C_22  and  N_20 
ROOT
ATOM      1  C   LIG d   1       3.055  89.874 115.988  0.00  0.00     0.161 C 
ATOM      2  C   LIG d   1       1.893  90.627 116.223  0.00  0.00     0.016 C 
ATOM      3  C   LIG d   1       1.726  91.471 117.345  0.00  0.00     0.038 C 
ATOM      4  C   LIG d   1       2.777  91.737 118.235  0.00  0.00     0.028 C 
ATOM      5  C   LIG d   1       3.801  90.610 118.318  0.00  0.00    -0.047 C 
ATOM      6  C   LIG d   1       4.254  90.237 116.888  0.00  0.00     0.091 C 
ENDROOT
BRANCH   1   7
ATOM      7  O   LIG d   1       3.425  89.968 114.598  0.00  0.00    -0.368 OA
BRANCH   7   8
ATOM      8  C   LIG d   1       3.279  88.757 113.816  0.00  0.00     0.119 C 
BRANCH   8   9
ATOM      9  C   LIG d   1       2.623  87.697 114.722  0.00  0.00     0.028 C 
ATOM     10  C   LIG d   1       3.436  86.393 114.781  0.00  0.00     0.006 C 
ENDBRANCH   8   9
BRANCH   8  11
ATOM     11  C   LIG d   1       4.642  88.175 113.430  0.00  0.00     0.028 C 
ATOM     12  C   LIG d   1       5.761  89.227 113.430  0.00  0.00     0.006 C 
ENDBRANCH   8  11
ENDBRANCH   7   8
ENDBRANCH   1   7
BRANCH   6  13
ATOM     13  N   LIG d   1       5.193  89.085 116.874  0.00  0.00    -0.311 N 
ATOM     14  C   LIG d   1       6.517  89.217 116.927  0.00  0.00     0.210 C 
ATOM     15  C   LIG d   1       7.301  87.902 116.879  0.00  0.00     0.109 C 
ATOM     16  O   LIG d   1       7.116  90.297 117.041  0.00  0.00    -0.276 OA
ATOM     17  H   LIG d   1       4.791  88.170 116.814  0.00  0.00     0.149 HD
ENDBRANCH   6  13
BRANCH   5  18
ATOM     18  N   LIG d   1       4.909  91.076 119.173  0.00  0.00     0.381 N 
ATOM     19  H   LIG d   1       4.559  91.317 120.079  0.00  0.00    -0.090 HD
ATOM     20  H   LIG d   1       5.313  91.899 118.761  0.00  0.00    -0.090 HD
ATOM     21  H   LIG d   1       5.600  90.363 119.255  0.00  0.00    -0.090 HD
ENDBRANCH   5  18
BRANCH   3  22
ATOM     22  C   LIG d   1       0.484  92.028 117.607  0.00  0.00     0.382 C 
ATOM     23  O   LIG d   1      -0.027  92.834 116.793  0.00  0.00    -0.241 OA
ATOM     24  O   LIG d   1      -0.114  91.768 118.669  0.00  0.00    -0.241 OA
ENDBRANCH   3  22
TORSDOF 7
ENDMDL
