MODEL 1
REMARK VINA RESULT:      -5.6      0.000      0.000
REMARK  7 active torsions:
REMARK  status: ('A' for Active; 'I' for Inactive)
REMARK    1  A    between atoms: C_2  and  C_3 
REMARK    2  A    between atoms: C_3  and  O_6 
REMARK    3  A    between atoms: C_3  and  C_4 
REMARK    4  A    between atoms: C_7  and  O_6 
REMARK    5  A    between atoms: C_9  and  C_10 
REMARK    6  A    between atoms: N_15  and  C_14 
REMARK    7  A    between atoms: N_20  and  C_19 
REMARK       I    between atoms: C_22  and  N_20 
ROOT
ATOM      1  C   LIG d   1      -6.091  91.655 117.867  0.00  0.00     0.161 C 
ATOM      2  C   LIG d   1      -7.172  92.552 117.814  0.00  0.00     0.016 C 
ATOM      3  C   LIG d   1      -7.202  93.776 118.521  0.00  0.00     0.038 C 
ATOM      4  C   LIG d   1      -6.083  94.260 119.213  0.00  0.00     0.028 C 
ATOM      5  C   LIG d   1      -5.153  93.158 119.708  0.00  0.00    -0.047 C 
ATOM      6  C   LIG d   1      -4.816  92.218 118.528  0.00  0.00     0.091 C 
ENDROOT
BRANCH   1   7
ATOM      7  O   LIG d   1      -5.796  91.168 116.543  0.00  0.00    -0.368 OA
BRANCH   7   8
ATOM      8  C   LIG d   1      -6.235  89.819 116.247  0.00  0.00     0.119 C 
BRANCH   8   9
ATOM      9  C   LIG d   1      -6.845  89.830 114.832  0.00  0.00     0.028 C 
ATOM     10  C   LIG d   1      -7.287  91.237 114.394  0.00  0.00     0.006 C 
ENDBRANCH   8   9
BRANCH   8  11
ATOM     11  C   LIG d   1      -7.374  89.388 117.176  0.00  0.00     0.028 C 
ATOM     12  C   LIG d   1      -8.398  88.478 116.480  0.00  0.00     0.006 C 
ENDBRANCH   8  11
ENDBRANCH   7   8
ENDBRANCH   1   7
BRANCH   6  13
ATOM     13  N   LIG d   1      -3.978  91.063 118.944  0.00  0.00    -0.311 N 
ATOM     14  C   LIG d   1      -2.754  90.837 118.470  0.00  0.00     0.210 C 
ATOM     15  C   LIG d   1      -2.071  89.579 119.016  0.00  0.00     0.109 C 
ATOM     16  O   LIG d   1      -2.156  91.577 117.674  0.00  0.00    -0.276 OA
ATOM     17  H   LIG d   1      -4.373  90.430 119.611  0.00  0.00     0.149 HD
ENDBRANCH   6  13
BRANCH   5  18
ATOM     18  N   LIG d   1      -3.962  93.806 120.289  0.00  0.00     0.381 N 
ATOM     19  H   LIG d   1      -3.671  93.309 121.107  0.00  0.00    -0.090 HD
ATOM     20  H   LIG d   1      -4.202  94.744 120.559  0.00  0.00    -0.090 HD
ATOM     21  H   LIG d   1      -3.223  93.823 119.621  0.00  0.00    -0.090 HD
ENDBRANCH   5  18
BRANCH   3  22
ATOM     22  C   LIG d   1      -8.377  94.511 118.572  0.00  0.00     0.382 C 
ATOM     23  O   LIG d   1      -8.397  95.691 118.148  0.00  0.00    -0.241 OA
ATOM     24  O   LIG d   1      -9.406  94.023 119.077  0.00  0.00    -0.241 OA
ENDBRANCH   3  22
TORSDOF 7
ENDMDL
MODEL 2
REMARK VINA RESULT:      -5.5      1.975      4.781
REMARK  7 active torsions:
REMARK  status: ('A' for Active; 'I' for Inactive)
REMARK    1  A    between atoms: C_2  and  C_3 
REMARK    2  A    between atoms: C_3  and  O_6 
REMARK    3  A    between atoms: C_3  and  C_4 
REMARK    4  A    between atoms: C_7  and  O_6 
REMARK    5  A    between atoms: C_9  and  C_10 
REMARK    6  A    between atoms: N_15  and  C_14 
REMARK    7  A    between atoms: N_20  and  C_19 
REMARK       I    between atoms: C_22  and  N_20 
ROOT
ATOM      1  C   LIG d   1      -6.232  92.755 118.220  0.00  0.00     0.161 C 
ATOM      2  C   LIG d   1      -6.843  91.673 117.566  0.00  0.00     0.016 C 
ATOM      3  C   LIG d   1      -6.169  90.469 117.257  0.00  0.00     0.038 C 
ATOM      4  C   LIG d   1      -4.871  90.207 117.720  0.00  0.00     0.028 C 
ATOM      5  C   LIG d   1      -4.043  91.467 117.947  0.00  0.00    -0.047 C 
ATOM      6  C   LIG d   1      -4.849  92.445 118.831  0.00  0.00     0.091 C 
ENDROOT
BRANCH   1   7
ATOM      7  O   LIG d   1      -7.118  93.281 119.229  0.00  0.00    -0.368 OA
BRANCH   7   8
ATOM      8  C   LIG d   1      -8.270  94.014 118.745  0.00  0.00     0.119 C 
BRANCH   8   9
ATOM      9  C   LIG d   1      -7.781  95.407 118.305  0.00  0.00     0.028 C 
ATOM     10  C   LIG d   1      -7.064  96.162 119.437  0.00  0.00     0.006 C 
ENDBRANCH   8   9
BRANCH   8  11
ATOM     11  C   LIG d   1      -9.277  94.275 119.869  0.00  0.00     0.028 C 
ATOM     12  C   LIG d   1      -9.312  93.146 120.912  0.00  0.00     0.006 C 
ENDBRANCH   8  11
ENDBRANCH   7   8
ENDBRANCH   1   7
BRANCH   6  13
ATOM     13  N   LIG d   1      -4.146  93.739 119.032  0.00  0.00    -0.311 N 
ATOM     14  C   LIG d   1      -3.318  93.973 120.049  0.00  0.00     0.210 C 
ATOM     15  C   LIG d   1      -2.714  95.380 120.081  0.00  0.00     0.109 C 
ATOM     16  O   LIG d   1      -3.002  93.138 120.910  0.00  0.00    -0.276 OA
ATOM     17  H   LIG d   1      -4.321  94.462 118.362  0.00  0.00     0.149 HD
ENDBRANCH   6  13
BRANCH   5  18
ATOM     18  N   LIG d   1      -2.764  91.056 118.557  0.00  0.00     0.381 N 
ATOM     19  H   LIG d   1      -2.834  91.102 119.554  0.00  0.00    -0.090 HD
ATOM     20  H   LIG d   1      -2.044  91.691 118.262  0.00  0.00    -0.090 HD
ATOM     21  H   LIG d   1      -2.535  90.128 118.276  0.00  0.00    -0.090 HD
ENDBRANCH   5  18
BRANCH   3  22
ATOM     22  C   LIG d   1      -6.781  89.528 116.443  0.00  0.00     0.382 C 
ATOM     23  O   LIG d   1      -6.086  88.801 115.693  0.00  0.00    -0.241 OA
ATOM     24  O   LIG d   1      -8.022  89.427 116.417  0.00  0.00    -0.241 OA
ENDBRANCH   3  22
TORSDOF 7
ENDMDL
MODEL 3
REMARK VINA RESULT:      -5.5      2.108      5.320
REMARK  7 active torsions:
REMARK  status: ('A' for Active; 'I' for Inactive)
REMARK    1  A    between atoms: C_2  and  C_3 
REMARK    2  A    between atoms: C_3  and  O_6 
REMARK    3  A    between atoms: C_3  and  C_4 
REMARK    4  A    between atoms: C_7  and  O_6 
REMARK    5  A    between atoms: C_9  and  C_10 
REMARK    6  A    between atoms: N_15  and  C_14 
REMARK    7  A    between atoms: N_20  and  C_19 
REMARK       I    between atoms: C_22  and  N_20 
ROOT
ATOM      1  C   LIG d   1      -6.383  92.071 118.949  0.00  0.00     0.161 C 
ATOM      2  C   LIG d   1      -5.353  92.787 119.581  0.00  0.00     0.016 C 
ATOM      3  C   LIG d   1      -3.983  92.471 119.435  0.00  0.00     0.038 C 
ATOM      4  C   LIG d   1      -3.538  91.505 118.521  0.00  0.00     0.028 C 
ATOM      5  C   LIG d   1      -4.569  90.417 118.240  0.00  0.00    -0.047 C 
ATOM      6  C   LIG d   1      -5.911  91.084 117.861  0.00  0.00     0.091 C 
ENDROOT
BRANCH   1   7
ATOM      7  O   LIG d   1      -7.354  92.988 118.406  0.00  0.00    -0.368 OA
BRANCH   7   8
ATOM      8  C   LIG d   1      -7.747  94.084 119.269  0.00  0.00     0.119 C 
BRANCH   8   9
ATOM      9  C   LIG d   1      -9.247  93.917 119.576  0.00  0.00     0.028 C 
ATOM     10  C   LIG d   1      -9.496  93.230 120.930  0.00  0.00     0.006 C 
ENDBRANCH   8   9
BRANCH   8  11
ATOM     11  C   LIG d   1      -7.629  95.430 118.547  0.00  0.00     0.028 C 
ATOM     12  C   LIG d   1      -6.973  96.516 119.416  0.00  0.00     0.006 C 
ENDBRANCH   8  11
ENDBRANCH   7   8
ENDBRANCH   1   7
BRANCH   6  13
ATOM     13  N   LIG d   1      -6.998  90.093 117.651  0.00  0.00    -0.311 N 
ATOM     14  C   LIG d   1      -7.236  89.502 116.481  0.00  0.00     0.210 C 
ATOM     15  C   LIG d   1      -8.417  88.526 116.478  0.00  0.00     0.109 C 
ATOM     16  O   LIG d   1      -6.561  89.669 115.454  0.00  0.00    -0.276 OA
ATOM     17  H   LIG d   1      -7.575  89.875 118.440  0.00  0.00     0.149 HD
ENDBRANCH   6  13
BRANCH   5  18
ATOM     18  N   LIG d   1      -4.029  89.557 117.170  0.00  0.00     0.381 N 
ATOM     19  H   LIG d   1      -3.370  88.910 117.556  0.00  0.00    -0.090 HD
ATOM     20  H   LIG d   1      -3.550  90.133 116.501  0.00  0.00    -0.090 HD
ATOM     21  H   LIG d   1      -4.769  89.062 116.724  0.00  0.00    -0.090 HD
ENDBRANCH   5  18
BRANCH   3  22
ATOM     22  C   LIG d   1      -3.044  93.099 120.240  0.00  0.00     0.382 C 
ATOM     23  O   LIG d   1      -3.235  94.278 120.624  0.00  0.00    -0.241 OA
ATOM     24  O   LIG d   1      -1.987  92.517 120.549  0.00  0.00    -0.241 OA
ENDBRANCH   3  22
TORSDOF 7
ENDMDL
MODEL 4
REMARK VINA RESULT:      -5.4      2.521      4.887
REMARK  7 active torsions:
REMARK  status: ('A' for Active; 'I' for Inactive)
REMARK    1  A    between atoms: C_2  and  C_3 
REMARK    2  A    between atoms: C_3  and  O_6 
REMARK    3  A    between atoms: C_3  and  C_4 
REMARK    4  A    between atoms: C_7  and  O_6 
REMARK    5  A    between atoms: C_9  and  C_10 
REMARK    6  A    between atoms: N_15  and  C_14 
REMARK    7  A    between atoms: N_20  and  C_19 
REMARK       I    between atoms: C_22  and  N_20 
ROOT
ATOM      1  C   LIG d   1      -4.421  90.619 118.275  0.00  0.00     0.161 C 
ATOM      2  C   LIG d   1      -5.205  89.820 117.427  0.00  0.00     0.016 C 
ATOM      3  C   LIG d   1      -6.379  90.283 116.789  0.00  0.00     0.038 C 
ATOM      4  C   LIG d   1      -6.768  91.630 116.837  0.00  0.00     0.028 C 
ATOM      5  C   LIG d   1      -6.287  92.355 118.089  0.00  0.00    -0.047 C 
ATOM      6  C   LIG d   1      -4.767  92.123 118.251  0.00  0.00     0.091 C 
ENDROOT
BRANCH   1   7
ATOM      7  O   LIG d   1      -3.024  90.422 117.979  0.00  0.00    -0.368 OA
BRANCH   7   8
ATOM      8  C   LIG d   1      -2.523  89.072 118.138  0.00  0.00     0.119 C 
BRANCH   8   9
ATOM      9  C   LIG d   1      -2.386  88.804 119.649  0.00  0.00     0.028 C 
ATOM     10  C   LIG d   1      -1.572  89.894 120.367  0.00  0.00     0.006 C 
ENDBRANCH   8   9
BRANCH   8  11
ATOM     11  C   LIG d   1      -1.107  88.933 117.571  0.00  0.00     0.028 C 
ATOM     12  C   LIG d   1      -0.631  90.198 116.840  0.00  0.00     0.006 C 
ENDBRANCH   8  11
ENDBRANCH   7   8
ENDBRANCH   1   7
BRANCH   6  13
ATOM     13  N   LIG d   1      -4.231  92.728 119.498  0.00  0.00    -0.311 N 
ATOM     14  C   LIG d   1      -3.117  93.456 119.539  0.00  0.00     0.210 C 
ATOM     15  C   LIG d   1      -2.731  93.970 120.930  0.00  0.00     0.109 C 
ATOM     16  O   LIG d   1      -2.429  93.753 118.551  0.00  0.00    -0.276 OA
ATOM     17  H   LIG d   1      -4.744  92.564 120.342  0.00  0.00     0.149 HD
ENDBRANCH   6  13
BRANCH   5  18
ATOM     18  N   LIG d   1      -6.642  93.779 117.944  0.00  0.00     0.381 N 
ATOM     19  H   LIG d   1      -6.791  94.185 118.846  0.00  0.00    -0.090 HD
ATOM     20  H   LIG d   1      -7.498  93.849 117.422  0.00  0.00    -0.090 HD
ATOM     21  H   LIG d   1      -5.914  94.265 117.469  0.00  0.00    -0.090 HD
ENDBRANCH   5  18
BRANCH   3  22
ATOM     22  C   LIG d   1      -7.200  89.383 116.126  0.00  0.00     0.382 C 
ATOM     23  O   LIG d   1      -8.186  88.881 116.717  0.00  0.00    -0.241 OA
ATOM     24  O   LIG d   1      -6.942  89.035 114.958  0.00  0.00    -0.241 OA
ENDBRANCH   3  22
TORSDOF 7
ENDMDL
MODEL 5
REMARK VINA RESULT:      -5.2      2.019      4.938
REMARK  7 active torsions:
REMARK  status: ('A' for Active; 'I' for Inactive)
REMARK    1  A    between atoms: C_2  and  C_3 
REMARK    2  A    between atoms: C_3  and  O_6 
REMARK    3  A    between atoms: C_3  and  C_4 
REMARK    4  A    between atoms: C_7  and  O_6 
REMARK    5  A    between atoms: C_9  and  C_10 
REMARK    6  A    between atoms: N_15  and  C_14 
REMARK    7  A    between atoms: N_20  and  C_19 
REMARK       I    between atoms: C_22  and  N_20 
ROOT
ATOM      1  C   LIG d   1      -6.059  92.524 118.529  0.00  0.00     0.161 C 
ATOM      2  C   LIG d   1      -6.786  91.494 117.909  0.00  0.00     0.016 C 
ATOM      3  C   LIG d   1      -6.184  90.338 117.361  0.00  0.00     0.038 C 
ATOM      4  C   LIG d   1      -4.819  90.062 117.530  0.00  0.00     0.028 C 
ATOM      5  C   LIG d   1      -3.965  91.312 117.708  0.00  0.00    -0.047 C 
ATOM      6  C   LIG d   1      -4.582  92.188 118.822  0.00  0.00     0.091 C 
ENDROOT
BRANCH   1   7
ATOM      7  O   LIG d   1      -6.728  92.936 119.737  0.00  0.00    -0.368 OA
BRANCH   7   8
ATOM      8  C   LIG d   1      -7.366  94.236 119.701  0.00  0.00     0.119 C 
BRANCH   8   9
ATOM      9  C   LIG d   1      -8.863  94.009 119.413  0.00  0.00     0.028 C 
ATOM     10  C   LIG d   1      -9.740  94.221 120.658  0.00  0.00     0.006 C 
ENDBRANCH   8   9
BRANCH   8  11
ATOM     11  C   LIG d   1      -6.850  95.078 118.531  0.00  0.00     0.028 C 
ATOM     12  C   LIG d   1      -5.989  96.267 118.985  0.00  0.00     0.006 C 
ENDBRANCH   8  11
ENDBRANCH   7   8
ENDBRANCH   1   7
BRANCH   6  13
ATOM     13  N   LIG d   1      -3.855  93.472 119.002  0.00  0.00    -0.311 N 
ATOM     14  C   LIG d   1      -2.890  93.648 119.903  0.00  0.00     0.210 C 
ATOM     15  C   LIG d   1      -2.286  95.055 119.936  0.00  0.00     0.109 C 
ATOM     16  O   LIG d   1      -2.456  92.763 120.656  0.00  0.00    -0.276 OA
ATOM     17  H   LIG d   1      -4.123  94.234 118.411  0.00  0.00     0.149 HD
ENDBRANCH   6  13
BRANCH   5  18
ATOM     18  N   LIG d   1      -2.590  90.873 118.012  0.00  0.00     0.381 N 
ATOM     19  H   LIG d   1      -2.516  90.636 118.981  0.00  0.00    -0.090 HD
ATOM     20  H   LIG d   1      -1.957  91.631 117.824  0.00  0.00    -0.090 HD
ATOM     21  H   LIG d   1      -2.351  90.085 117.451  0.00  0.00    -0.090 HD
ENDBRANCH   5  18
BRANCH   3  22
ATOM     22  C   LIG d   1      -6.943  89.464 116.598  0.00  0.00     0.382 C 
ATOM     23  O   LIG d   1      -6.503  89.044 115.501  0.00  0.00    -0.241 OA
ATOM     24  O   LIG d   1      -8.082  89.125 116.973  0.00  0.00    -0.241 OA
ENDBRANCH   3  22
TORSDOF 7
ENDMDL
MODEL 6
REMARK VINA RESULT:      -5.2      1.604      4.994
REMARK  7 active torsions:
REMARK  status: ('A' for Active; 'I' for Inactive)
REMARK    1  A    between atoms: C_2  and  C_3 
REMARK    2  A    between atoms: C_3  and  O_6 
REMARK    3  A    between atoms: C_3  and  C_4 
REMARK    4  A    between atoms: C_7  and  O_6 
REMARK    5  A    between atoms: C_9  and  C_10 
REMARK    6  A    between atoms: N_15  and  C_14 
REMARK    7  A    between atoms: N_20  and  C_19 
REMARK       I    between atoms: C_22  and  N_20 
ROOT
ATOM      1  C   LIG d   1      -4.963  91.298 117.931  0.00  0.00     0.161 C 
ATOM      2  C   LIG d   1      -3.931  90.346 117.868  0.00  0.00     0.016 C 
ATOM      3  C   LIG d   1      -2.678  90.513 118.502  0.00  0.00     0.038 C 
ATOM      4  C   LIG d   1      -2.425  91.584 119.372  0.00  0.00     0.028 C 
ATOM      5  C   LIG d   1      -3.256  92.825 119.064  0.00  0.00    -0.047 C 
ATOM      6  C   LIG d   1      -4.744  92.421 118.967  0.00  0.00     0.091 C 
ENDROOT
BRANCH   1   7
ATOM      7  O   LIG d   1      -6.223  90.639 118.165  0.00  0.00    -0.368 OA
BRANCH   7   8
ATOM      8  C   LIG d   1      -7.148  90.617 117.050  0.00  0.00     0.119 C 
BRANCH   8   9
ATOM      9  C   LIG d   1      -7.105  89.203 116.440  0.00  0.00     0.028 C 
ATOM     10  C   LIG d   1      -8.457  88.478 116.542  0.00  0.00     0.006 C 
ENDBRANCH   8   9
BRANCH   8  11
ATOM     11  C   LIG d   1      -6.691  91.556 115.929  0.00  0.00     0.028 C 
ATOM     12  C   LIG d   1      -7.220  91.137 114.548  0.00  0.00     0.006 C 
ENDBRANCH   8  11
ENDBRANCH   7   8
ENDBRANCH   1   7
BRANCH   6  13
ATOM     13  N   LIG d   1      -5.618  93.561 118.586  0.00  0.00    -0.311 N 
ATOM     14  C   LIG d   1      -6.794  93.808 119.160  0.00  0.00     0.210 C 
ATOM     15  C   LIG d   1      -7.543  95.022 118.603  0.00  0.00     0.109 C 
ATOM     16  O   LIG d   1      -7.273  93.155 120.100  0.00  0.00    -0.276 OA
ATOM     17  H   LIG d   1      -5.292  94.160 117.853  0.00  0.00     0.149 HD
ENDBRANCH   6  13
BRANCH   5  18
ATOM     18  N   LIG d   1      -2.993  93.812 120.128  0.00  0.00     0.381 N 
ATOM     19  H   LIG d   1      -2.007  93.940 120.236  0.00  0.00    -0.090 HD
ATOM     20  H   LIG d   1      -3.362  93.462 120.995  0.00  0.00    -0.090 HD
ATOM     21  H   LIG d   1      -3.425  94.681 119.902  0.00  0.00    -0.090 HD
ENDBRANCH   5  18
BRANCH   3  22
ATOM     22  C   LIG d   1      -1.649  89.624 118.234  0.00  0.00     0.382 C 
ATOM     23  O   LIG d   1      -0.530  89.777 118.780  0.00  0.00    -0.241 OA
ATOM     24  O   LIG d   1      -1.812  88.695 117.420  0.00  0.00    -0.241 OA
ENDBRANCH   3  22
TORSDOF 7
ENDMDL
MODEL 7
REMARK VINA RESULT:      -5.1      1.711      2.536
REMARK  7 active torsions:
REMARK  status: ('A' for Active; 'I' for Inactive)
REMARK    1  A    between atoms: C_2  and  C_3 
REMARK    2  A    between atoms: C_3  and  O_6 
REMARK    3  A    between atoms: C_3  and  C_4 
REMARK    4  A    between atoms: C_7  and  O_6 
REMARK    5  A    between atoms: C_9  and  C_10 
REMARK    6  A    between atoms: N_15  and  C_14 
REMARK    7  A    between atoms: N_20  and  C_19 
REMARK       I    between atoms: C_22  and  N_20 
ROOT
ATOM      1  C   LIG d   1      -5.647  92.427 120.041  0.00  0.00     0.161 C 
ATOM      2  C   LIG d   1      -6.980  92.840 119.878  0.00  0.00     0.016 C 
ATOM      3  C   LIG d   1      -7.345  94.123 119.409  0.00  0.00     0.038 C 
ATOM      4  C   LIG d   1      -6.394  95.034 118.926  0.00  0.00     0.028 C 
ATOM      5  C   LIG d   1      -5.011  94.851 119.543  0.00  0.00    -0.047 C 
ATOM      6  C   LIG d   1      -4.597  93.367 119.414  0.00  0.00     0.091 C 
ENDROOT
BRANCH   1   7
ATOM      7  O   LIG d   1      -5.485  91.087 119.536  0.00  0.00    -0.368 OA
BRANCH   7   8
ATOM      8  C   LIG d   1      -5.053  90.974 118.157  0.00  0.00     0.119 C 
BRANCH   8   9
ATOM      9  C   LIG d   1      -6.252  90.458 117.337  0.00  0.00     0.028 C 
ATOM     10  C   LIG d   1      -6.738  91.483 116.299  0.00  0.00     0.006 C 
ENDBRANCH   8   9
BRANCH   8  11
ATOM     11  C   LIG d   1      -3.965  89.907 118.000  0.00  0.00     0.028 C 
ATOM     12  C   LIG d   1      -3.314  89.520 119.337  0.00  0.00     0.006 C 
ENDBRANCH   8  11
ENDBRANCH   7   8
ENDBRANCH   1   7
BRANCH   6  13
ATOM     13  N   LIG d   1      -3.293  93.085 120.068  0.00  0.00    -0.311 N 
ATOM     14  C   LIG d   1      -2.135  93.053 119.410  0.00  0.00     0.210 C 
ATOM     15  C   LIG d   1      -0.911  92.723 120.271  0.00  0.00     0.109 C 
ATOM     16  O   LIG d   1      -2.001  93.299 118.202  0.00  0.00    -0.276 OA
ATOM     17  H   LIG d   1      -3.305  92.905 121.053  0.00  0.00     0.149 HD
ENDBRANCH   6  13
BRANCH   5  18
ATOM     18  N   LIG d   1      -4.089  95.771 118.851  0.00  0.00     0.381 N 
ATOM     19  H   LIG d   1      -3.147  95.575 119.123  0.00  0.00    -0.090 HD
ATOM     20  H   LIG d   1      -4.306  96.714 119.122  0.00  0.00    -0.090 HD
ATOM     21  H   LIG d   1      -4.185  95.671 117.864  0.00  0.00    -0.090 HD
ENDBRANCH   5  18
BRANCH   3  22
ATOM     22  C   LIG d   1      -8.672  94.520 119.459  0.00  0.00     0.382 C 
ATOM     23  O   LIG d   1      -8.960  95.714 119.717  0.00  0.00    -0.241 OA
ATOM     24  O   LIG d   1      -9.587  93.691 119.292  0.00  0.00    -0.241 OA
ENDBRANCH   3  22
TORSDOF 7
ENDMDL
MODEL 8
REMARK VINA RESULT:      -5.0      1.529      2.179
REMARK  7 active torsions:
REMARK  status: ('A' for Active; 'I' for Inactive)
REMARK    1  A    between atoms: C_2  and  C_3 
REMARK    2  A    between atoms: C_3  and  O_6 
REMARK    3  A    between atoms: C_3  and  C_4 
REMARK    4  A    between atoms: C_7  and  O_6 
REMARK    5  A    between atoms: C_9  and  C_10 
REMARK    6  A    between atoms: N_15  and  C_14 
REMARK    7  A    between atoms: N_20  and  C_19 
REMARK       I    between atoms: C_22  and  N_20 
ROOT
ATOM      1  C   LIG d   1      -5.053  90.626 118.621  0.00  0.00     0.161 C 
ATOM      2  C   LIG d   1      -6.049  91.541 119.002  0.00  0.00     0.016 C 
ATOM      3  C   LIG d   1      -5.768  92.835 119.497  0.00  0.00     0.038 C 
ATOM      4  C   LIG d   1      -4.467  93.360 119.504  0.00  0.00     0.028 C 
ATOM      5  C   LIG d   1      -3.383  92.293 119.603  0.00  0.00    -0.047 C 
ATOM      6  C   LIG d   1      -3.633  91.222 118.517  0.00  0.00     0.091 C 
ENDROOT
BRANCH   1   7
ATOM      7  O   LIG d   1      -5.421  89.990 117.381  0.00  0.00    -0.368 OA
BRANCH   7   8
ATOM      8  C   LIG d   1      -6.719  90.346 116.844  0.00  0.00     0.119 C 
BRANCH   8   9
ATOM      9  C   LIG d   1      -7.247  89.126 116.064  0.00  0.00     0.028 C 
ATOM     10  C   LIG d   1      -8.474  88.487 116.736  0.00  0.00     0.006 C 
ENDBRANCH   8   9
BRANCH   8  11
ATOM     11  C   LIG d   1      -6.604  91.470 115.810  0.00  0.00     0.028 C 
ATOM     12  C   LIG d   1      -7.288  91.125 114.477  0.00  0.00     0.006 C 
ENDBRANCH   8  11
ENDBRANCH   7   8
ENDBRANCH   1   7
BRANCH   6  13
ATOM     13  N   LIG d   1      -2.666  90.096 118.597  0.00  0.00    -0.311 N 
ATOM     14  C   LIG d   1      -1.512  90.072 117.933  0.00  0.00     0.210 C 
ATOM     15  C   LIG d   1      -0.672  88.808 118.141  0.00  0.00     0.109 C 
ATOM     16  O   LIG d   1      -1.090  90.991 117.215  0.00  0.00    -0.276 OA
ATOM     17  H   LIG d   1      -2.915  89.322 119.182  0.00  0.00     0.149 HD
ENDBRANCH   6  13
BRANCH   5  18
ATOM     18  N   LIG d   1      -2.079  92.967 119.460  0.00  0.00     0.381 N 
ATOM     19  H   LIG d   1      -1.424  92.349 119.026  0.00  0.00    -0.090 HD
ATOM     20  H   LIG d   1      -1.733  93.202 120.374  0.00  0.00    -0.090 HD
ATOM     21  H   LIG d   1      -2.181  93.794 118.913  0.00  0.00    -0.090 HD
ENDBRANCH   5  18
BRANCH   3  22
ATOM     22  C   LIG d   1      -6.792  93.603 120.031  0.00  0.00     0.382 C 
ATOM     23  O   LIG d   1      -6.542  94.444 120.928  0.00  0.00    -0.241 OA
ATOM     24  O   LIG d   1      -7.968  93.435 119.658  0.00  0.00    -0.241 OA
ENDBRANCH   3  22
TORSDOF 7
ENDMDL
MODEL 9
REMARK VINA RESULT:      -4.9      2.084      5.329
REMARK  7 active torsions:
REMARK  status: ('A' for Active; 'I' for Inactive)
REMARK    1  A    between atoms: C_2  and  C_3 
REMARK    2  A    between atoms: C_3  and  O_6 
REMARK    3  A    between atoms: C_3  and  C_4 
REMARK    4  A    between atoms: C_7  and  O_6 
REMARK    5  A    between atoms: C_9  and  C_10 
REMARK    6  A    between atoms: N_15  and  C_14 
REMARK    7  A    between atoms: N_20  and  C_19 
REMARK       I    between atoms: C_22  and  N_20 
ROOT
ATOM      1  C   LIG d   1      -4.810  91.709 118.514  0.00  0.00     0.161 C 
ATOM      2  C   LIG d   1      -5.219  90.639 117.701  0.00  0.00     0.016 C 
ATOM      3  C   LIG d   1      -6.440  90.625 116.989  0.00  0.00     0.038 C 
ATOM      4  C   LIG d   1      -7.271  91.753 116.920  0.00  0.00     0.028 C 
ATOM      5  C   LIG d   1      -7.145  92.673 118.131  0.00  0.00    -0.047 C 
ATOM      6  C   LIG d   1      -5.651  92.994 118.363  0.00  0.00     0.091 C 
ENDROOT
BRANCH   1   7
ATOM      7  O   LIG d   1      -3.416  91.994 118.283  0.00  0.00    -0.368 OA
BRANCH   7   8
ATOM      8  C   LIG d   1      -2.555  91.955 119.448  0.00  0.00     0.119 C 
BRANCH   8   9
ATOM      9  C   LIG d   1      -1.098  92.009 118.949  0.00  0.00     0.028 C 
ATOM     10  C   LIG d   1      -0.329  93.216 119.513  0.00  0.00     0.006 C 
ENDBRANCH   8   9
BRANCH   8  11
ATOM     11  C   LIG d   1      -2.681  90.621 120.190  0.00  0.00     0.028 C 
ATOM     12  C   LIG d   1      -1.833  89.506 119.559  0.00  0.00     0.006 C 
ENDBRANCH   8  11
ENDBRANCH   7   8
ENDBRANCH   1   7
BRANCH   6  13
ATOM     13  N   LIG d   1      -5.432  93.820 119.579  0.00  0.00    -0.311 N 
ATOM     14  C   LIG d   1      -5.435  95.152 119.571  0.00  0.00     0.210 C 
ATOM     15  C   LIG d   1      -5.169  95.808 120.929  0.00  0.00     0.109 C 
ATOM     16  O   LIG d   1      -5.665  95.853 118.573  0.00  0.00    -0.276 OA
ATOM     17  H   LIG d   1      -5.268  93.333 120.439  0.00  0.00     0.149 HD
ENDBRANCH   6  13
BRANCH   5  18
ATOM     18  N   LIG d   1      -7.960  93.873 117.865  0.00  0.00     0.381 N 
ATOM     19  H   LIG d   1      -7.893  94.121 116.898  0.00  0.00    -0.090 HD
ATOM     20  H   LIG d   1      -7.602  94.637 118.412  0.00  0.00    -0.090 HD
ATOM     21  H   LIG d   1      -8.911  93.700 118.106  0.00  0.00    -0.090 HD
ENDBRANCH   5  18
BRANCH   3  22
ATOM     22  C   LIG d   1      -6.859  89.459 116.367  0.00  0.00     0.382 C 
ATOM     23  O   LIG d   1      -6.062  88.811 115.647  0.00  0.00    -0.241 OA
ATOM     24  O   LIG d   1      -8.038  89.072 116.480  0.00  0.00    -0.241 OA
ENDBRANCH   3  22
TORSDOF 7
ENDMDL
