MODEL 1
REMARK VINA RESULT:      -4.9      0.000      0.000
REMARK  7 active torsions:
REMARK  status: ('A' for Active; 'I' for Inactive)
REMARK    1  A    between atoms: C_2  and  C_3 
REMARK    2  A    between atoms: C_3  and  O_6 
REMARK    3  A    between atoms: C_3  and  C_4 
REMARK    4  A    between atoms: C_7  and  O_6 
REMARK    5  A    between atoms: C_9  and  C_10 
REMARK    6  A    between atoms: N_15  and  C_14 
REMARK    7  A    between atoms: N_20  and  C_19 
REMARK       I    between atoms: C_22  and  N_20 
ROOT
ATOM      1  C   LIG d   1      -4.668  91.823 118.057  0.00  0.00     0.161 C 
ATOM      2  C   LIG d   1      -4.022  92.872 118.732  0.00  0.00     0.016 C 
ATOM      3  C   LIG d   1      -4.679  94.055 119.142  0.00  0.00     0.038 C 
ATOM      4  C   LIG d   1      -6.070  94.204 119.039  0.00  0.00     0.028 C 
ATOM      5  C   LIG d   1      -6.685  93.385 117.910  0.00  0.00    -0.047 C 
ATOM      6  C   LIG d   1      -6.208  91.920 118.035  0.00  0.00     0.091 C 
ENDROOT
BRANCH   1   7
ATOM      7  O   LIG d   1      -4.253  90.558 118.609  0.00  0.00    -0.368 OA
BRANCH   7   8
ATOM      8  C   LIG d   1      -2.848  90.234 118.474  0.00  0.00     0.119 C 
BRANCH   8   9
ATOM      9  C   LIG d   1      -2.738  89.057 117.485  0.00  0.00     0.028 C 
ATOM     10  C   LIG d   1      -2.151  87.794 118.139  0.00  0.00     0.006 C 
ENDBRANCH   8   9
BRANCH   8  11
ATOM     11  C   LIG d   1      -2.267  89.712 119.792  0.00  0.00     0.028 C 
ATOM     12  C   LIG d   1      -1.460  90.777 120.550  0.00  0.00     0.006 C 
ENDBRANCH   8  11
ENDBRANCH   7   8
ENDBRANCH   1   7
BRANCH   6  13
ATOM     13  N   LIG d   1      -6.696  91.068 116.919  0.00  0.00    -0.311 N 
ATOM     14  C   LIG d   1      -6.846  91.508 115.671  0.00  0.00     0.210 C 
ATOM     15  C   LIG d   1      -7.381  90.471 114.679  0.00  0.00     0.109 C 
ATOM     16  O   LIG d   1      -6.556  92.651 115.285  0.00  0.00    -0.276 OA
ATOM     17  H   LIG d   1      -6.925  90.118 117.137  0.00  0.00     0.149 HD
ENDBRANCH   6  13
BRANCH   5  18
ATOM     18  N   LIG d   1      -8.150  93.526 118.004  0.00  0.00     0.381 N 
ATOM     19  H   LIG d   1      -8.582  92.625 117.940  0.00  0.00    -0.090 HD
ATOM     20  H   LIG d   1      -8.473  94.085 117.234  0.00  0.00    -0.090 HD
ATOM     21  H   LIG d   1      -8.397  93.960 118.866  0.00  0.00    -0.090 HD
ENDBRANCH   5  18
BRANCH   3  22
ATOM     22  C   LIG d   1      -3.936  95.121 119.627  0.00  0.00     0.382 C 
ATOM     23  O   LIG d   1      -2.764  94.935 120.034  0.00  0.00    -0.241 OA
ATOM     24  O   LIG d   1      -4.439  96.258 119.705  0.00  0.00    -0.241 OA
ENDBRANCH   3  22
TORSDOF 7
ENDMDL
MODEL 2
REMARK VINA RESULT:      -4.6      2.327      4.985
REMARK  7 active torsions:
REMARK  status: ('A' for Active; 'I' for Inactive)
REMARK    1  A    between atoms: C_2  and  C_3 
REMARK    2  A    between atoms: C_3  and  O_6 
REMARK    3  A    between atoms: C_3  and  C_4 
REMARK    4  A    between atoms: C_7  and  O_6 
REMARK    5  A    between atoms: C_9  and  C_10 
REMARK    6  A    between atoms: N_15  and  C_14 
REMARK    7  A    between atoms: N_20  and  C_19 
REMARK       I    between atoms: C_22  and  N_20 
ROOT
ATOM      1  C   LIG d   1      -6.018  93.177 119.779  0.00  0.00     0.161 C 
ATOM      2  C   LIG d   1      -5.496  92.104 119.037  0.00  0.00     0.016 C 
ATOM      3  C   LIG d   1      -5.891  91.809 117.712  0.00  0.00     0.038 C 
ATOM      4  C   LIG d   1      -6.729  92.664 116.980  0.00  0.00     0.028 C 
ATOM      5  C   LIG d   1      -7.673  93.482 117.856  0.00  0.00    -0.047 C 
ATOM      6  C   LIG d   1      -6.850  94.185 118.959  0.00  0.00     0.091 C 
ENDROOT
BRANCH   1   7
ATOM      7  O   LIG d   1      -4.952  93.855 120.473  0.00  0.00    -0.368 OA
BRANCH   7   8
ATOM      8  C   LIG d   1      -3.869  94.352 119.649  0.00  0.00     0.119 C 
BRANCH   8   9
ATOM      9  C   LIG d   1      -2.558  93.764 120.205  0.00  0.00     0.028 C 
ATOM     10  C   LIG d   1      -2.049  92.576 119.372  0.00  0.00     0.006 C 
ENDBRANCH   8   9
BRANCH   8  11
ATOM     11  C   LIG d   1      -3.721  95.871 119.781  0.00  0.00     0.028 C 
ATOM     12  C   LIG d   1      -4.559  96.454 120.930  0.00  0.00     0.006 C 
ENDBRANCH   8  11
ENDBRANCH   7   8
ENDBRANCH   1   7
BRANCH   6  13
ATOM     13  N   LIG d   1      -7.707  94.940 119.911  0.00  0.00    -0.311 N 
ATOM     14  C   LIG d   1      -8.017  96.226 119.757  0.00  0.00     0.210 C 
ATOM     15  C   LIG d   1      -8.897  96.816 120.863  0.00  0.00     0.109 C 
ATOM     16  O   LIG d   1      -7.674  96.926 118.792  0.00  0.00    -0.276 OA
ATOM     17  H   LIG d   1      -8.055  94.441 120.706  0.00  0.00     0.149 HD
ENDBRANCH   6  13
BRANCH   5  18
ATOM     18  N   LIG d   1      -8.389  94.426 116.977  0.00  0.00     0.381 N 
ATOM     19  H   LIG d   1      -8.340  94.110 116.029  0.00  0.00    -0.090 HD
ATOM     20  H   LIG d   1      -7.944  95.325 117.034  0.00  0.00    -0.090 HD
ATOM     21  H   LIG d   1      -9.341  94.500 117.261  0.00  0.00    -0.090 HD
ENDBRANCH   5  18
BRANCH   3  22
ATOM     22  C   LIG d   1      -5.477  90.626 117.119  0.00  0.00     0.382 C 
ATOM     23  O   LIG d   1      -4.501  89.996 117.592  0.00  0.00    -0.241 OA
ATOM     24  O   LIG d   1      -6.039  90.205 116.090  0.00  0.00    -0.241 OA
ENDBRANCH   3  22
TORSDOF 7
ENDMDL
MODEL 3
REMARK VINA RESULT:      -4.5      1.441      2.187
REMARK  7 active torsions:
REMARK  status: ('A' for Active; 'I' for Inactive)
REMARK    1  A    between atoms: C_2  and  C_3 
REMARK    2  A    between atoms: C_3  and  O_6 
REMARK    3  A    between atoms: C_3  and  C_4 
REMARK    4  A    between atoms: C_7  and  O_6 
REMARK    5  A    between atoms: C_9  and  C_10 
REMARK    6  A    between atoms: N_15  and  C_14 
REMARK    7  A    between atoms: N_20  and  C_19 
REMARK       I    between atoms: C_22  and  N_20 
ROOT
ATOM      1  C   LIG d   1      -4.799  92.758 118.740  0.00  0.00     0.161 C 
ATOM      2  C   LIG d   1      -4.812  93.879 119.586  0.00  0.00     0.016 C 
ATOM      3  C   LIG d   1      -5.797  94.892 119.520  0.00  0.00     0.038 C 
ATOM      4  C   LIG d   1      -6.928  94.773 118.700  0.00  0.00     0.028 C 
ATOM      5  C   LIG d   1      -6.695  93.905 117.468  0.00  0.00    -0.047 C 
ATOM      6  C   LIG d   1      -6.086  92.556 117.914  0.00  0.00     0.091 C 
ENDROOT
BRANCH   1   7
ATOM      7  O   LIG d   1      -4.503  91.573 119.504  0.00  0.00    -0.368 OA
BRANCH   7   8
ATOM      8  C   LIG d   1      -3.200  90.979 119.281  0.00  0.00     0.119 C 
BRANCH   8   9
ATOM      9  C   LIG d   1      -2.339  92.018 118.538  0.00  0.00     0.028 C 
ATOM     10  C   LIG d   1      -1.097  92.436 119.344  0.00  0.00     0.006 C 
ENDBRANCH   8   9
BRANCH   8  11
ATOM     11  C   LIG d   1      -3.290  89.777 118.337  0.00  0.00     0.028 C 
ATOM     12  C   LIG d   1      -2.754  88.482 118.968  0.00  0.00     0.006 C 
ENDBRANCH   8  11
ENDBRANCH   7   8
ENDBRANCH   1   7
BRANCH   6  13
ATOM     13  N   LIG d   1      -5.749  91.678 116.763  0.00  0.00    -0.311 N 
ATOM     14  C   LIG d   1      -6.571  90.744 116.288  0.00  0.00     0.210 C 
ATOM     15  C   LIG d   1      -6.019  89.937 115.108  0.00  0.00     0.109 C 
ATOM     16  O   LIG d   1      -7.716  90.528 116.711  0.00  0.00    -0.276 OA
ATOM     17  H   LIG d   1      -4.851  91.807 116.339  0.00  0.00     0.149 HD
ENDBRANCH   6  13
BRANCH   5  18
ATOM     18  N   LIG d   1      -7.990  93.755 116.778  0.00  0.00     0.381 N 
ATOM     19  H   LIG d   1      -8.545  93.065 117.244  0.00  0.00    -0.090 HD
ATOM     20  H   LIG d   1      -7.823  93.442 115.838  0.00  0.00    -0.090 HD
ATOM     21  H   LIG d   1      -8.473  94.626 116.764  0.00  0.00    -0.090 HD
ENDBRANCH   5  18
BRANCH   3  22
ATOM     22  C   LIG d   1      -5.634  96.057 120.254  0.00  0.00     0.382 C 
ATOM     23  O   LIG d   1      -6.614  96.814 120.455  0.00  0.00    -0.241 OA
ATOM     24  O   LIG d   1      -4.509  96.384 120.679  0.00  0.00    -0.241 OA
ENDBRANCH   3  22
TORSDOF 7
ENDMDL
MODEL 4
REMARK VINA RESULT:      -4.5      6.054      8.481
REMARK  7 active torsions:
REMARK  status: ('A' for Active; 'I' for Inactive)
REMARK    1  A    between atoms: C_2  and  C_3 
REMARK    2  A    between atoms: C_3  and  O_6 
REMARK    3  A    between atoms: C_3  and  C_4 
REMARK    4  A    between atoms: C_7  and  O_6 
REMARK    5  A    between atoms: C_9  and  C_10 
REMARK    6  A    between atoms: N_15  and  C_14 
REMARK    7  A    between atoms: N_20  and  C_19 
REMARK       I    between atoms: C_22  and  N_20 
ROOT
ATOM      1  C   LIG d   1       1.565  88.612 116.628  0.00  0.00     0.161 C 
ATOM      2  C   LIG d   1       0.204  88.435 116.929  0.00  0.00     0.016 C 
ATOM      3  C   LIG d   1      -0.636  89.480 117.377  0.00  0.00     0.038 C 
ATOM      4  C   LIG d   1      -0.206  90.815 117.411  0.00  0.00     0.028 C 
ATOM      5  C   LIG d   1       1.300  90.961 117.599  0.00  0.00    -0.047 C 
ATOM      6  C   LIG d   1       2.024  90.083 116.552  0.00  0.00     0.091 C 
ENDROOT
BRANCH   1   7
ATOM      7  O   LIG d   1       1.889  87.923 115.404  0.00  0.00    -0.368 OA
BRANCH   7   8
ATOM      8  C   LIG d   1       2.465  86.601 115.551  0.00  0.00     0.119 C 
BRANCH   8   9
ATOM      9  C   LIG d   1       3.932  86.683 115.087  0.00  0.00     0.028 C 
ATOM     10  C   LIG d   1       4.068  87.246 113.663  0.00  0.00     0.006 C 
ENDBRANCH   8   9
BRANCH   8  11
ATOM     11  C   LIG d   1       1.798  85.595 114.609  0.00  0.00     0.028 C 
ATOM     12  C   LIG d   1       0.547  86.162 113.919  0.00  0.00     0.006 C 
ENDBRANCH   8  11
ENDBRANCH   7   8
ENDBRANCH   1   7
BRANCH   6  13
ATOM     13  N   LIG d   1       3.501  90.103 116.720  0.00  0.00    -0.311 N 
ATOM     14  C   LIG d   1       4.348  90.366 115.727  0.00  0.00     0.210 C 
ATOM     15  C   LIG d   1       5.830  90.315 116.110  0.00  0.00     0.109 C 
ATOM     16  O   LIG d   1       4.012  90.669 114.572  0.00  0.00    -0.276 OA
ATOM     17  H   LIG d   1       3.859  89.898 117.632  0.00  0.00     0.149 HD
ENDBRANCH   6  13
BRANCH   5  18
ATOM     18  N   LIG d   1       1.627  92.394 117.477  0.00  0.00     0.381 N 
ATOM     19  H   LIG d   1       0.787  92.925 117.364  0.00  0.00    -0.090 HD
ATOM     20  H   LIG d   1       2.198  92.529 116.661  0.00  0.00    -0.090 HD
ATOM     21  H   LIG d   1       2.117  92.702 118.288  0.00  0.00    -0.090 HD
ENDBRANCH   5  18
BRANCH   3  22
ATOM     22  C   LIG d   1      -1.912  89.187 117.836  0.00  0.00     0.382 C 
ATOM     23  O   LIG d   1      -2.470  89.947 118.663  0.00  0.00    -0.241 OA
ATOM     24  O   LIG d   1      -2.493  88.149 117.467  0.00  0.00    -0.241 OA
ENDBRANCH   3  22
TORSDOF 7
ENDMDL
MODEL 5
REMARK VINA RESULT:      -4.5      5.165      7.114
REMARK  7 active torsions:
REMARK  status: ('A' for Active; 'I' for Inactive)
REMARK    1  A    between atoms: C_2  and  C_3 
REMARK    2  A    between atoms: C_3  and  O_6 
REMARK    3  A    between atoms: C_3  and  C_4 
REMARK    4  A    between atoms: C_7  and  O_6 
REMARK    5  A    between atoms: C_9  and  C_10 
REMARK    6  A    between atoms: N_15  and  C_14 
REMARK    7  A    between atoms: N_20  and  C_19 
REMARK       I    between atoms: C_22  and  N_20 
ROOT
ATOM      1  C   LIG d   1       0.693  90.276 117.886  0.00  0.00     0.161 C 
ATOM      2  C   LIG d   1       0.171  91.343 118.636  0.00  0.00     0.016 C 
ATOM      3  C   LIG d   1       0.836  92.581 118.795  0.00  0.00     0.038 C 
ATOM      4  C   LIG d   1       2.006  92.891 118.085  0.00  0.00     0.028 C 
ATOM      5  C   LIG d   1       2.831  91.664 117.713  0.00  0.00    -0.047 C 
ATOM      6  C   LIG d   1       1.914  90.635 117.013  0.00  0.00     0.091 C 
ENDROOT
BRANCH   1   7
ATOM      7  O   LIG d   1      -0.348  89.694 117.076  0.00  0.00    -0.368 OA
BRANCH   7   8
ATOM      8  C   LIG d   1      -0.950  88.480 117.587  0.00  0.00     0.119 C 
BRANCH   8   9
ATOM      9  C   LIG d   1      -0.448  87.312 116.716  0.00  0.00     0.028 C 
ATOM     10  C   LIG d   1       0.592  86.442 117.443  0.00  0.00     0.006 C 
ENDBRANCH   8   9
BRANCH   8  11
ATOM     11  C   LIG d   1      -2.471  88.494 117.410  0.00  0.00     0.028 C 
ATOM     12  C   LIG d   1      -3.169  89.506 118.332  0.00  0.00     0.006 C 
ENDBRANCH   8  11
ENDBRANCH   7   8
ENDBRANCH   1   7
BRANCH   6  13
ATOM     13  N   LIG d   1       2.624  89.370 116.691  0.00  0.00    -0.311 N 
ATOM     14  C   LIG d   1       3.102  89.086 115.480  0.00  0.00     0.210 C 
ATOM     15  C   LIG d   1       3.782  87.718 115.359  0.00  0.00     0.109 C 
ATOM     16  O   LIG d   1       3.056  89.850 114.504  0.00  0.00    -0.276 OA
ATOM     17  H   LIG d   1       2.733  88.706 117.432  0.00  0.00     0.149 HD
ENDBRANCH   6  13
BRANCH   5  18
ATOM     18  N   LIG d   1       3.946  92.119 116.860  0.00  0.00     0.381 N 
ATOM     19  H   LIG d   1       4.407  91.329 116.455  0.00  0.00    -0.090 HD
ATOM     20  H   LIG d   1       4.609  92.614 117.429  0.00  0.00    -0.090 HD
ATOM     21  H   LIG d   1       3.602  92.717 116.141  0.00  0.00    -0.090 HD
ENDBRANCH   5  18
BRANCH   3  22
ATOM     22  C   LIG d   1       0.352  93.509 119.704  0.00  0.00     0.382 C 
ATOM     23  O   LIG d   1       0.858  94.656 119.759  0.00  0.00    -0.241 OA
ATOM     24  O   LIG d   1      -0.555  93.200 120.501  0.00  0.00    -0.241 OA
ENDBRANCH   3  22
TORSDOF 7
ENDMDL
MODEL 6
REMARK VINA RESULT:      -4.2      1.779      4.814
REMARK  7 active torsions:
REMARK  status: ('A' for Active; 'I' for Inactive)
REMARK    1  A    between atoms: C_2  and  C_3 
REMARK    2  A    between atoms: C_3  and  O_6 
REMARK    3  A    between atoms: C_3  and  C_4 
REMARK    4  A    between atoms: C_7  and  O_6 
REMARK    5  A    between atoms: C_9  and  C_10 
REMARK    6  A    between atoms: N_15  and  C_14 
REMARK    7  A    between atoms: N_20  and  C_19 
REMARK       I    between atoms: C_22  and  N_20 
ROOT
ATOM      1  C   LIG d   1      -4.377  92.503 119.123  0.00  0.00     0.161 C 
ATOM      2  C   LIG d   1      -3.457  91.443 119.180  0.00  0.00     0.016 C 
ATOM      3  C   LIG d   1      -3.574  90.267 118.403  0.00  0.00     0.038 C 
ATOM      4  C   LIG d   1      -4.544  90.137 117.398  0.00  0.00     0.028 C 
ATOM      5  C   LIG d   1      -5.797  90.968 117.654  0.00  0.00    -0.047 C 
ATOM      6  C   LIG d   1      -5.379  92.426 117.953  0.00  0.00     0.091 C 
ENDROOT
BRANCH   1   7
ATOM      7  O   LIG d   1      -3.672  93.760 119.099  0.00  0.00    -0.368 OA
BRANCH   7   8
ATOM      8  C   LIG d   1      -3.766  94.567 120.298  0.00  0.00     0.119 C 
BRANCH   8   9
ATOM      9  C   LIG d   1      -4.253  95.967 119.877  0.00  0.00     0.028 C 
ATOM     10  C   LIG d   1      -5.768  96.145 120.071  0.00  0.00     0.006 C 
ENDBRANCH   8   9
BRANCH   8  11
ATOM     11  C   LIG d   1      -2.389  94.789 120.930  0.00  0.00     0.028 C 
ATOM     12  C   LIG d   1      -1.296  93.911 120.300  0.00  0.00     0.006 C 
ENDBRANCH   8  11
ENDBRANCH   7   8
ENDBRANCH   1   7
BRANCH   6  13
ATOM     13  N   LIG d   1      -6.539  93.289 118.297  0.00  0.00    -0.311 N 
ATOM     14  C   LIG d   1      -7.372  93.796 117.389  0.00  0.00     0.210 C 
ATOM     15  C   LIG d   1      -8.490  94.676 117.957  0.00  0.00     0.109 C 
ATOM     16  O   LIG d   1      -7.309  93.574 116.171  0.00  0.00    -0.276 OA
ATOM     17  H   LIG d   1      -6.683  93.495 119.267  0.00  0.00     0.149 HD
ENDBRANCH   6  13
BRANCH   5  18
ATOM     18  N   LIG d   1      -6.663  90.847 116.466  0.00  0.00     0.381 N 
ATOM     19  H   LIG d   1      -7.034  91.744 116.224  0.00  0.00    -0.090 HD
ATOM     20  H   LIG d   1      -7.431  90.236 116.685  0.00  0.00    -0.090 HD
ATOM     21  H   LIG d   1      -6.143  90.477 115.701  0.00  0.00    -0.090 HD
ENDBRANCH   5  18
BRANCH   3  22
ATOM     22  C   LIG d   1      -2.739  89.190 118.656  0.00  0.00     0.382 C 
ATOM     23  O   LIG d   1      -1.499  89.310 118.509  0.00  0.00    -0.241 OA
ATOM     24  O   LIG d   1      -3.213  88.087 118.985  0.00  0.00    -0.241 OA
ENDBRANCH   3  22
TORSDOF 7
ENDMDL
MODEL 7
REMARK VINA RESULT:      -4.2      7.132      8.647
REMARK  7 active torsions:
REMARK  status: ('A' for Active; 'I' for Inactive)
REMARK    1  A    between atoms: C_2  and  C_3 
REMARK    2  A    between atoms: C_3  and  O_6 
REMARK    3  A    between atoms: C_3  and  C_4 
REMARK    4  A    between atoms: C_7  and  O_6 
REMARK    5  A    between atoms: C_9  and  C_10 
REMARK    6  A    between atoms: N_15  and  C_14 
REMARK    7  A    between atoms: N_20  and  C_19 
REMARK       I    between atoms: C_22  and  N_20 
ROOT
ATOM      1  C   LIG d   1       2.475  89.270 117.020  0.00  0.00     0.161 C 
ATOM      2  C   LIG d   1       1.650  89.610 118.105  0.00  0.00     0.016 C 
ATOM      3  C   LIG d   1       1.781  90.814 118.835  0.00  0.00     0.038 C 
ATOM      4  C   LIG d   1       2.655  91.834 118.432  0.00  0.00     0.028 C 
ATOM      5  C   LIG d   1       3.858  91.326 117.645  0.00  0.00    -0.047 C 
ATOM      6  C   LIG d   1       3.360  90.420 116.495  0.00  0.00     0.091 C 
ENDROOT
BRANCH   1   7
ATOM      7  O   LIG d   1       1.676  88.725 115.951  0.00  0.00    -0.368 OA
BRANCH   7   8
ATOM      8  C   LIG d   1       1.599  87.280 115.885  0.00  0.00     0.119 C 
BRANCH   8   9
ATOM      9  C   LIG d   1       1.908  86.865 114.434  0.00  0.00     0.028 C 
ATOM     10  C   LIG d   1       0.708  86.190 113.749  0.00  0.00     0.006 C 
ENDBRANCH   8   9
BRANCH   8  11
ATOM     11  C   LIG d   1       0.175  86.785 116.155  0.00  0.00     0.028 C 
ATOM     12  C   LIG d   1      -0.024  86.300 117.599  0.00  0.00     0.006 C 
ENDBRANCH   8  11
ENDBRANCH   7   8
ENDBRANCH   1   7
BRANCH   6  13
ATOM     13  N   LIG d   1       4.478  89.813 115.727  0.00  0.00    -0.311 N 
ATOM     14  C   LIG d   1       4.574  89.875 114.400  0.00  0.00     0.210 C 
ATOM     15  C   LIG d   1       5.795  89.165 113.807  0.00  0.00     0.109 C 
ATOM     16  O   LIG d   1       3.782  90.478 113.661  0.00  0.00    -0.276 OA
ATOM     17  H   LIG d   1       5.182  89.331 116.251  0.00  0.00     0.149 HD
ENDBRANCH   6  13
BRANCH   5  18
ATOM     18  N   LIG d   1       4.610  92.503 117.170  0.00  0.00     0.381 N 
ATOM     19  H   LIG d   1       4.064  93.005 116.499  0.00  0.00    -0.090 HD
ATOM     20  H   LIG d   1       5.452  92.190 116.720  0.00  0.00    -0.090 HD
ATOM     21  H   LIG d   1       4.834  93.097 117.938  0.00  0.00    -0.090 HD
ENDBRANCH   5  18
BRANCH   3  22
ATOM     22  C   LIG d   1       1.061  90.988 120.007  0.00  0.00     0.382 C 
ATOM     23  O   LIG d   1       0.257  90.103 120.387  0.00  0.00    -0.241 OA
ATOM     24  O   LIG d   1       1.171  92.040 120.666  0.00  0.00    -0.241 OA
ENDBRANCH   3  22
TORSDOF 7
ENDMDL
MODEL 8
REMARK VINA RESULT:      -4.0      6.537      9.083
REMARK  7 active torsions:
REMARK  status: ('A' for Active; 'I' for Inactive)
REMARK    1  A    between atoms: C_2  and  C_3 
REMARK    2  A    between atoms: C_3  and  O_6 
REMARK    3  A    between atoms: C_3  and  C_4 
REMARK    4  A    between atoms: C_7  and  O_6 
REMARK    5  A    between atoms: C_9  and  C_10 
REMARK    6  A    between atoms: N_15  and  C_14 
REMARK    7  A    between atoms: N_20  and  C_19 
REMARK       I    between atoms: C_22  and  N_20 
ROOT
ATOM      1  C   LIG d   1       2.944  89.314 117.577  0.00  0.00     0.161 C 
ATOM      2  C   LIG d   1       1.741  88.639 117.308  0.00  0.00     0.016 C 
ATOM      3  C   LIG d   1       0.480  89.277 117.285  0.00  0.00     0.038 C 
ATOM      4  C   LIG d   1       0.351  90.670 117.381  0.00  0.00     0.028 C 
ATOM      5  C   LIG d   1       1.486  91.331 118.157  0.00  0.00    -0.047 C 
ATOM      6  C   LIG d   1       2.836  90.854 117.575  0.00  0.00     0.091 C 
ENDROOT
BRANCH   1   7
ATOM      7  O   LIG d   1       3.964  88.882 116.655  0.00  0.00    -0.368 OA
BRANCH   7   8
ATOM      8  C   LIG d   1       3.542  88.689 115.283  0.00  0.00     0.119 C 
BRANCH   8   9
ATOM      9  C   LIG d   1       4.220  87.405 114.766  0.00  0.00     0.028 C 
ATOM     10  C   LIG d   1       4.361  86.335 115.861  0.00  0.00     0.006 C 
ENDBRANCH   8   9
BRANCH   8  11
ATOM     11  C   LIG d   1       4.058  89.812 114.378  0.00  0.00     0.028 C 
ATOM     12  C   LIG d   1       5.458  89.527 113.814  0.00  0.00     0.006 C 
ENDBRANCH   8  11
ENDBRANCH   7   8
ENDBRANCH   1   7
BRANCH   6  13
ATOM     13  N   LIG d   1       3.999  91.387 118.330  0.00  0.00    -0.311 N 
ATOM     14  C   LIG d   1       4.630  92.514 118.004  0.00  0.00     0.210 C 
ATOM     15  C   LIG d   1       5.818  92.873 118.903  0.00  0.00     0.109 C 
ATOM     16  O   LIG d   1       4.300  93.266 117.076  0.00  0.00    -0.276 OA
ATOM     17  H   LIG d   1       4.314  90.856 119.118  0.00  0.00     0.149 HD
ENDBRANCH   6  13
BRANCH   5  18
ATOM     18  N   LIG d   1       1.299  92.791 118.061  0.00  0.00     0.381 N 
ATOM     19  H   LIG d   1       1.934  93.171 117.388  0.00  0.00    -0.090 HD
ATOM     20  H   LIG d   1       1.503  93.204 118.955  0.00  0.00    -0.090 HD
ATOM     21  H   LIG d   1       0.361  92.999 117.798  0.00  0.00    -0.090 HD
ENDBRANCH   5  18
BRANCH   3  22
ATOM     22  C   LIG d   1      -0.675  88.513 117.204  0.00  0.00     0.382 C 
ATOM     23  O   LIG d   1      -1.787  89.026 117.476  0.00  0.00    -0.241 OA
ATOM     24  O   LIG d   1      -0.613  87.305 116.906  0.00  0.00    -0.241 OA
ENDBRANCH   3  22
TORSDOF 7
ENDMDL
MODEL 9
REMARK VINA RESULT:      -3.9      6.558      8.515
REMARK  7 active torsions:
REMARK  status: ('A' for Active; 'I' for Inactive)
REMARK    1  A    between atoms: C_2  and  C_3 
REMARK    2  A    between atoms: C_3  and  O_6 
REMARK    3  A    between atoms: C_3  and  C_4 
REMARK    4  A    between atoms: C_7  and  O_6 
REMARK    5  A    between atoms: C_9  and  C_10 
REMARK    6  A    between atoms: N_15  and  C_14 
REMARK    7  A    between atoms: N_20  and  C_19 
REMARK       I    between atoms: C_22  and  N_20 
ROOT
ATOM      1  C   LIG d   1       2.686  89.009 117.651  0.00  0.00     0.161 C 
ATOM      2  C   LIG d   1       2.940  90.288 118.174  0.00  0.00     0.016 C 
ATOM      3  C   LIG d   1       3.453  91.356 117.403  0.00  0.00     0.038 C 
ATOM      4  C   LIG d   1       3.606  91.260 116.012  0.00  0.00     0.028 C 
ATOM      5  C   LIG d   1       3.841  89.834 115.525  0.00  0.00    -0.047 C 
ATOM      6  C   LIG d   1       2.743  88.917 116.112  0.00  0.00     0.091 C 
ENDROOT
BRANCH   1   7
ATOM      7  O   LIG d   1       1.418  88.526 118.136  0.00  0.00    -0.368 OA
BRANCH   7   8
ATOM      8  C   LIG d   1       0.278  88.745 117.268  0.00  0.00     0.119 C 
BRANCH   8   9
ATOM      9  C   LIG d   1      -0.585  89.849 117.910  0.00  0.00     0.028 C 
ATOM     10  C   LIG d   1      -0.359  91.224 117.259  0.00  0.00     0.006 C 
ENDBRANCH   8   9
BRANCH   8  11
ATOM     11  C   LIG d   1      -0.623  87.508 117.208  0.00  0.00     0.028 C 
ATOM     12  C   LIG d   1      -1.893  87.655 118.060  0.00  0.00     0.006 C 
ENDBRANCH   8  11
ENDBRANCH   7   8
ENDBRANCH   1   7
BRANCH   6  13
ATOM     13  N   LIG d   1       2.945  87.489 115.753  0.00  0.00    -0.311 N 
ATOM     14  C   LIG d   1       2.402  86.918 114.680  0.00  0.00     0.210 C 
ATOM     15  C   LIG d   1       2.722  85.430 114.507  0.00  0.00     0.109 C 
ATOM     16  O   LIG d   1       1.711  87.510 113.837  0.00  0.00    -0.276 OA
ATOM     17  H   LIG d   1       3.518  86.942 116.366  0.00  0.00     0.149 HD
ENDBRANCH   6  13
BRANCH   5  18
ATOM     18  N   LIG d   1       3.845  89.861 114.051  0.00  0.00     0.381 N 
ATOM     19  H   LIG d   1       3.469  89.005 113.695  0.00  0.00    -0.090 HD
ATOM     20  H   LIG d   1       4.793  89.946 113.730  0.00  0.00    -0.090 HD
ATOM     21  H   LIG d   1       3.305  90.631 113.722  0.00  0.00    -0.090 HD
ENDBRANCH   5  18
BRANCH   3  22
ATOM     22  C   LIG d   1       3.857  92.525 118.031  0.00  0.00     0.382 C 
ATOM     23  O   LIG d   1       3.454  92.785 119.190  0.00  0.00    -0.241 OA
ATOM     24  O   LIG d   1       4.583  93.344 117.435  0.00  0.00    -0.241 OA
ENDBRANCH   3  22
TORSDOF 7
ENDMDL
