MODEL 1
REMARK VINA RESULT:      -5.5      0.000      0.000
REMARK  7 active torsions:
REMARK  status: ('A' for Active; 'I' for Inactive)
REMARK    1  A    between atoms: C_2  and  C_3 
REMARK    2  A    between atoms: C_3  and  O_6 
REMARK    3  A    between atoms: C_3  and  C_4 
REMARK    4  A    between atoms: C_7  and  O_6 
REMARK    5  A    between atoms: C_9  and  C_10 
REMARK    6  A    between atoms: N_15  and  C_14 
REMARK    7  A    between atoms: N_20  and  C_19 
REMARK       I    between atoms: C_22  and  N_20 
ROOT
ATOM      1  C   LIG d   1      -5.870  93.166 118.273  0.00  0.00     0.161 C 
ATOM      2  C   LIG d   1      -6.912  94.087 118.075  0.00  0.00     0.016 C 
ATOM      3  C   LIG d   1      -7.002  95.320 118.761  0.00  0.00     0.038 C 
ATOM      4  C   LIG d   1      -5.969  95.786 119.587  0.00  0.00     0.028 C 
ATOM      5  C   LIG d   1      -5.138  94.668 120.207  0.00  0.00    -0.047 C 
ATOM      6  C   LIG d   1      -4.676  93.707 119.088  0.00  0.00     0.091 C 
ENDROOT
BRANCH   1   7
ATOM      7  O   LIG d   1      -5.420  92.656 117.003  0.00  0.00    -0.368 OA
BRANCH   7   8
ATOM      8  C   LIG d   1      -5.877  91.327 116.651  0.00  0.00     0.119 C 
BRANCH   8   9
ATOM      9  C   LIG d   1      -4.703  90.599 115.968  0.00  0.00     0.028 C 
ATOM     10  C   LIG d   1      -3.497  90.421 116.905  0.00  0.00     0.006 C 
ENDBRANCH   8   9
BRANCH   8  11
ATOM     11  C   LIG d   1      -6.989  91.380 115.599  0.00  0.00     0.028 C 
ATOM     12  C   LIG d   1      -7.852  90.108 115.580  0.00  0.00     0.006 C 
ENDBRANCH   8  11
ENDBRANCH   7   8
ENDBRANCH   1   7
BRANCH   6  13
ATOM     13  N   LIG d   1      -3.927  92.537 119.618  0.00  0.00    -0.311 N 
ATOM     14  C   LIG d   1      -2.602  92.512 119.746  0.00  0.00     0.210 C 
ATOM     15  C   LIG d   1      -2.030  91.201 120.295  0.00  0.00     0.109 C 
ATOM     16  O   LIG d   1      -1.848  93.462 119.487  0.00  0.00    -0.276 OA
ATOM     17  H   LIG d   1      -4.464  91.734 119.882  0.00  0.00     0.149 HD
ENDBRANCH   6  13
BRANCH   5  18
ATOM     18  N   LIG d   1      -4.015  95.295 120.930  0.00  0.00     0.381 N 
ATOM     19  H   LIG d   1      -3.907  94.865 121.826  0.00  0.00    -0.090 HD
ATOM     20  H   LIG d   1      -4.222  96.268 121.070  0.00  0.00    -0.090 HD
ATOM     21  H   LIG d   1      -3.175  95.199 120.404  0.00  0.00    -0.090 HD
ENDBRANCH   5  18
BRANCH   3  22
ATOM     22  C   LIG d   1      -8.155  96.083 118.654  0.00  0.00     0.382 C 
ATOM     23  O   LIG d   1      -9.275  95.561 118.873  0.00  0.00    -0.241 OA
ATOM     24  O   LIG d   1      -8.093  97.275 118.298  0.00  0.00    -0.241 OA
ENDBRANCH   3  22
TORSDOF 7
ENDMDL
MODEL 2
REMARK VINA RESULT:      -5.5      2.257      5.985
REMARK  7 active torsions:
REMARK  status: ('A' for Active; 'I' for Inactive)
REMARK    1  A    between atoms: C_2  and  C_3 
REMARK    2  A    between atoms: C_3  and  O_6 
REMARK    3  A    between atoms: C_3  and  C_4 
REMARK    4  A    between atoms: C_7  and  O_6 
REMARK    5  A    between atoms: C_9  and  C_10 
REMARK    6  A    between atoms: N_15  and  C_14 
REMARK    7  A    between atoms: N_20  and  C_19 
REMARK       I    between atoms: C_22  and  N_20 
ROOT
ATOM      1  C   LIG d   1      -5.174  92.827 118.569  0.00  0.00     0.161 C 
ATOM      2  C   LIG d   1      -4.065  93.227 119.333  0.00  0.00     0.016 C 
ATOM      3  C   LIG d   1      -2.764  92.706 119.149  0.00  0.00     0.038 C 
ATOM      4  C   LIG d   1      -2.452  91.853 118.079  0.00  0.00     0.028 C 
ATOM      5  C   LIG d   1      -3.641  91.032 117.592  0.00  0.00    -0.047 C 
ATOM      6  C   LIG d   1      -4.831  91.981 117.325  0.00  0.00     0.091 C 
ENDROOT
BRANCH   1   7
ATOM      7  O   LIG d   1      -5.949  93.982 118.191  0.00  0.00    -0.368 OA
BRANCH   7   8
ATOM      8  C   LIG d   1      -6.527  94.746 119.278  0.00  0.00     0.119 C 
BRANCH   8   9
ATOM      9  C   LIG d   1      -8.057  94.727 119.095  0.00  0.00     0.028 C 
ATOM     10  C   LIG d   1      -8.633  96.128 118.827  0.00  0.00     0.006 C 
ENDBRANCH   8   9
BRANCH   8  11
ATOM     11  C   LIG d   1      -6.127  96.222 119.197  0.00  0.00     0.028 C 
ATOM     12  C   LIG d   1      -5.187  96.648 120.337  0.00  0.00     0.006 C 
ENDBRANCH   8  11
ENDBRANCH   7   8
ENDBRANCH   1   7
BRANCH   6  13
ATOM     13  N   LIG d   1      -6.061  91.249 116.926  0.00  0.00    -0.311 N 
ATOM     14  C   LIG d   1      -6.404  91.029 115.657  0.00  0.00     0.210 C 
ATOM     15  C   LIG d   1      -7.722  90.272 115.466  0.00  0.00     0.109 C 
ATOM     16  O   LIG d   1      -5.725  91.360 114.674  0.00  0.00    -0.276 OA
ATOM     17  H   LIG d   1      -6.654  90.917 117.661  0.00  0.00     0.149 HD
ENDBRANCH   6  13
BRANCH   5  18
ATOM     18  N   LIG d   1      -3.209  90.293 116.391  0.00  0.00     0.381 N 
ATOM     19  H   LIG d   1      -2.350  90.675 116.048  0.00  0.00    -0.090 HD
ATOM     20  H   LIG d   1      -3.908  90.398 115.676  0.00  0.00    -0.090 HD
ATOM     21  H   LIG d   1      -3.089  89.328 116.609  0.00  0.00    -0.090 HD
ENDBRANCH   5  18
BRANCH   3  22
ATOM     22  C   LIG d   1      -1.768  93.006 120.065  0.00  0.00     0.382 C 
ATOM     23  O   LIG d   1      -1.663  94.171 120.519  0.00  0.00    -0.241 OA
ATOM     24  O   LIG d   1      -0.944  92.137 120.410  0.00  0.00    -0.241 OA
ENDBRANCH   3  22
TORSDOF 7
ENDMDL
MODEL 3
REMARK VINA RESULT:      -5.5      1.888      5.026
REMARK  7 active torsions:
REMARK  status: ('A' for Active; 'I' for Inactive)
REMARK    1  A    between atoms: C_2  and  C_3 
REMARK    2  A    between atoms: C_3  and  O_6 
REMARK    3  A    between atoms: C_3  and  C_4 
REMARK    4  A    between atoms: C_7  and  O_6 
REMARK    5  A    between atoms: C_9  and  C_10 
REMARK    6  A    between atoms: N_15  and  C_14 
REMARK    7  A    between atoms: N_20  and  C_19 
REMARK       I    between atoms: C_22  and  N_20 
ROOT
ATOM      1  C   LIG d   1      -5.560  93.010 117.645  0.00  0.00     0.161 C 
ATOM      2  C   LIG d   1      -6.446  92.199 116.916  0.00  0.00     0.016 C 
ATOM      3  C   LIG d   1      -6.061  90.987 116.298  0.00  0.00     0.038 C 
ATOM      4  C   LIG d   1      -4.791  90.424 116.495  0.00  0.00     0.028 C 
ATOM      5  C   LIG d   1      -3.713  91.457 116.806  0.00  0.00    -0.047 C 
ATOM      6  C   LIG d   1      -4.199  92.357 117.964  0.00  0.00     0.091 C 
ENDROOT
BRANCH   1   7
ATOM      7  O   LIG d   1      -6.196  93.462 118.857  0.00  0.00    -0.368 OA
BRANCH   7   8
ATOM      8  C   LIG d   1      -6.555  94.865 118.904  0.00  0.00     0.119 C 
BRANCH   8   9
ATOM      9  C   LIG d   1      -6.028  95.433 120.236  0.00  0.00     0.028 C 
ATOM     10  C   LIG d   1      -4.869  96.423 120.035  0.00  0.00     0.006 C 
ENDBRANCH   8   9
BRANCH   8  11
ATOM     11  C   LIG d   1      -8.074  95.050 118.956  0.00  0.00     0.028 C 
ATOM     12  C   LIG d   1      -8.506  96.504 118.705  0.00  0.00     0.006 C 
ENDBRANCH   8  11
ENDBRANCH   7   8
ENDBRANCH   1   7
BRANCH   6  13
ATOM     13  N   LIG d   1      -3.239  93.448 118.275  0.00  0.00    -0.311 N 
ATOM     14  C   LIG d   1      -2.319  93.364 119.235  0.00  0.00     0.210 C 
ATOM     15  C   LIG d   1      -1.444  94.610 119.403  0.00  0.00     0.109 C 
ATOM     16  O   LIG d   1      -2.124  92.364 119.942  0.00  0.00    -0.276 OA
ATOM     17  H   LIG d   1      -3.307  94.285 117.729  0.00  0.00     0.149 HD
ENDBRANCH   6  13
BRANCH   5  18
ATOM     18  N   LIG d   1      -2.473  90.724 117.124  0.00  0.00     0.381 N 
ATOM     19  H   LIG d   1      -2.335  89.987 116.462  0.00  0.00    -0.090 HD
ATOM     20  H   LIG d   1      -2.563  90.314 118.037  0.00  0.00    -0.090 HD
ATOM     21  H   LIG d   1      -1.695  91.347 117.107  0.00  0.00    -0.090 HD
ENDBRANCH   5  18
BRANCH   3  22
ATOM     22  C   LIG d   1      -6.940  90.344 115.439  0.00  0.00     0.382 C 
ATOM     23  O   LIG d   1      -6.497  89.610 114.523  0.00  0.00    -0.241 OA
ATOM     24  O   LIG d   1      -8.168  90.525 115.540  0.00  0.00    -0.241 OA
ENDBRANCH   3  22
TORSDOF 7
ENDMDL
MODEL 4
REMARK VINA RESULT:      -5.3      2.305      5.009
REMARK  7 active torsions:
REMARK  status: ('A' for Active; 'I' for Inactive)
REMARK    1  A    between atoms: C_2  and  C_3 
REMARK    2  A    between atoms: C_3  and  O_6 
REMARK    3  A    between atoms: C_3  and  C_4 
REMARK    4  A    between atoms: C_7  and  O_6 
REMARK    5  A    between atoms: C_9  and  C_10 
REMARK    6  A    between atoms: N_15  and  C_14 
REMARK    7  A    between atoms: N_20  and  C_19 
REMARK       I    between atoms: C_22  and  N_20 
ROOT
ATOM      1  C   LIG d   1      -4.462  93.125 118.862  0.00  0.00     0.161 C 
ATOM      2  C   LIG d   1      -5.536  92.815 118.011  0.00  0.00     0.016 C 
ATOM      3  C   LIG d   1      -5.451  91.872 116.961  0.00  0.00     0.038 C 
ATOM      4  C   LIG d   1      -4.322  91.058 116.786  0.00  0.00     0.028 C 
ATOM      5  C   LIG d   1      -3.034  91.690 117.304  0.00  0.00    -0.047 C 
ATOM      6  C   LIG d   1      -3.257  92.167 118.757  0.00  0.00     0.091 C 
ENDROOT
BRANCH   1   7
ATOM      7  O   LIG d   1      -4.925  93.200 120.225  0.00  0.00    -0.368 OA
BRANCH   7   8
ATOM      8  C   LIG d   1      -5.049  94.531 120.783  0.00  0.00     0.119 C 
BRANCH   8   9
ATOM      9  C   LIG d   1      -6.524  94.955 120.648  0.00  0.00     0.028 C 
ATOM     10  C   LIG d   1      -6.725  96.051 119.587  0.00  0.00     0.006 C 
ENDBRANCH   8   9
BRANCH   8  11
ATOM     11  C   LIG d   1      -4.256  95.555 119.965  0.00  0.00     0.028 C 
ATOM     12  C   LIG d   1      -3.011  96.072 120.703  0.00  0.00     0.006 C 
ENDBRANCH   8  11
ENDBRANCH   7   8
ENDBRANCH   1   7
BRANCH   6  13
ATOM     13  N   LIG d   1      -2.072  92.873 119.310  0.00  0.00    -0.311 N 
ATOM     14  C   LIG d   1      -1.108  92.261 119.996  0.00  0.00     0.210 C 
ATOM     15  C   LIG d   1       0.013  93.178 120.494  0.00  0.00     0.109 C 
ATOM     16  O   LIG d   1      -1.059  91.040 120.211  0.00  0.00    -0.276 OA
ATOM     17  H   LIG d   1      -2.016  93.861 119.155  0.00  0.00     0.149 HD
ENDBRANCH   6  13
BRANCH   5  18
ATOM     18  N   LIG d   1      -1.963  90.682 117.184  0.00  0.00     0.381 N 
ATOM     19  H   LIG d   1      -1.879  90.388 116.232  0.00  0.00    -0.090 HD
ATOM     20  H   LIG d   1      -2.207  89.881 117.741  0.00  0.00    -0.090 HD
ATOM     21  H   LIG d   1      -1.099  91.063 117.499  0.00  0.00    -0.090 HD
ENDBRANCH   5  18
BRANCH   3  22
ATOM     22  C   LIG d   1      -6.489  91.763 116.048  0.00  0.00     0.382 C 
ATOM     23  O   LIG d   1      -7.523  91.121 116.349  0.00  0.00    -0.241 OA
ATOM     24  O   LIG d   1      -6.385  92.262 114.912  0.00  0.00    -0.241 OA
ENDBRANCH   3  22
TORSDOF 7
ENDMDL
MODEL 5
REMARK VINA RESULT:      -4.9      2.263      5.495
REMARK  7 active torsions:
REMARK  status: ('A' for Active; 'I' for Inactive)
REMARK    1  A    between atoms: C_2  and  C_3 
REMARK    2  A    between atoms: C_3  and  O_6 
REMARK    3  A    between atoms: C_3  and  C_4 
REMARK    4  A    between atoms: C_7  and  O_6 
REMARK    5  A    between atoms: C_9  and  C_10 
REMARK    6  A    between atoms: N_15  and  C_14 
REMARK    7  A    between atoms: N_20  and  C_19 
REMARK       I    between atoms: C_22  and  N_20 
ROOT
ATOM      1  C   LIG d   1      -3.254  92.029 117.691  0.00  0.00     0.161 C 
ATOM      2  C   LIG d   1      -2.077  91.278 117.538  0.00  0.00     0.016 C 
ATOM      3  C   LIG d   1      -0.953  91.413 118.386  0.00  0.00     0.038 C 
ATOM      4  C   LIG d   1      -0.987  92.205 119.543  0.00  0.00     0.028 C 
ATOM      5  C   LIG d   1      -1.974  93.364 119.454  0.00  0.00    -0.047 C 
ATOM      6  C   LIG d   1      -3.351  92.817 119.014  0.00  0.00     0.091 C 
ENDROOT
BRANCH   1   7
ATOM      7  O   LIG d   1      -4.403  91.173 117.532  0.00  0.00    -0.368 OA
BRANCH   7   8
ATOM      8  C   LIG d   1      -5.242  91.440 116.381  0.00  0.00     0.119 C 
BRANCH   8   9
ATOM      9  C   LIG d   1      -6.705  91.436 116.864  0.00  0.00     0.028 C 
ATOM     10  C   LIG d   1      -7.259  92.856 117.069  0.00  0.00     0.006 C 
ENDBRANCH   8   9
BRANCH   8  11
ATOM     11  C   LIG d   1      -5.152  90.309 115.352  0.00  0.00     0.028 C 
ATOM     12  C   LIG d   1      -6.482  90.059 114.624  0.00  0.00     0.006 C 
ENDBRANCH   8  11
ENDBRANCH   7   8
ENDBRANCH   1   7
BRANCH   6  13
ATOM     13  N   LIG d   1      -4.354  93.897 118.821  0.00  0.00    -0.311 N 
ATOM     14  C   LIG d   1      -5.200  94.291 119.772  0.00  0.00     0.210 C 
ATOM     15  C   LIG d   1      -6.165  95.406 119.358  0.00  0.00     0.109 C 
ATOM     16  O   LIG d   1      -5.220  93.845 120.929  0.00  0.00    -0.276 OA
ATOM     17  H   LIG d   1      -4.386  94.335 117.922  0.00  0.00     0.149 HD
ENDBRANCH   6  13
BRANCH   5  18
ATOM     18  N   LIG d   1      -2.008  94.022 120.774  0.00  0.00     0.381 N 
ATOM     19  H   LIG d   1      -2.593  93.502 121.397  0.00  0.00    -0.090 HD
ATOM     20  H   LIG d   1      -2.399  94.942 120.669  0.00  0.00    -0.090 HD
ATOM     21  H   LIG d   1      -1.087  94.085 121.148  0.00  0.00    -0.090 HD
ENDBRANCH   5  18
BRANCH   3  22
ATOM     22  C   LIG d   1       0.236  90.780 118.055  0.00  0.00     0.382 C 
ATOM     23  O   LIG d   1       0.539  90.604 116.851  0.00  0.00    -0.241 OA
ATOM     24  O   LIG d   1       0.989  90.345 118.947  0.00  0.00    -0.241 OA
ENDBRANCH   3  22
TORSDOF 7
ENDMDL
MODEL 6
REMARK VINA RESULT:      -4.5      2.248      4.585
REMARK  7 active torsions:
REMARK  status: ('A' for Active; 'I' for Inactive)
REMARK    1  A    between atoms: C_2  and  C_3 
REMARK    2  A    between atoms: C_3  and  O_6 
REMARK    3  A    between atoms: C_3  and  C_4 
REMARK    4  A    between atoms: C_7  and  O_6 
REMARK    5  A    between atoms: C_9  and  C_10 
REMARK    6  A    between atoms: N_15  and  C_14 
REMARK    7  A    between atoms: N_20  and  C_19 
REMARK       I    between atoms: C_22  and  N_20 
ROOT
ATOM      1  C   LIG d   1      -3.902  93.805 119.043  0.00  0.00     0.161 C 
ATOM      2  C   LIG d   1      -5.090  94.517 119.279  0.00  0.00     0.016 C 
ATOM      3  C   LIG d   1      -6.327  94.187 118.680  0.00  0.00     0.038 C 
ATOM      4  C   LIG d   1      -6.494  93.022 117.916  0.00  0.00     0.028 C 
ATOM      5  C   LIG d   1      -5.210  92.552 117.241  0.00  0.00    -0.047 C 
ATOM      6  C   LIG d   1      -4.088  92.465 118.301  0.00  0.00     0.091 C 
ENDROOT
BRANCH   1   7
ATOM      7  O   LIG d   1      -3.203  93.596 120.286  0.00  0.00    -0.368 OA
BRANCH   7   8
ATOM      8  C   LIG d   1      -2.072  94.466 120.536  0.00  0.00     0.119 C 
BRANCH   8   9
ATOM      9  C   LIG d   1      -1.712  95.150 119.203  0.00  0.00     0.028 C 
ATOM     10  C   LIG d   1      -1.713  96.684 119.311  0.00  0.00     0.006 C 
ENDBRANCH   8   9
BRANCH   8  11
ATOM     11  C   LIG d   1      -0.828  93.664 120.930  0.00  0.00     0.028 C 
ATOM     12  C   LIG d   1       0.263  93.689 119.848  0.00  0.00     0.006 C 
ENDBRANCH   8  11
ENDBRANCH   7   8
ENDBRANCH   1   7
BRANCH   6  13
ATOM     13  N   LIG d   1      -2.777  92.093 117.709  0.00  0.00    -0.311 N 
ATOM     14  C   LIG d   1      -1.918  91.260 118.295  0.00  0.00     0.210 C 
ATOM     15  C   LIG d   1      -0.615  91.028 117.524  0.00  0.00     0.109 C 
ATOM     16  O   LIG d   1      -2.125  90.667 119.364  0.00  0.00    -0.276 OA
ATOM     17  H   LIG d   1      -2.541  92.504 116.827  0.00  0.00     0.149 HD
ENDBRANCH   6  13
BRANCH   5  18
ATOM     18  N   LIG d   1      -5.495  91.258 116.593  0.00  0.00     0.381 N 
ATOM     19  H   LIG d   1      -4.876  90.557 116.949  0.00  0.00    -0.090 HD
ATOM     20  H   LIG d   1      -5.336  91.347 115.605  0.00  0.00    -0.090 HD
ATOM     21  H   LIG d   1      -6.441  90.993 116.762  0.00  0.00    -0.090 HD
ENDBRANCH   5  18
BRANCH   3  22
ATOM     22  C   LIG d   1      -7.406  95.049 118.810  0.00  0.00     0.382 C 
ATOM     23  O   LIG d   1      -8.576  94.607 118.719  0.00  0.00    -0.241 OA
ATOM     24  O   LIG d   1      -7.222  96.270 118.972  0.00  0.00    -0.241 OA
ENDBRANCH   3  22
TORSDOF 7
ENDMDL
MODEL 7
REMARK VINA RESULT:      -4.4      2.366      6.029
REMARK  7 active torsions:
REMARK  status: ('A' for Active; 'I' for Inactive)
REMARK    1  A    between atoms: C_2  and  C_3 
REMARK    2  A    between atoms: C_3  and  O_6 
REMARK    3  A    between atoms: C_3  and  C_4 
REMARK    4  A    between atoms: C_7  and  O_6 
REMARK    5  A    between atoms: C_9  and  C_10 
REMARK    6  A    between atoms: N_15  and  C_14 
REMARK    7  A    between atoms: N_20  and  C_19 
REMARK       I    between atoms: C_22  and  N_20 
ROOT
ATOM      1  C   LIG d   1      -4.260  92.249 119.831  0.00  0.00     0.161 C 
ATOM      2  C   LIG d   1      -3.008  92.345 120.462  0.00  0.00     0.016 C 
ATOM      3  C   LIG d   1      -1.792  91.983 119.838  0.00  0.00     0.038 C 
ATOM      4  C   LIG d   1      -1.730  91.639 118.479  0.00  0.00     0.028 C 
ATOM      5  C   LIG d   1      -3.028  91.044 117.944  0.00  0.00    -0.047 C 
ATOM      6  C   LIG d   1      -4.200  91.982 118.312  0.00  0.00     0.091 C 
ENDROOT
BRANCH   1   7
ATOM      7  O   LIG d   1      -5.036  93.433 120.101  0.00  0.00    -0.368 OA
BRANCH   7   8
ATOM      8  C   LIG d   1      -4.721  94.598 119.299  0.00  0.00     0.119 C 
BRANCH   8   9
ATOM      9  C   LIG d   1      -3.826  95.519 120.151  0.00  0.00     0.028 C 
ATOM     10  C   LIG d   1      -2.486  95.832 119.466  0.00  0.00     0.006 C 
ENDBRANCH   8   9
BRANCH   8  11
ATOM     11  C   LIG d   1      -5.977  95.420 118.995  0.00  0.00     0.028 C 
ATOM     12  C   LIG d   1      -7.202  94.545 118.686  0.00  0.00     0.006 C 
ENDBRANCH   8  11
ENDBRANCH   7   8
ENDBRANCH   1   7
BRANCH   6  13
ATOM     13  N   LIG d   1      -5.517  91.432 117.899  0.00  0.00    -0.311 N 
ATOM     14  C   LIG d   1      -6.024  91.583 116.677  0.00  0.00     0.210 C 
ATOM     15  C   LIG d   1      -7.405  90.954 116.468  0.00  0.00     0.109 C 
ATOM     16  O   LIG d   1      -5.447  92.149 115.737  0.00  0.00    -0.276 OA
ATOM     17  H   LIG d   1      -6.039  90.931 118.591  0.00  0.00     0.149 HD
ENDBRANCH   6  13
BRANCH   5  18
ATOM     18  N   LIG d   1      -2.868  90.861 116.489  0.00  0.00     0.381 N 
ATOM     19  H   LIG d   1      -3.049  91.725 116.017  0.00  0.00    -0.090 HD
ATOM     20  H   LIG d   1      -3.537  90.182 116.171  0.00  0.00    -0.090 HD
ATOM     21  H   LIG d   1      -1.944  90.549 116.284  0.00  0.00    -0.090 HD
ENDBRANCH   5  18
BRANCH   3  22
ATOM     22  C   LIG d   1      -0.627  91.923 120.586  0.00  0.00     0.382 C 
ATOM     23  O   LIG d   1      -0.018  92.979 120.884  0.00  0.00    -0.241 OA
ATOM     24  O   LIG d   1      -0.152  90.823 120.930  0.00  0.00    -0.241 OA
ENDBRANCH   3  22
TORSDOF 7
ENDMDL
MODEL 8
REMARK VINA RESULT:      -4.3      3.793      7.088
REMARK  7 active torsions:
REMARK  status: ('A' for Active; 'I' for Inactive)
REMARK    1  A    between atoms: C_2  and  C_3 
REMARK    2  A    between atoms: C_3  and  O_6 
REMARK    3  A    between atoms: C_3  and  C_4 
REMARK    4  A    between atoms: C_7  and  O_6 
REMARK    5  A    between atoms: C_9  and  C_10 
REMARK    6  A    between atoms: N_15  and  C_14 
REMARK    7  A    between atoms: N_20  and  C_19 
REMARK       I    between atoms: C_22  and  N_20 
ROOT
ATOM      1  C   LIG d   1      -0.730  91.913 118.196  0.00  0.00     0.161 C 
ATOM      2  C   LIG d   1      -0.060  90.993 117.373  0.00  0.00     0.016 C 
ATOM      3  C   LIG d   1       1.282  90.597 117.581  0.00  0.00     0.038 C 
ATOM      4  C   LIG d   1       2.000  90.983 118.722  0.00  0.00     0.028 C 
ATOM      5  C   LIG d   1       1.534  92.309 119.312  0.00  0.00    -0.047 C 
ATOM      6  C   LIG d   1       0.002  92.260 119.509  0.00  0.00     0.091 C 
ENDROOT
BRANCH   1   7
ATOM      7  O   LIG d   1      -2.062  91.439 118.475  0.00  0.00    -0.368 OA
BRANCH   7   8
ATOM      8  C   LIG d   1      -3.114  91.954 117.621  0.00  0.00     0.119 C 
BRANCH   8   9
ATOM      9  C   LIG d   1      -4.173  92.605 118.531  0.00  0.00     0.028 C 
ATOM     10  C   LIG d   1      -3.893  92.361 120.024  0.00  0.00     0.006 C 
ENDBRANCH   8   9
BRANCH   8  11
ATOM     11  C   LIG d   1      -3.845  90.821 116.894  0.00  0.00     0.028 C 
ATOM     12  C   LIG d   1      -5.204  91.259 116.324  0.00  0.00     0.006 C 
ENDBRANCH   8  11
ENDBRANCH   7   8
ENDBRANCH   1   7
BRANCH   6  13
ATOM     13  N   LIG d   1      -0.548  93.549 120.004  0.00  0.00    -0.311 N 
ATOM     14  C   LIG d   1      -0.645  94.642 119.250  0.00  0.00     0.210 C 
ATOM     15  C   LIG d   1      -1.222  95.870 119.962  0.00  0.00     0.109 C 
ATOM     16  O   LIG d   1      -0.339  94.703 118.050  0.00  0.00    -0.276 OA
ATOM     17  H   LIG d   1      -0.850  93.580 120.958  0.00  0.00     0.149 HD
ENDBRANCH   6  13
BRANCH   5  18
ATOM     18  N   LIG d   1       2.273  92.522 120.571  0.00  0.00     0.381 N 
ATOM     19  H   LIG d   1       2.667  91.657 120.882  0.00  0.00    -0.090 HD
ATOM     20  H   LIG d   1       1.631  92.846 121.273  0.00  0.00    -0.090 HD
ATOM     21  H   LIG d   1       2.995  93.194 120.434  0.00  0.00    -0.090 HD
ENDBRANCH   5  18
BRANCH   3  22
ATOM     22  C   LIG d   1       1.931  89.837 116.620  0.00  0.00     0.382 C 
ATOM     23  O   LIG d   1       3.059  90.189 116.200  0.00  0.00    -0.241 OA
ATOM     24  O   LIG d   1       1.382  88.830 116.135  0.00  0.00    -0.241 OA
ENDBRANCH   3  22
TORSDOF 7
ENDMDL
MODEL 9
REMARK VINA RESULT:      -4.3      7.660     10.211
REMARK  7 active torsions:
REMARK  status: ('A' for Active; 'I' for Inactive)
REMARK    1  A    between atoms: C_2  and  C_3 
REMARK    2  A    between atoms: C_3  and  O_6 
REMARK    3  A    between atoms: C_3  and  C_4 
REMARK    4  A    between atoms: C_7  and  O_6 
REMARK    5  A    between atoms: C_9  and  C_10 
REMARK    6  A    between atoms: N_15  and  C_14 
REMARK    7  A    between atoms: N_20  and  C_19 
REMARK       I    between atoms: C_22  and  N_20 
ROOT
ATOM      1  C   LIG d   1       3.097  89.219 116.199  0.00  0.00     0.161 C 
ATOM      2  C   LIG d   1       1.941  90.004 116.347  0.00  0.00     0.016 C 
ATOM      3  C   LIG d   1       1.849  91.091 117.245  0.00  0.00     0.038 C 
ATOM      4  C   LIG d   1       2.964  91.565 117.953  0.00  0.00     0.028 C 
ATOM      5  C   LIG d   1       4.016  90.493 118.214  0.00  0.00    -0.047 C 
ATOM      6  C   LIG d   1       4.358  89.790 116.880  0.00  0.00     0.091 C 
ENDROOT
BRANCH   1   7
ATOM      7  O   LIG d   1       3.349  88.979 114.800  0.00  0.00    -0.368 OA
BRANCH   7   8
ATOM      8  C   LIG d   1       3.175  87.614 114.346  0.00  0.00     0.119 C 
BRANCH   8   9
ATOM      9  C   LIG d   1       2.721  86.778 115.557  0.00  0.00     0.028 C 
ATOM     10  C   LIG d   1       1.386  86.056 115.305  0.00  0.00     0.006 C 
ENDBRANCH   8   9
BRANCH   8  11
ATOM     11  C   LIG d   1       4.508  87.000 113.906  0.00  0.00     0.028 C 
ATOM     12  C   LIG d   1       5.530  88.055 113.454  0.00  0.00     0.006 C 
ENDBRANCH   8  11
ENDBRANCH   7   8
ENDBRANCH   1   7
BRANCH   6  13
ATOM     13  N   LIG d   1       5.318  88.670 117.060  0.00  0.00    -0.311 N 
ATOM     14  C   LIG d   1       6.640  88.818 116.984  0.00  0.00     0.210 C 
ATOM     15  C   LIG d   1       7.447  87.531 117.180  0.00  0.00     0.109 C 
ATOM     16  O   LIG d   1       7.221  89.899 116.805  0.00  0.00    -0.276 OA
ATOM     17  H   LIG d   1       4.933  87.763 117.240  0.00  0.00     0.149 HD
ENDBRANCH   6  13
BRANCH   5  18
ATOM     18  N   LIG d   1       5.180  91.153 118.835  0.00  0.00     0.381 N 
ATOM     19  H   LIG d   1       6.015  90.893 118.349  0.00  0.00    -0.090 HD
ATOM     20  H   LIG d   1       5.259  90.843 119.787  0.00  0.00    -0.090 HD
ATOM     21  H   LIG d   1       5.066  92.142 118.808  0.00  0.00    -0.090 HD
ENDBRANCH   5  18
BRANCH   3  22
ATOM     22  C   LIG d   1       0.620  91.692 117.474  0.00  0.00     0.382 C 
ATOM     23  O   LIG d   1      -0.416  90.989 117.555  0.00  0.00    -0.241 OA
ATOM     24  O   LIG d   1       0.528  92.931 117.555  0.00  0.00    -0.241 OA
ENDBRANCH   3  22
TORSDOF 7
ENDMDL
