MODEL 1
REMARK VINA RESULT:      -5.2      0.000      0.000
REMARK  7 active torsions:
REMARK  status: ('A' for Active; 'I' for Inactive)
REMARK    1  A    between atoms: C_2  and  C_3 
REMARK    2  A    between atoms: C_3  and  O_6 
REMARK    3  A    between atoms: C_3  and  C_4 
REMARK    4  A    between atoms: C_7  and  O_6 
REMARK    5  A    between atoms: C_9  and  C_10 
REMARK    6  A    between atoms: N_15  and  C_14 
REMARK    7  A    between atoms: N_20  and  C_19 
REMARK       I    between atoms: C_22  and  N_20 
ROOT
ATOM      1  C   LIG d   1      -6.295  91.463 118.681  0.00  0.00     0.161 C 
ATOM      2  C   LIG d   1      -5.262  91.479 119.633  0.00  0.00     0.016 C 
ATOM      3  C   LIG d   1      -3.972  90.952 119.391  0.00  0.00     0.038 C 
ATOM      4  C   LIG d   1      -3.580  90.505 118.121  0.00  0.00     0.028 C 
ATOM      5  C   LIG d   1      -4.742  90.005 117.269  0.00  0.00    -0.047 C 
ATOM      6  C   LIG d   1      -5.852  91.080 117.253  0.00  0.00     0.091 C 
ENDROOT
BRANCH   1   7
ATOM      7  O   LIG d   1      -6.971  92.736 118.672  0.00  0.00    -0.368 OA
BRANCH   7   8
ATOM      8  C   LIG d   1      -7.061  93.419 119.946  0.00  0.00     0.119 C 
BRANCH   8   9
ATOM      9  C   LIG d   1      -8.557  93.592 120.274  0.00  0.00     0.028 C 
ATOM     10  C   LIG d   1      -9.178  94.803 119.557  0.00  0.00     0.006 C 
ENDBRANCH   8   9
BRANCH   8  11
ATOM     11  C   LIG d   1      -6.498  94.840 119.858  0.00  0.00     0.028 C 
ATOM     12  C   LIG d   1      -5.162  94.999 120.601  0.00  0.00     0.006 C 
ENDBRANCH   8  11
ENDBRANCH   7   8
ENDBRANCH   1   7
BRANCH   6  13
ATOM     13  N   LIG d   1      -7.061  90.637 116.511  0.00  0.00    -0.311 N 
ATOM     14  C   LIG d   1      -7.240  90.848 115.209  0.00  0.00     0.210 C 
ATOM     15  C   LIG d   1      -8.566  90.326 114.646  0.00  0.00     0.109 C 
ATOM     16  O   LIG d   1      -6.413  91.388 114.459  0.00  0.00    -0.276 OA
ATOM     17  H   LIG d   1      -7.769  90.162 117.036  0.00  0.00     0.149 HD
ENDBRANCH   6  13
BRANCH   5  18
ATOM     18  N   LIG d   1      -4.213  89.700 115.927  0.00  0.00     0.381 N 
ATOM     19  H   LIG d   1      -4.942  89.330 115.351  0.00  0.00    -0.090 HD
ATOM     20  H   LIG d   1      -3.493  89.003 116.012  0.00  0.00    -0.090 HD
ATOM     21  H   LIG d   1      -3.839  90.525 115.513  0.00  0.00    -0.090 HD
ENDBRANCH   5  18
BRANCH   3  22
ATOM     22  C   LIG d   1      -3.072  90.830 120.439  0.00  0.00     0.382 C 
ATOM     23  O   LIG d   1      -2.471  91.844 120.870  0.00  0.00    -0.241 OA
ATOM     24  O   LIG d   1      -2.820  89.714 120.930  0.00  0.00    -0.241 OA
ENDBRANCH   3  22
TORSDOF 7
ENDMDL
MODEL 2
REMARK VINA RESULT:      -5.1      8.201     10.843
REMARK  7 active torsions:
REMARK  status: ('A' for Active; 'I' for Inactive)
REMARK    1  A    between atoms: C_2  and  C_3 
REMARK    2  A    between atoms: C_3  and  O_6 
REMARK    3  A    between atoms: C_3  and  C_4 
REMARK    4  A    between atoms: C_7  and  O_6 
REMARK    5  A    between atoms: C_9  and  C_10 
REMARK    6  A    between atoms: N_15  and  C_14 
REMARK    7  A    between atoms: N_20  and  C_19 
REMARK       I    between atoms: C_22  and  N_20 
ROOT
ATOM      1  C   LIG d   1       3.590  89.443 116.165  0.00  0.00     0.161 C 
ATOM      2  C   LIG d   1       4.046  90.609 116.801  0.00  0.00     0.016 C 
ATOM      3  C   LIG d   1       3.187  91.540 117.429  0.00  0.00     0.038 C 
ATOM      4  C   LIG d   1       1.817  91.290 117.595  0.00  0.00     0.028 C 
ATOM      5  C   LIG d   1       1.236  90.368 116.528  0.00  0.00    -0.047 C 
ATOM      6  C   LIG d   1       2.110  89.097 116.433  0.00  0.00     0.091 C 
ENDROOT
BRANCH   1   7
ATOM      7  O   LIG d   1       4.436  88.331 116.518  0.00  0.00    -0.368 OA
BRANCH   7   8
ATOM      8  C   LIG d   1       5.601  88.126 115.681  0.00  0.00     0.119 C 
BRANCH   8   9
ATOM      9  C   LIG d   1       5.168  88.357 114.220  0.00  0.00     0.028 C 
ATOM     10  C   LIG d   1       6.190  89.192 113.431  0.00  0.00     0.006 C 
ENDBRANCH   8   9
BRANCH   8  11
ATOM     11  C   LIG d   1       6.078  86.671 115.737  0.00  0.00     0.028 C 
ATOM     12  C   LIG d   1       5.018  85.677 115.237  0.00  0.00     0.006 C 
ENDBRANCH   8  11
ENDBRANCH   7   8
ENDBRANCH   1   7
BRANCH   6  13
ATOM     13  N   LIG d   1       1.660  88.179 115.354  0.00  0.00    -0.311 N 
ATOM     14  C   LIG d   1       1.531  86.864 115.517  0.00  0.00     0.210 C 
ATOM     15  C   LIG d   1       1.073  86.100 114.270  0.00  0.00     0.109 C 
ATOM     16  O   LIG d   1       1.720  86.261 116.584  0.00  0.00    -0.276 OA
ATOM     17  H   LIG d   1       1.455  88.588 114.463  0.00  0.00     0.149 HD
ENDBRANCH   6  13
BRANCH   5  18
ATOM     18  N   LIG d   1      -0.163  90.081 116.900  0.00  0.00     0.381 N 
ATOM     19  H   LIG d   1      -0.505  89.311 116.361  0.00  0.00    -0.090 HD
ATOM     20  H   LIG d   1      -0.726  90.887 116.692  0.00  0.00    -0.090 HD
ATOM     21  H   LIG d   1      -0.220  89.869 117.871  0.00  0.00    -0.090 HD
ENDBRANCH   5  18
BRANCH   3  22
ATOM     22  C   LIG d   1       3.691  92.757 117.863  0.00  0.00     0.382 C 
ATOM     23  O   LIG d   1       3.688  93.036 119.086  0.00  0.00    -0.241 OA
ATOM     24  O   LIG d   1       4.109  93.596 117.044  0.00  0.00    -0.241 OA
ENDBRANCH   3  22
TORSDOF 7
ENDMDL
MODEL 3
REMARK VINA RESULT:      -4.8      2.117      2.885
REMARK  7 active torsions:
REMARK  status: ('A' for Active; 'I' for Inactive)
REMARK    1  A    between atoms: C_2  and  C_3 
REMARK    2  A    between atoms: C_3  and  O_6 
REMARK    3  A    between atoms: C_3  and  C_4 
REMARK    4  A    between atoms: C_7  and  O_6 
REMARK    5  A    between atoms: C_9  and  C_10 
REMARK    6  A    between atoms: N_15  and  C_14 
REMARK    7  A    between atoms: N_20  and  C_19 
REMARK       I    between atoms: C_22  and  N_20 
ROOT
ATOM      1  C   LIG d   1      -3.173  91.315 119.317  0.00  0.00     0.161 C 
ATOM      2  C   LIG d   1      -1.834  91.229 119.733  0.00  0.00     0.016 C 
ATOM      3  C   LIG d   1      -0.877  90.397 119.108  0.00  0.00     0.038 C 
ATOM      4  C   LIG d   1      -1.160  89.704 117.921  0.00  0.00     0.028 C 
ATOM      5  C   LIG d   1      -2.637  89.366 117.754  0.00  0.00    -0.047 C 
ATOM      6  C   LIG d   1      -3.472  90.652 117.956  0.00  0.00     0.091 C 
ENDROOT
BRANCH   1   7
ATOM      7  O   LIG d   1      -3.593  92.694 119.305  0.00  0.00    -0.368 OA
BRANCH   7   8
ATOM      8  C   LIG d   1      -4.156  93.199 120.541  0.00  0.00     0.119 C 
BRANCH   8   9
ATOM      9  C   LIG d   1      -5.348  92.295 120.910  0.00  0.00     0.028 C 
ATOM     10  C   LIG d   1      -6.703  92.975 120.650  0.00  0.00     0.006 C 
ENDBRANCH   8   9
BRANCH   8  11
ATOM     11  C   LIG d   1      -4.752  94.598 120.351  0.00  0.00     0.028 C 
ATOM     12  C   LIG d   1      -3.860  95.708 120.929  0.00  0.00     0.006 C 
ENDBRANCH   8  11
ENDBRANCH   7   8
ENDBRANCH   1   7
BRANCH   6  13
ATOM     13  N   LIG d   1      -4.934  90.394 117.893  0.00  0.00    -0.311 N 
ATOM     14  C   LIG d   1      -5.643  90.466 116.768  0.00  0.00     0.210 C 
ATOM     15  C   LIG d   1      -7.140  90.183 116.927  0.00  0.00     0.109 C 
ATOM     16  O   LIG d   1      -5.169  90.706 115.647  0.00  0.00    -0.276 OA
ATOM     17  H   LIG d   1      -5.394  90.162 118.751  0.00  0.00     0.149 HD
ENDBRANCH   6  13
BRANCH   5  18
ATOM     18  N   LIG d   1      -2.809  88.770 116.415  0.00  0.00     0.381 N 
ATOM     19  H   LIG d   1      -3.277  89.418 115.814  0.00  0.00    -0.090 HD
ATOM     20  H   LIG d   1      -3.380  87.947 116.497  0.00  0.00    -0.090 HD
ATOM     21  H   LIG d   1      -1.922  88.531 116.032  0.00  0.00    -0.090 HD
ENDBRANCH   5  18
BRANCH   3  22
ATOM     22  C   LIG d   1       0.367  90.221 119.693  0.00  0.00     0.382 C 
ATOM     23  O   LIG d   1       1.315  90.986 119.393  0.00  0.00    -0.241 OA
ATOM     24  O   LIG d   1       0.566  89.279 120.483  0.00  0.00    -0.241 OA
ENDBRANCH   3  22
TORSDOF 7
ENDMDL
MODEL 4
REMARK VINA RESULT:      -4.7      2.722      5.668
REMARK  7 active torsions:
REMARK  status: ('A' for Active; 'I' for Inactive)
REMARK    1  A    between atoms: C_2  and  C_3 
REMARK    2  A    between atoms: C_3  and  O_6 
REMARK    3  A    between atoms: C_3  and  C_4 
REMARK    4  A    between atoms: C_7  and  O_6 
REMARK    5  A    between atoms: C_9  and  C_10 
REMARK    6  A    between atoms: N_15  and  C_14 
REMARK    7  A    between atoms: N_20  and  C_19 
REMARK       I    between atoms: C_22  and  N_20 
ROOT
ATOM      1  C   LIG d   1      -4.829  90.366 116.561  0.00  0.00     0.161 C 
ATOM      2  C   LIG d   1      -4.644  89.308 115.655  0.00  0.00     0.016 C 
ATOM      3  C   LIG d   1      -3.604  88.357 115.771  0.00  0.00     0.038 C 
ATOM      4  C   LIG d   1      -2.763  88.312 116.893  0.00  0.00     0.028 C 
ATOM      5  C   LIG d   1      -2.593  89.663 117.578  0.00  0.00    -0.047 C 
ATOM      6  C   LIG d   1      -3.989  90.267 117.852  0.00  0.00     0.091 C 
ENDROOT
BRANCH   1   7
ATOM      7  O   LIG d   1      -6.228  90.495 116.881  0.00  0.00    -0.368 OA
BRANCH   7   8
ATOM      8  C   LIG d   1      -7.151  89.822 115.991  0.00  0.00     0.119 C 
BRANCH   8   9
ATOM      9  C   LIG d   1      -7.803  90.897 115.100  0.00  0.00     0.028 C 
ATOM     10  C   LIG d   1      -7.016  91.140 113.802  0.00  0.00     0.006 C 
ENDBRANCH   8   9
BRANCH   8  11
ATOM     11  C   LIG d   1      -8.306  89.182 116.766  0.00  0.00     0.028 C 
ATOM     12  C   LIG d   1      -9.462  88.739 115.855  0.00  0.00     0.006 C 
ENDBRANCH   8  11
ENDBRANCH   7   8
ENDBRANCH   1   7
BRANCH   6  13
ATOM     13  N   LIG d   1      -3.913  91.628 118.444  0.00  0.00    -0.311 N 
ATOM     14  C   LIG d   1      -3.997  91.864 119.752  0.00  0.00     0.210 C 
ATOM     15  C   LIG d   1      -3.915  93.341 120.149  0.00  0.00     0.109 C 
ATOM     16  O   LIG d   1      -4.100  90.987 120.624  0.00  0.00    -0.276 OA
ATOM     17  H   LIG d   1      -3.799  92.395 117.811  0.00  0.00     0.149 HD
ENDBRANCH   6  13
BRANCH   5  18
ATOM     18  N   LIG d   1      -1.807  89.445 118.807  0.00  0.00     0.381 N 
ATOM     19  H   LIG d   1      -2.422  89.260 119.574  0.00  0.00    -0.090 HD
ATOM     20  H   LIG d   1      -1.287  90.280 119.014  0.00  0.00    -0.090 HD
ATOM     21  H   LIG d   1      -1.182  88.679 118.681  0.00  0.00    -0.090 HD
ENDBRANCH   5  18
BRANCH   3  22
ATOM     22  C   LIG d   1      -3.371  87.463 114.738  0.00  0.00     0.382 C 
ATOM     23  O   LIG d   1      -4.087  87.496 113.707  0.00  0.00    -0.241 OA
ATOM     24  O   LIG d   1      -2.484  86.595 114.841  0.00  0.00    -0.241 OA
ENDBRANCH   3  22
TORSDOF 7
ENDMDL
MODEL 5
REMARK VINA RESULT:      -4.6      2.319      4.654
REMARK  7 active torsions:
REMARK  status: ('A' for Active; 'I' for Inactive)
REMARK    1  A    between atoms: C_2  and  C_3 
REMARK    2  A    between atoms: C_3  and  O_6 
REMARK    3  A    between atoms: C_3  and  C_4 
REMARK    4  A    between atoms: C_7  and  O_6 
REMARK    5  A    between atoms: C_9  and  C_10 
REMARK    6  A    between atoms: N_15  and  C_14 
REMARK    7  A    between atoms: N_20  and  C_19 
REMARK       I    between atoms: C_22  and  N_20 
ROOT
ATOM      1  C   LIG d   1      -5.118  90.709 117.639  0.00  0.00     0.161 C 
ATOM      2  C   LIG d   1      -3.920  89.981 117.552  0.00  0.00     0.016 C 
ATOM      3  C   LIG d   1      -2.873  90.091 118.496  0.00  0.00     0.038 C 
ATOM      4  C   LIG d   1      -3.017  90.829 119.681  0.00  0.00     0.028 C 
ATOM      5  C   LIG d   1      -4.012  91.978 119.561  0.00  0.00    -0.047 C 
ATOM      6  C   LIG d   1      -5.339  91.435 118.982  0.00  0.00     0.091 C 
ENDROOT
BRANCH   1   7
ATOM      7  O   LIG d   1      -6.236  89.847 117.346  0.00  0.00    -0.368 OA
BRANCH   7   8
ATOM      8  C   LIG d   1      -7.255  90.398 116.475  0.00  0.00     0.119 C 
BRANCH   8   9
ATOM      9  C   LIG d   1      -8.118  89.225 115.972  0.00  0.00     0.028 C 
ATOM     10  C   LIG d   1      -9.134  88.750 117.025  0.00  0.00     0.006 C 
ENDBRANCH   8   9
BRANCH   8  11
ATOM     11  C   LIG d   1      -6.638  91.016 115.217  0.00  0.00     0.028 C 
ATOM     12  C   LIG d   1      -6.941  90.207 113.946  0.00  0.00     0.006 C 
ENDBRANCH   8  11
ENDBRANCH   7   8
ENDBRANCH   1   7
BRANCH   6  13
ATOM     13  N   LIG d   1      -6.340  92.509 118.754  0.00  0.00    -0.311 N 
ATOM     14  C   LIG d   1      -7.085  93.035 119.725  0.00  0.00     0.210 C 
ATOM     15  C   LIG d   1      -8.069  94.117 119.270  0.00  0.00     0.109 C 
ATOM     16  O   LIG d   1      -7.002  92.731 120.924  0.00  0.00    -0.276 OA
ATOM     17  H   LIG d   1      -6.450  92.838 117.815  0.00  0.00     0.149 HD
ENDBRANCH   6  13
BRANCH   5  18
ATOM     18  N   LIG d   1      -4.168  92.575 120.901  0.00  0.00     0.381 N 
ATOM     19  H   LIG d   1      -3.405  92.296 121.486  0.00  0.00    -0.090 HD
ATOM     20  H   LIG d   1      -5.020  92.235 121.311  0.00  0.00    -0.090 HD
ATOM     21  H   LIG d   1      -4.197  93.568 120.831  0.00  0.00    -0.090 HD
ENDBRANCH   5  18
BRANCH   3  22
ATOM     22  C   LIG d   1      -1.651  89.489 118.240  0.00  0.00     0.382 C 
ATOM     23  O   LIG d   1      -0.707  89.613 119.057  0.00  0.00    -0.241 OA
ATOM     24  O   LIG d   1      -1.465  88.862 117.180  0.00  0.00    -0.241 OA
ENDBRANCH   3  22
TORSDOF 7
ENDMDL
MODEL 6
REMARK VINA RESULT:      -4.6      1.897      4.903
REMARK  7 active torsions:
REMARK  status: ('A' for Active; 'I' for Inactive)
REMARK    1  A    between atoms: C_2  and  C_3 
REMARK    2  A    between atoms: C_3  and  O_6 
REMARK    3  A    between atoms: C_3  and  C_4 
REMARK    4  A    between atoms: C_7  and  O_6 
REMARK    5  A    between atoms: C_9  and  C_10 
REMARK    6  A    between atoms: N_15  and  C_14 
REMARK    7  A    between atoms: N_20  and  C_19 
REMARK       I    between atoms: C_22  and  N_20 
ROOT
ATOM      1  C   LIG d   1      -5.317  91.301 117.925  0.00  0.00     0.161 C 
ATOM      2  C   LIG d   1      -6.582  91.004 117.392  0.00  0.00     0.016 C 
ATOM      3  C   LIG d   1      -6.792  90.046 116.373  0.00  0.00     0.038 C 
ATOM      4  C   LIG d   1      -5.763  89.206 115.922  0.00  0.00     0.028 C 
ATOM      5  C   LIG d   1      -4.373  89.816 116.072  0.00  0.00    -0.047 C 
ATOM      6  C   LIG d   1      -4.198  90.316 117.524  0.00  0.00     0.091 C 
ENDROOT
BRANCH   1   7
ATOM      7  O   LIG d   1      -5.403  91.403 119.360  0.00  0.00    -0.368 OA
BRANCH   7   8
ATOM      8  C   LIG d   1      -5.545  92.742 119.896  0.00  0.00     0.119 C 
BRANCH   8   9
ATOM      9  C   LIG d   1      -4.281  93.045 120.723  0.00  0.00     0.028 C 
ATOM     10  C   LIG d   1      -4.062  94.554 120.929  0.00  0.00     0.006 C 
ENDBRANCH   8   9
BRANCH   8  11
ATOM     11  C   LIG d   1      -6.708  92.824 120.889  0.00  0.00     0.028 C 
ATOM     12  C   LIG d   1      -7.822  93.776 120.425  0.00  0.00     0.006 C 
ENDBRANCH   8  11
ENDBRANCH   7   8
ENDBRANCH   1   7
BRANCH   6  13
ATOM     13  N   LIG d   1      -2.897  91.003 117.734  0.00  0.00    -0.311 N 
ATOM     14  C   LIG d   1      -1.885  90.465 118.413  0.00  0.00     0.210 C 
ATOM     15  C   LIG d   1      -0.641  91.351 118.528  0.00  0.00     0.109 C 
ATOM     16  O   LIG d   1      -1.888  89.325 118.902  0.00  0.00    -0.276 OA
ATOM     17  H   LIG d   1      -2.797  91.920 117.344  0.00  0.00     0.149 HD
ENDBRANCH   6  13
BRANCH   5  18
ATOM     18  N   LIG d   1      -3.390  88.783 115.694  0.00  0.00     0.381 N 
ATOM     19  H   LIG d   1      -2.465  89.103 115.905  0.00  0.00    -0.090 HD
ATOM     20  H   LIG d   1      -3.450  88.625 114.703  0.00  0.00    -0.090 HD
ATOM     21  H   LIG d   1      -3.577  87.937 116.185  0.00  0.00    -0.090 HD
ENDBRANCH   5  18
BRANCH   3  22
ATOM     22  C   LIG d   1      -8.035  89.948 115.767  0.00  0.00     0.382 C 
ATOM     23  O   LIG d   1      -8.812  89.013 116.077  0.00  0.00    -0.241 OA
ATOM     24  O   LIG d   1      -8.371  90.758 114.882  0.00  0.00    -0.241 OA
ENDBRANCH   3  22
TORSDOF 7
ENDMDL
MODEL 7
REMARK VINA RESULT:      -4.4      5.871      9.258
REMARK  7 active torsions:
REMARK  status: ('A' for Active; 'I' for Inactive)
REMARK    1  A    between atoms: C_2  and  C_3 
REMARK    2  A    between atoms: C_3  and  O_6 
REMARK    3  A    between atoms: C_3  and  C_4 
REMARK    4  A    between atoms: C_7  and  O_6 
REMARK    5  A    between atoms: C_9  and  C_10 
REMARK    6  A    between atoms: N_15  and  C_14 
REMARK    7  A    between atoms: N_20  and  C_19 
REMARK       I    between atoms: C_22  and  N_20 
ROOT
ATOM      1  C   LIG d   1       0.798  89.246 117.408  0.00  0.00     0.161 C 
ATOM      2  C   LIG d   1      -0.570  88.931 117.353  0.00  0.00     0.016 C 
ATOM      3  C   LIG d   1      -1.562  89.645 118.065  0.00  0.00     0.038 C 
ATOM      4  C   LIG d   1      -1.268  90.824 118.765  0.00  0.00     0.028 C 
ATOM      5  C   LIG d   1       0.173  90.891 119.261  0.00  0.00    -0.047 C 
ATOM      6  C   LIG d   1       1.124  90.597 118.079  0.00  0.00     0.091 C 
ENDROOT
BRANCH   1   7
ATOM      7  O   LIG d   1       1.364  89.194 116.084  0.00  0.00    -0.368 OA
BRANCH   7   8
ATOM      8  C   LIG d   1       1.923  87.920 115.679  0.00  0.00     0.119 C 
BRANCH   8   9
ATOM      9  C   LIG d   1       2.506  87.249 116.938  0.00  0.00     0.028 C 
ATOM     10  C   LIG d   1       2.259  85.731 116.962  0.00  0.00     0.006 C 
ENDBRANCH   8   9
BRANCH   8  11
ATOM     11  C   LIG d   1       3.112  88.109 114.733  0.00  0.00     0.028 C 
ATOM     12  C   LIG d   1       4.361  88.650 115.446  0.00  0.00     0.006 C 
ENDBRANCH   8  11
ENDBRANCH   7   8
ENDBRANCH   1   7
BRANCH   6  13
ATOM     13  N   LIG d   1       2.550  90.559 118.495  0.00  0.00    -0.311 N 
ATOM     14  C   LIG d   1       3.504  91.283 117.911  0.00  0.00     0.210 C 
ATOM     15  C   LIG d   1       4.911  91.080 118.481  0.00  0.00     0.109 C 
ATOM     16  O   LIG d   1       3.312  92.098 116.996  0.00  0.00    -0.276 OA
ATOM     17  H   LIG d   1       2.789  89.948 119.251  0.00  0.00     0.149 HD
ENDBRANCH   6  13
BRANCH   5  18
ATOM     18  N   LIG d   1       0.380  92.227 119.851  0.00  0.00     0.381 N 
ATOM     19  H   LIG d   1       1.305  92.292 120.226  0.00  0.00    -0.090 HD
ATOM     20  H   LIG d   1      -0.275  92.355 120.602  0.00  0.00    -0.090 HD
ATOM     21  H   LIG d   1       0.244  92.930 119.159  0.00  0.00    -0.090 HD
ENDBRANCH   5  18
BRANCH   3  22
ATOM     22  C   LIG d   1      -2.859  89.157 118.112  0.00  0.00     0.382 C 
ATOM     23  O   LIG d   1      -3.400  88.920 119.219  0.00  0.00    -0.241 OA
ATOM     24  O   LIG d   1      -3.479  88.908 117.061  0.00  0.00    -0.241 OA
ENDBRANCH   3  22
TORSDOF 7
ENDMDL
MODEL 8
REMARK VINA RESULT:      -4.1      7.433     10.234
REMARK  7 active torsions:
REMARK  status: ('A' for Active; 'I' for Inactive)
REMARK    1  A    between atoms: C_2  and  C_3 
REMARK    2  A    between atoms: C_3  and  O_6 
REMARK    3  A    between atoms: C_3  and  C_4 
REMARK    4  A    between atoms: C_7  and  O_6 
REMARK    5  A    between atoms: C_9  and  C_10 
REMARK    6  A    between atoms: N_15  and  C_14 
REMARK    7  A    between atoms: N_20  and  C_19 
REMARK       I    between atoms: C_22  and  N_20 
ROOT
ATOM      1  C   LIG d   1       3.231  90.231 116.983  0.00  0.00     0.161 C 
ATOM      2  C   LIG d   1       2.390  90.927 117.867  0.00  0.00     0.016 C 
ATOM      3  C   LIG d   1       1.039  90.577 118.095  0.00  0.00     0.038 C 
ATOM      4  C   LIG d   1       0.477  89.407 117.564  0.00  0.00     0.028 C 
ATOM      5  C   LIG d   1       1.138  88.951 116.267  0.00  0.00    -0.047 C 
ATOM      6  C   LIG d   1       2.668  88.885 116.480  0.00  0.00     0.091 C 
ENDROOT
BRANCH   1   7
ATOM      7  O   LIG d   1       4.524  90.038 117.589  0.00  0.00    -0.368 OA
BRANCH   7   8
ATOM      8  C   LIG d   1       5.558  90.974 117.197  0.00  0.00     0.119 C 
BRANCH   8   9
ATOM      9  C   LIG d   1       6.789  90.153 116.769  0.00  0.00     0.028 C 
ATOM     10  C   LIG d   1       6.687  89.655 115.318  0.00  0.00     0.006 C 
ENDBRANCH   8   9
BRANCH   8  11
ATOM     11  C   LIG d   1       6.026  91.817 118.388  0.00  0.00     0.028 C 
ATOM     12  C   LIG d   1       5.313  93.176 118.473  0.00  0.00     0.006 C 
ENDBRANCH   8  11
ENDBRANCH   7   8
ENDBRANCH   1   7
BRANCH   6  13
ATOM     13  N   LIG d   1       3.398  88.529 115.235  0.00  0.00    -0.311 N 
ATOM     14  C   LIG d   1       3.743  87.282 114.920  0.00  0.00     0.210 C 
ATOM     15  C   LIG d   1       4.509  87.137 113.600  0.00  0.00     0.109 C 
ATOM     16  O   LIG d   1       3.460  86.278 115.591  0.00  0.00    -0.276 OA
ATOM     17  H   LIG d   1       3.640  89.279 114.618  0.00  0.00     0.149 HD
ENDBRANCH   6  13
BRANCH   5  18
ATOM     18  N   LIG d   1       0.549  87.650 115.900  0.00  0.00     0.381 N 
ATOM     19  H   LIG d   1      -0.327  87.530 116.369  0.00  0.00    -0.090 HD
ATOM     20  H   LIG d   1       1.168  86.917 116.197  0.00  0.00    -0.090 HD
ATOM     21  H   LIG d   1       0.415  87.602 114.914  0.00  0.00    -0.090 HD
ENDBRANCH   5  18
BRANCH   3  22
ATOM     22  C   LIG d   1       0.224  91.425 118.830  0.00  0.00     0.382 C 
ATOM     23  O   LIG d   1      -0.919  91.718 118.406  0.00  0.00    -0.241 OA
ATOM     24  O   LIG d   1       0.635  91.935 119.889  0.00  0.00    -0.241 OA
ENDBRANCH   3  22
TORSDOF 7
ENDMDL
MODEL 9
REMARK VINA RESULT:      -4.1      1.407      2.099
REMARK  7 active torsions:
REMARK  status: ('A' for Active; 'I' for Inactive)
REMARK    1  A    between atoms: C_2  and  C_3 
REMARK    2  A    between atoms: C_3  and  O_6 
REMARK    3  A    between atoms: C_3  and  C_4 
REMARK    4  A    between atoms: C_7  and  O_6 
REMARK    5  A    between atoms: C_9  and  C_10 
REMARK    6  A    between atoms: N_15  and  C_14 
REMARK    7  A    between atoms: N_20  and  C_19 
REMARK       I    between atoms: C_22  and  N_20 
ROOT
ATOM      1  C   LIG d   1      -5.386  91.310 120.031  0.00  0.00     0.161 C 
ATOM      2  C   LIG d   1      -4.165  91.723 120.591  0.00  0.00     0.016 C 
ATOM      3  C   LIG d   1      -2.938  91.692 119.890  0.00  0.00     0.038 C 
ATOM      4  C   LIG d   1      -2.872  91.385 118.523  0.00  0.00     0.028 C 
ATOM      5  C   LIG d   1      -4.002  90.477 118.051  0.00  0.00    -0.047 C 
ATOM      6  C   LIG d   1      -5.352  91.078 118.506  0.00  0.00     0.091 C 
ENDROOT
BRANCH   1   7
ATOM      7  O   LIG d   1      -6.423  92.251 120.372  0.00  0.00    -0.368 OA
BRANCH   7   8
ATOM      8  C   LIG d   1      -6.371  93.530 119.693  0.00  0.00     0.119 C 
BRANCH   8   9
ATOM      9  C   LIG d   1      -5.812  94.562 120.691  0.00  0.00     0.028 C 
ATOM     10  C   LIG d   1      -4.635  95.363 120.110  0.00  0.00     0.006 C 
ENDBRANCH   8   9
BRANCH   8  11
ATOM     11  C   LIG d   1      -7.775  94.029 119.337  0.00  0.00     0.028 C 
ATOM     12  C   LIG d   1      -8.696  94.140 120.562  0.00  0.00     0.006 C 
ENDBRANCH   8  11
ENDBRANCH   7   8
ENDBRANCH   1   7
BRANCH   6  13
ATOM     13  N   LIG d   1      -6.506  90.208 118.158  0.00  0.00    -0.311 N 
ATOM     14  C   LIG d   1      -7.090  90.209 116.961  0.00  0.00     0.210 C 
ATOM     15  C   LIG d   1      -8.276  89.250 116.820  0.00  0.00     0.109 C 
ATOM     16  O   LIG d   1      -6.718  90.889 115.993  0.00  0.00    -0.276 OA
ATOM     17  H   LIG d   1      -6.852  89.601 118.875  0.00  0.00     0.149 HD
ENDBRANCH   6  13
BRANCH   5  18
ATOM     18  N   LIG d   1      -3.891  90.351 116.585  0.00  0.00     0.381 N 
ATOM     19  H   LIG d   1      -2.948  90.530 116.301  0.00  0.00    -0.090 HD
ATOM     20  H   LIG d   1      -4.486  91.036 116.154  0.00  0.00    -0.090 HD
ATOM     21  H   LIG d   1      -4.164  89.436 116.300  0.00  0.00    -0.090 HD
ENDBRANCH   5  18
BRANCH   3  22
ATOM     22  C   LIG d   1      -1.752  91.931 120.569  0.00  0.00     0.382 C 
ATOM     23  O   LIG d   1      -1.461  93.097 120.929  0.00  0.00    -0.241 OA
ATOM     24  O   LIG d   1      -0.951  91.003 120.787  0.00  0.00    -0.241 OA
ENDBRANCH   3  22
TORSDOF 7
ENDMDL
