MODEL 1
REMARK VINA RESULT:      -5.9      0.000      0.000
REMARK  7 active torsions:
REMARK  status: ('A' for Active; 'I' for Inactive)
REMARK    1  A    between atoms: C_2  and  C_3 
REMARK    2  A    between atoms: C_3  and  O_6 
REMARK    3  A    between atoms: C_3  and  C_4 
REMARK    4  A    between atoms: C_7  and  O_6 
REMARK    5  A    between atoms: C_9  and  C_10 
REMARK    6  A    between atoms: N_15  and  C_14 
REMARK    7  A    between atoms: N_20  and  C_19 
REMARK       I    between atoms: C_22  and  N_20 
ROOT
ATOM      1  C   LIG d   1      -6.045  92.924 117.588  0.00  0.00     0.161 C 
ATOM      2  C   LIG d   1      -7.378  92.811 117.158  0.00  0.00     0.016 C 
ATOM      3  C   LIG d   1      -7.845  91.756 116.341  0.00  0.00     0.038 C 
ATOM      4  C   LIG d   1      -7.040  90.653 116.022  0.00  0.00     0.028 C 
ATOM      5  C   LIG d   1      -5.549  90.974 116.012  0.00  0.00    -0.047 C 
ATOM      6  C   LIG d   1      -5.178  91.672 117.341  0.00  0.00     0.091 C 
ENDROOT
BRANCH   1   7
ATOM      7  O   LIG d   1      -6.010  93.291 118.981  0.00  0.00    -0.368 OA
BRANCH   7   8
ATOM      8  C   LIG d   1      -5.577  94.642 119.274  0.00  0.00     0.119 C 
BRANCH   8   9
ATOM      9  C   LIG d   1      -4.671  94.578 120.519  0.00  0.00     0.028 C 
ATOM     10  C   LIG d   1      -3.230  95.022 120.219  0.00  0.00     0.006 C 
ENDBRANCH   8   9
BRANCH   8  11
ATOM     11  C   LIG d   1      -6.758  95.530 119.677  0.00  0.00     0.028 C 
ATOM     12  C   LIG d   1      -7.134  96.551 118.590  0.00  0.00     0.006 C 
ENDBRANCH   8  11
ENDBRANCH   7   8
ENDBRANCH   1   7
BRANCH   6  13
ATOM     13  N   LIG d   1      -3.754  92.096 117.380  0.00  0.00    -0.311 N 
ATOM     14  C   LIG d   1      -2.941  91.842 118.404  0.00  0.00     0.210 C 
ATOM     15  C   LIG d   1      -1.517  92.386 118.250  0.00  0.00     0.109 C 
ATOM     16  O   LIG d   1      -3.255  91.191 119.412  0.00  0.00    -0.276 OA
ATOM     17  H   LIG d   1      -3.407  92.603 116.589  0.00  0.00     0.149 HD
ENDBRANCH   6  13
BRANCH   5  18
ATOM     18  N   LIG d   1      -4.822  89.708 115.801  0.00  0.00     0.381 N 
ATOM     19  H   LIG d   1      -5.165  89.253 114.979  0.00  0.00    -0.090 HD
ATOM     20  H   LIG d   1      -4.985  89.104 116.587  0.00  0.00    -0.090 HD
ATOM     21  H   LIG d   1      -3.846  89.887 115.708  0.00  0.00    -0.090 HD
ENDBRANCH   5  18
BRANCH   3  22
ATOM     22  C   LIG d   1      -9.121  91.818 115.803  0.00  0.00     0.382 C 
ATOM     23  O   LIG d   1      -9.821  92.847 115.963  0.00  0.00    -0.241 OA
ATOM     24  O   LIG d   1      -9.599  90.840 115.195  0.00  0.00    -0.241 OA
ENDBRANCH   3  22
TORSDOF 7
ENDMDL
MODEL 2
REMARK VINA RESULT:      -5.8      1.589      2.385
REMARK  7 active torsions:
REMARK  status: ('A' for Active; 'I' for Inactive)
REMARK    1  A    between atoms: C_2  and  C_3 
REMARK    2  A    between atoms: C_3  and  O_6 
REMARK    3  A    between atoms: C_3  and  C_4 
REMARK    4  A    between atoms: C_7  and  O_6 
REMARK    5  A    between atoms: C_9  and  C_10 
REMARK    6  A    between atoms: N_15  and  C_14 
REMARK    7  A    between atoms: N_20  and  C_19 
REMARK       I    between atoms: C_22  and  N_20 
ROOT
ATOM      1  C   LIG d   1      -5.416  91.372 117.453  0.00  0.00     0.161 C 
ATOM      2  C   LIG d   1      -6.738  91.724 117.133  0.00  0.00     0.016 C 
ATOM      3  C   LIG d   1      -7.453  91.161 116.051  0.00  0.00     0.038 C 
ATOM      4  C   LIG d   1      -6.943  90.090 115.302  0.00  0.00     0.028 C 
ATOM      5  C   LIG d   1      -5.419  90.047 115.268  0.00  0.00    -0.047 C 
ATOM      6  C   LIG d   1      -4.882  90.126 116.715  0.00  0.00     0.091 C 
ENDROOT
BRANCH   1   7
ATOM      7  O   LIG d   1      -5.286  91.205 118.878  0.00  0.00    -0.368 OA
BRANCH   7   8
ATOM      8  C   LIG d   1      -4.488  92.199 119.567  0.00  0.00     0.119 C 
BRANCH   8   9
ATOM      9  C   LIG d   1      -5.453  93.085 120.379  0.00  0.00     0.028 C 
ATOM     10  C   LIG d   1      -5.758  94.418 119.677  0.00  0.00     0.006 C 
ENDBRANCH   8   9
BRANCH   8  11
ATOM     11  C   LIG d   1      -3.804  93.147 118.577  0.00  0.00     0.028 C 
ATOM     12  C   LIG d   1      -2.270  93.082 118.654  0.00  0.00     0.006 C 
ENDBRANCH   8  11
ENDBRANCH   7   8
ENDBRANCH   1   7
BRANCH   6  13
ATOM     13  N   LIG d   1      -3.398  90.175 116.768  0.00  0.00    -0.311 N 
ATOM     14  C   LIG d   1      -2.669  89.430 117.597  0.00  0.00     0.210 C 
ATOM     15  C   LIG d   1      -1.155  89.650 117.502  0.00  0.00     0.109 C 
ATOM     16  O   LIG d   1      -3.129  88.585 118.379  0.00  0.00    -0.276 OA
ATOM     17  H   LIG d   1      -2.940  90.811 116.144  0.00  0.00     0.149 HD
ENDBRANCH   6  13
BRANCH   5  18
ATOM     18  N   LIG d   1      -5.024  88.808 114.572  0.00  0.00     0.381 N 
ATOM     19  H   LIG d   1      -5.786  88.160 114.574  0.00  0.00    -0.090 HD
ATOM     20  H   LIG d   1      -4.253  88.391 115.063  0.00  0.00    -0.090 HD
ATOM     21  H   LIG d   1      -4.756  89.014 113.634  0.00  0.00    -0.090 HD
ENDBRANCH   5  18
BRANCH   3  22
ATOM     22  C   LIG d   1      -8.679  91.696 115.684  0.00  0.00     0.382 C 
ATOM     23  O   LIG d   1      -8.879  92.930 115.787  0.00  0.00    -0.241 OA
ATOM     24  O   LIG d   1      -9.600  90.956 115.293  0.00  0.00    -0.241 OA
ENDBRANCH   3  22
TORSDOF 7
ENDMDL
MODEL 3
REMARK VINA RESULT:      -5.6      2.422      4.161
REMARK  7 active torsions:
REMARK  status: ('A' for Active; 'I' for Inactive)
REMARK    1  A    between atoms: C_2  and  C_3 
REMARK    2  A    between atoms: C_3  and  O_6 
REMARK    3  A    between atoms: C_3  and  C_4 
REMARK    4  A    between atoms: C_7  and  O_6 
REMARK    5  A    between atoms: C_9  and  C_10 
REMARK    6  A    between atoms: N_15  and  C_14 
REMARK    7  A    between atoms: N_20  and  C_19 
REMARK       I    between atoms: C_22  and  N_20 
ROOT
ATOM      1  C   LIG d   1      -6.085  92.394 118.054  0.00  0.00     0.161 C 
ATOM      2  C   LIG d   1      -5.646  91.369 117.199  0.00  0.00     0.016 C 
ATOM      3  C   LIG d   1      -6.375  90.932 116.070  0.00  0.00     0.038 C 
ATOM      4  C   LIG d   1      -7.529  91.597 115.629  0.00  0.00     0.028 C 
ATOM      5  C   LIG d   1      -8.280  92.313 116.748  0.00  0.00    -0.047 C 
ATOM      6  C   LIG d   1      -7.287  93.205 117.527  0.00  0.00     0.091 C 
ENDROOT
BRANCH   1   7
ATOM      7  O   LIG d   1      -4.987  93.272 118.369  0.00  0.00    -0.368 OA
BRANCH   7   8
ATOM      8  C   LIG d   1      -4.209  92.925 119.542  0.00  0.00     0.119 C 
BRANCH   8   9
ATOM      9  C   LIG d   1      -4.818  93.678 120.741  0.00  0.00     0.028 C 
ATOM     10  C   LIG d   1      -4.568  95.194 120.669  0.00  0.00     0.006 C 
ENDBRANCH   8   9
BRANCH   8  11
ATOM     11  C   LIG d   1      -2.771  93.438 119.428  0.00  0.00     0.028 C 
ATOM     12  C   LIG d   1      -2.200  93.303 118.007  0.00  0.00     0.006 C 
ENDBRANCH   8  11
ENDBRANCH   7   8
ENDBRANCH   1   7
BRANCH   6  13
ATOM     13  N   LIG d   1      -7.922  93.877 118.691  0.00  0.00    -0.311 N 
ATOM     14  C   LIG d   1      -7.777  95.174 118.957  0.00  0.00     0.210 C 
ATOM     15  C   LIG d   1      -8.501  95.659 120.218  0.00  0.00     0.109 C 
ATOM     16  O   LIG d   1      -7.146  95.975 118.252  0.00  0.00    -0.276 OA
ATOM     17  H   LIG d   1      -8.478  93.307 119.299  0.00  0.00     0.149 HD
ENDBRANCH   6  13
BRANCH   5  18
ATOM     18  N   LIG d   1      -9.380  93.076 116.129  0.00  0.00     0.381 N 
ATOM     19  H   LIG d   1     -10.253  92.795 116.528  0.00  0.00    -0.090 HD
ATOM     20  H   LIG d   1      -9.403  92.873 115.145  0.00  0.00    -0.090 HD
ATOM     21  H   LIG d   1      -9.240  94.052 116.270  0.00  0.00    -0.090 HD
ENDBRANCH   5  18
BRANCH   3  22
ATOM     22  C   LIG d   1      -5.972  89.793 115.390  0.00  0.00     0.382 C 
ATOM     23  O   LIG d   1      -6.558  89.452 114.335  0.00  0.00    -0.241 OA
ATOM     24  O   LIG d   1      -5.059  89.077 115.843  0.00  0.00    -0.241 OA
ENDBRANCH   3  22
TORSDOF 7
ENDMDL
MODEL 4
REMARK VINA RESULT:      -5.3      2.313      5.640
REMARK  7 active torsions:
REMARK  status: ('A' for Active; 'I' for Inactive)
REMARK    1  A    between atoms: C_2  and  C_3 
REMARK    2  A    between atoms: C_3  and  O_6 
REMARK    3  A    between atoms: C_3  and  C_4 
REMARK    4  A    between atoms: C_7  and  O_6 
REMARK    5  A    between atoms: C_9  and  C_10 
REMARK    6  A    between atoms: N_15  and  C_14 
REMARK    7  A    between atoms: N_20  and  C_19 
REMARK       I    between atoms: C_22  and  N_20 
ROOT
ATOM      1  C   LIG d   1      -5.083  91.768 117.298  0.00  0.00     0.161 C 
ATOM      2  C   LIG d   1      -4.308  90.596 117.265  0.00  0.00     0.016 C 
ATOM      3  C   LIG d   1      -3.417  90.223 118.297  0.00  0.00     0.038 C 
ATOM      4  C   LIG d   1      -3.352  90.924 119.510  0.00  0.00     0.028 C 
ATOM      5  C   LIG d   1      -3.743  92.393 119.382  0.00  0.00    -0.047 C 
ATOM      6  C   LIG d   1      -5.108  92.488 118.663  0.00  0.00     0.091 C 
ENDROOT
BRANCH   1   7
ATOM      7  O   LIG d   1      -6.425  91.479 116.860  0.00  0.00    -0.368 OA
BRANCH   7   8
ATOM      8  C   LIG d   1      -6.884  92.204 115.693  0.00  0.00     0.119 C 
BRANCH   8   9
ATOM      9  C   LIG d   1      -8.415  92.340 115.805  0.00  0.00     0.028 C 
ATOM     10  C   LIG d   1      -8.839  93.261 116.961  0.00  0.00     0.006 C 
ENDBRANCH   8   9
BRANCH   8  11
ATOM     11  C   LIG d   1      -6.641  91.406 114.409  0.00  0.00     0.028 C 
ATOM     12  C   LIG d   1      -6.894  89.901 114.586  0.00  0.00     0.006 C 
ENDBRANCH   8  11
ENDBRANCH   7   8
ENDBRANCH   1   7
BRANCH   6  13
ATOM     13  N   LIG d   1      -5.525  93.894 118.422  0.00  0.00    -0.311 N 
ATOM     14  C   LIG d   1      -6.315  94.576 119.250  0.00  0.00     0.210 C 
ATOM     15  C   LIG d   1      -6.638  96.005 118.803  0.00  0.00     0.109 C 
ATOM     16  O   LIG d   1      -6.752  94.144 120.327  0.00  0.00    -0.276 OA
ATOM     17  H   LIG d   1      -5.190  94.332 117.586  0.00  0.00     0.149 HD
ENDBRANCH   6  13
BRANCH   5  18
ATOM     18  N   LIG d   1      -3.764  92.968 120.741  0.00  0.00     0.381 N 
ATOM     19  H   LIG d   1      -4.294  92.377 121.350  0.00  0.00    -0.090 HD
ATOM     20  H   LIG d   1      -4.211  93.867 120.706  0.00  0.00    -0.090 HD
ATOM     21  H   LIG d   1      -2.834  93.063 121.085  0.00  0.00    -0.090 HD
ENDBRANCH   5  18
BRANCH   3  22
ATOM     22  C   LIG d   1      -2.549  89.159 118.104  0.00  0.00     0.382 C 
ATOM     23  O   LIG d   1      -1.459  89.338 117.509  0.00  0.00    -0.241 OA
ATOM     24  O   LIG d   1      -2.862  88.012 118.478  0.00  0.00    -0.241 OA
ENDBRANCH   3  22
TORSDOF 7
ENDMDL
MODEL 5
REMARK VINA RESULT:      -5.3      2.252      4.557
REMARK  7 active torsions:
REMARK  status: ('A' for Active; 'I' for Inactive)
REMARK    1  A    between atoms: C_2  and  C_3 
REMARK    2  A    between atoms: C_3  and  O_6 
REMARK    3  A    between atoms: C_3  and  C_4 
REMARK    4  A    between atoms: C_7  and  O_6 
REMARK    5  A    between atoms: C_9  and  C_10 
REMARK    6  A    between atoms: N_15  and  C_14 
REMARK    7  A    between atoms: N_20  and  C_19 
REMARK       I    between atoms: C_22  and  N_20 
ROOT
ATOM      1  C   LIG d   1      -6.012  92.562 118.219  0.00  0.00     0.161 C 
ATOM      2  C   LIG d   1      -6.526  93.564 119.058  0.00  0.00     0.016 C 
ATOM      3  C   LIG d   1      -7.815  94.124 118.902  0.00  0.00     0.038 C 
ATOM      4  C   LIG d   1      -8.741  93.609 117.982  0.00  0.00     0.028 C 
ATOM      5  C   LIG d   1      -8.088  92.937 116.778  0.00  0.00    -0.047 C 
ATOM      6  C   LIG d   1      -7.048  91.910 117.280  0.00  0.00     0.091 C 
ENDROOT
BRANCH   1   7
ATOM      7  O   LIG d   1      -5.349  91.556 119.010  0.00  0.00    -0.368 OA
BRANCH   7   8
ATOM      8  C   LIG d   1      -3.911  91.684 119.129  0.00  0.00     0.119 C 
BRANCH   8   9
ATOM      9  C   LIG d   1      -3.403  92.397 117.861  0.00  0.00     0.028 C 
ATOM     10  C   LIG d   1      -2.292  93.416 118.166  0.00  0.00     0.006 C 
ENDBRANCH   8   9
BRANCH   8  11
ATOM     11  C   LIG d   1      -3.227  90.313 119.125  0.00  0.00     0.028 C 
ATOM     12  C   LIG d   1      -3.208  89.661 117.734  0.00  0.00     0.006 C 
ENDBRANCH   8  11
ENDBRANCH   7   8
ENDBRANCH   1   7
BRANCH   6  13
ATOM     13  N   LIG d   1      -6.303  91.267 116.166  0.00  0.00    -0.311 N 
ATOM     14  C   LIG d   1      -6.424  89.979 115.850  0.00  0.00     0.210 C 
ATOM     15  C   LIG d   1      -5.551  89.515 114.680  0.00  0.00     0.109 C 
ATOM     16  O   LIG d   1      -7.195  89.183 116.408  0.00  0.00    -0.276 OA
ATOM     17  H   LIG d   1      -5.678  91.847 115.640  0.00  0.00     0.149 HD
ENDBRANCH   6  13
BRANCH   5  18
ATOM     18  N   LIG d   1      -9.163  92.326 115.973  0.00  0.00     0.381 N 
ATOM     19  H   LIG d   1     -10.021  92.817 116.125  0.00  0.00    -0.090 HD
ATOM     20  H   LIG d   1      -9.288  91.373 116.267  0.00  0.00    -0.090 HD
ATOM     21  H   LIG d   1      -8.922  92.354 115.006  0.00  0.00    -0.090 HD
ENDBRANCH   5  18
BRANCH   3  22
ATOM     22  C   LIG d   1      -8.175  95.238 119.644  0.00  0.00     0.382 C 
ATOM     23  O   LIG d   1      -9.253  95.242 120.287  0.00  0.00    -0.241 OA
ATOM     24  O   LIG d   1      -7.458  96.257 119.644  0.00  0.00    -0.241 OA
ENDBRANCH   3  22
TORSDOF 7
ENDMDL
MODEL 6
REMARK VINA RESULT:      -5.1      2.183      4.717
REMARK  7 active torsions:
REMARK  status: ('A' for Active; 'I' for Inactive)
REMARK    1  A    between atoms: C_2  and  C_3 
REMARK    2  A    between atoms: C_3  and  O_6 
REMARK    3  A    between atoms: C_3  and  C_4 
REMARK    4  A    between atoms: C_7  and  O_6 
REMARK    5  A    between atoms: C_9  and  C_10 
REMARK    6  A    between atoms: N_15  and  C_14 
REMARK    7  A    between atoms: N_20  and  C_19 
REMARK       I    between atoms: C_22  and  N_20 
ROOT
ATOM      1  C   LIG d   1      -5.985  92.570 117.696  0.00  0.00     0.161 C 
ATOM      2  C   LIG d   1      -7.260  93.019 118.076  0.00  0.00     0.016 C 
ATOM      3  C   LIG d   1      -7.493  93.831 119.210  0.00  0.00     0.038 C 
ATOM      4  C   LIG d   1      -6.440  94.377 119.960  0.00  0.00     0.028 C 
ATOM      5  C   LIG d   1      -5.166  93.541 119.913  0.00  0.00    -0.047 C 
ATOM      6  C   LIG d   1      -4.813  93.247 118.437  0.00  0.00     0.091 C 
ENDROOT
BRANCH   1   7
ATOM      7  O   LIG d   1      -5.823  92.709 116.270  0.00  0.00    -0.368 OA
BRANCH   7   8
ATOM      8  C   LIG d   1      -6.079  91.521 115.481  0.00  0.00     0.119 C 
BRANCH   8   9
ATOM      9  C   LIG d   1      -7.550  91.576 115.025  0.00  0.00     0.028 C 
ATOM     10  C   LIG d   1      -8.375  90.396 115.566  0.00  0.00     0.006 C 
ENDBRANCH   8   9
BRANCH   8  11
ATOM     11  C   LIG d   1      -5.964  90.252 116.331  0.00  0.00     0.028 C 
ATOM     12  C   LIG d   1      -4.591  89.573 116.205  0.00  0.00     0.006 C 
ENDBRANCH   8  11
ENDBRANCH   7   8
ENDBRANCH   1   7
BRANCH   6  13
ATOM     13  N   LIG d   1      -3.626  92.363 118.303  0.00  0.00    -0.311 N 
ATOM     14  C   LIG d   1      -2.385  92.820 118.148  0.00  0.00     0.210 C 
ATOM     15  C   LIG d   1      -1.309  91.738 118.009  0.00  0.00     0.109 C 
ATOM     16  O   LIG d   1      -2.068  94.019 118.143  0.00  0.00    -0.276 OA
ATOM     17  H   LIG d   1      -3.788  91.375 118.328  0.00  0.00     0.149 HD
ENDBRANCH   6  13
BRANCH   5  18
ATOM     18  N   LIG d   1      -4.112  94.294 120.620  0.00  0.00     0.381 N 
ATOM     19  H   LIG d   1      -4.307  94.308 121.601  0.00  0.00    -0.090 HD
ATOM     20  H   LIG d   1      -4.109  95.241 120.285  0.00  0.00    -0.090 HD
ATOM     21  H   LIG d   1      -3.224  93.873 120.457  0.00  0.00    -0.090 HD
ENDBRANCH   5  18
BRANCH   3  22
ATOM     22  C   LIG d   1      -8.793  94.072 119.628  0.00  0.00     0.382 C 
ATOM     23  O   LIG d   1      -9.102  95.192 120.102  0.00  0.00    -0.241 OA
ATOM     24  O   LIG d   1      -9.649  93.169 119.579  0.00  0.00    -0.241 OA
ENDBRANCH   3  22
TORSDOF 7
ENDMDL
MODEL 7
REMARK VINA RESULT:      -5.1      1.981      5.109
REMARK  7 active torsions:
REMARK  status: ('A' for Active; 'I' for Inactive)
REMARK    1  A    between atoms: C_2  and  C_3 
REMARK    2  A    between atoms: C_3  and  O_6 
REMARK    3  A    between atoms: C_3  and  C_4 
REMARK    4  A    between atoms: C_7  and  O_6 
REMARK    5  A    between atoms: C_9  and  C_10 
REMARK    6  A    between atoms: N_15  and  C_14 
REMARK    7  A    between atoms: N_20  and  C_19 
REMARK       I    between atoms: C_22  and  N_20 
ROOT
ATOM      1  C   LIG d   1      -5.465  92.508 118.421  0.00  0.00     0.161 C 
ATOM      2  C   LIG d   1      -4.324  93.039 119.045  0.00  0.00     0.016 C 
ATOM      3  C   LIG d   1      -3.030  92.486 118.904  0.00  0.00     0.038 C 
ATOM      4  C   LIG d   1      -2.764  91.445 118.002  0.00  0.00     0.028 C 
ATOM      5  C   LIG d   1      -3.970  90.552 117.733  0.00  0.00    -0.047 C 
ATOM      6  C   LIG d   1      -5.175  91.440 117.346  0.00  0.00     0.091 C 
ENDROOT
BRANCH   1   7
ATOM      7  O   LIG d   1      -6.260  93.574 117.867  0.00  0.00    -0.368 OA
BRANCH   7   8
ATOM      8  C   LIG d   1      -7.218  94.187 118.765  0.00  0.00     0.119 C 
BRANCH   8   9
ATOM      9  C   LIG d   1      -8.599  93.578 118.455  0.00  0.00     0.028 C 
ATOM     10  C   LIG d   1      -8.792  93.294 116.956  0.00  0.00     0.006 C 
ENDBRANCH   8   9
BRANCH   8  11
ATOM     11  C   LIG d   1      -7.364  95.686 118.485  0.00  0.00     0.028 C 
ATOM     12  C   LIG d   1      -6.221  96.518 119.088  0.00  0.00     0.006 C 
ENDBRANCH   8  11
ENDBRANCH   7   8
ENDBRANCH   1   7
BRANCH   6  13
ATOM     13  N   LIG d   1      -6.419  90.652 117.148  0.00  0.00    -0.311 N 
ATOM     14  C   LIG d   1      -6.820  90.199 115.961  0.00  0.00     0.210 C 
ATOM     15  C   LIG d   1      -8.142  89.426 115.976  0.00  0.00     0.109 C 
ATOM     16  O   LIG d   1      -6.189  90.337 114.902  0.00  0.00    -0.276 OA
ATOM     17  H   LIG d   1      -6.976  90.467 117.960  0.00  0.00     0.149 HD
ENDBRANCH   6  13
BRANCH   5  18
ATOM     18  N   LIG d   1      -3.591  89.597 116.675  0.00  0.00     0.381 N 
ATOM     19  H   LIG d   1      -3.346  90.094 115.842  0.00  0.00    -0.090 HD
ATOM     20  H   LIG d   1      -4.380  89.009 116.470  0.00  0.00    -0.090 HD
ATOM     21  H   LIG d   1      -2.822  89.041 116.977  0.00  0.00    -0.090 HD
ENDBRANCH   5  18
BRANCH   3  22
ATOM     22  C   LIG d   1      -1.994  92.949 119.701  0.00  0.00     0.382 C 
ATOM     23  O   LIG d   1      -0.905  92.327 119.736  0.00  0.00    -0.241 OA
ATOM     24  O   LIG d   1      -2.150  93.955 120.418  0.00  0.00    -0.241 OA
ENDBRANCH   3  22
TORSDOF 7
ENDMDL
MODEL 8
REMARK VINA RESULT:      -5.0      2.297      4.574
REMARK  7 active torsions:
REMARK  status: ('A' for Active; 'I' for Inactive)
REMARK    1  A    between atoms: C_2  and  C_3 
REMARK    2  A    between atoms: C_3  and  O_6 
REMARK    3  A    between atoms: C_3  and  C_4 
REMARK    4  A    between atoms: C_7  and  O_6 
REMARK    5  A    between atoms: C_9  and  C_10 
REMARK    6  A    between atoms: N_15  and  C_14 
REMARK    7  A    between atoms: N_20  and  C_19 
REMARK       I    between atoms: C_22  and  N_20 
ROOT
ATOM      1  C   LIG d   1      -4.690  90.817 117.805  0.00  0.00     0.161 C 
ATOM      2  C   LIG d   1      -5.698  90.264 116.997  0.00  0.00     0.016 C 
ATOM      3  C   LIG d   1      -6.817  90.996 116.539  0.00  0.00     0.038 C 
ATOM      4  C   LIG d   1      -6.928  92.381 116.734  0.00  0.00     0.028 C 
ATOM      5  C   LIG d   1      -6.190  92.879 117.972  0.00  0.00    -0.047 C 
ATOM      6  C   LIG d   1      -4.737  92.354 117.936  0.00  0.00     0.091 C 
ENDROOT
BRANCH   1   7
ATOM      7  O   LIG d   1      -3.397  90.393 117.332  0.00  0.00    -0.368 OA
BRANCH   7   8
ATOM      8  C   LIG d   1      -2.597  89.625 118.264  0.00  0.00     0.119 C 
BRANCH   8   9
ATOM      9  C   LIG d   1      -1.211  90.294 118.345  0.00  0.00     0.028 C 
ATOM     10  C   LIG d   1      -0.300  89.901 117.169  0.00  0.00     0.006 C 
ENDBRANCH   8   9
BRANCH   8  11
ATOM     11  C   LIG d   1      -2.334  88.210 117.741  0.00  0.00     0.028 C 
ATOM     12  C   LIG d   1      -2.118  87.188 118.868  0.00  0.00     0.006 C 
ENDBRANCH   8  11
ENDBRANCH   7   8
ENDBRANCH   1   7
BRANCH   6  13
ATOM     13  N   LIG d   1      -3.969  92.725 119.153  0.00  0.00    -0.311 N 
ATOM     14  C   LIG d   1      -2.817  93.393 119.118  0.00  0.00     0.210 C 
ATOM     15  C   LIG d   1      -2.181  93.656 120.486  0.00  0.00     0.109 C 
ATOM     16  O   LIG d   1      -2.279  93.820 118.086  0.00  0.00    -0.276 OA
ATOM     17  H   LIG d   1      -4.350  92.445 120.036  0.00  0.00     0.149 HD
ENDBRANCH   6  13
BRANCH   5  18
ATOM     18  N   LIG d   1      -6.273  94.352 117.978  0.00  0.00     0.381 N 
ATOM     19  H   LIG d   1      -5.358  94.742 118.085  0.00  0.00    -0.090 HD
ATOM     20  H   LIG d   1      -6.833  94.643 118.759  0.00  0.00    -0.090 HD
ATOM     21  H   LIG d   1      -6.681  94.674 117.128  0.00  0.00    -0.090 HD
ENDBRANCH   5  18
BRANCH   3  22
ATOM     22  C   LIG d   1      -7.861  90.334 115.911  0.00  0.00     0.382 C 
ATOM     23  O   LIG d   1      -8.784  90.989 115.370  0.00  0.00    -0.241 OA
ATOM     24  O   LIG d   1      -7.915  89.090 115.917  0.00  0.00    -0.241 OA
ENDBRANCH   3  22
TORSDOF 7
ENDMDL
MODEL 9
REMARK VINA RESULT:      -5.0      1.856      4.987
REMARK  7 active torsions:
REMARK  status: ('A' for Active; 'I' for Inactive)
REMARK    1  A    between atoms: C_2  and  C_3 
REMARK    2  A    between atoms: C_3  and  O_6 
REMARK    3  A    between atoms: C_3  and  C_4 
REMARK    4  A    between atoms: C_7  and  O_6 
REMARK    5  A    between atoms: C_9  and  C_10 
REMARK    6  A    between atoms: N_15  and  C_14 
REMARK    7  A    between atoms: N_20  and  C_19 
REMARK       I    between atoms: C_22  and  N_20 
ROOT
ATOM      1  C   LIG d   1      -5.232  91.766 118.760  0.00  0.00     0.161 C 
ATOM      2  C   LIG d   1      -4.045  91.344 119.380  0.00  0.00     0.016 C 
ATOM      3  C   LIG d   1      -3.161  90.400 118.808  0.00  0.00     0.038 C 
ATOM      4  C   LIG d   1      -3.330  89.925 117.499  0.00  0.00     0.028 C 
ATOM      5  C   LIG d   1      -4.781  89.937 117.033  0.00  0.00    -0.047 C 
ATOM      6  C   LIG d   1      -5.377  91.342 117.283  0.00  0.00     0.091 C 
ENDROOT
BRANCH   1   7
ATOM      7  O   LIG d   1      -5.369  93.195 118.886  0.00  0.00    -0.368 OA
BRANCH   7   8
ATOM      8  C   LIG d   1      -6.151  93.663 120.012  0.00  0.00     0.119 C 
BRANCH   8   9
ATOM      9  C   LIG d   1      -7.561  94.000 119.488  0.00  0.00     0.028 C 
ATOM     10  C   LIG d   1      -7.524  94.823 118.190  0.00  0.00     0.006 C 
ENDBRANCH   8   9
BRANCH   8  11
ATOM     11  C   LIG d   1      -5.599  94.981 120.565  0.00  0.00     0.028 C 
ATOM     12  C   LIG d   1      -4.211  95.327 120.004  0.00  0.00     0.006 C 
ENDBRANCH   8  11
ENDBRANCH   7   8
ENDBRANCH   1   7
BRANCH   6  13
ATOM     13  N   LIG d   1      -6.819  91.417 116.933  0.00  0.00    -0.311 N 
ATOM     14  C   LIG d   1      -7.277  92.015 115.834  0.00  0.00     0.210 C 
ATOM     15  C   LIG d   1      -8.800  91.996 115.674  0.00  0.00     0.109 C 
ATOM     16  O   LIG d   1      -6.563  92.531 114.961  0.00  0.00    -0.276 OA
ATOM     17  H   LIG d   1      -7.466  90.996 117.571  0.00  0.00     0.149 HD
ENDBRANCH   6  13
BRANCH   5  18
ATOM     18  N   LIG d   1      -4.796  89.549 115.610  0.00  0.00     0.381 N 
ATOM     19  H   LIG d   1      -4.914  90.361 115.038  0.00  0.00    -0.090 HD
ATOM     20  H   LIG d   1      -5.574  88.934 115.449  0.00  0.00    -0.090 HD
ATOM     21  H   LIG d   1      -3.945  89.088 115.374  0.00  0.00    -0.090 HD
ENDBRANCH   5  18
BRANCH   3  22
ATOM     22  C   LIG d   1      -2.114  89.893 119.563  0.00  0.00     0.382 C 
ATOM     23  O   LIG d   1      -0.968  89.799 119.063  0.00  0.00    -0.241 OA
ATOM     24  O   LIG d   1      -2.312  89.487 120.724  0.00  0.00    -0.241 OA
ENDBRANCH   3  22
TORSDOF 7
ENDMDL
