MODEL 1
REMARK VINA RESULT:      -5.2      0.000      0.000
REMARK  7 active torsions:
REMARK  status: ('A' for Active; 'I' for Inactive)
REMARK    1  A    between atoms: C_2  and  C_3 
REMARK    2  A    between atoms: C_3  and  O_6 
REMARK    3  A    between atoms: C_3  and  C_4 
REMARK    4  A    between atoms: C_7  and  O_6 
REMARK    5  A    between atoms: C_9  and  C_10 
REMARK    6  A    between atoms: N_15  and  C_14 
REMARK    7  A    between atoms: N_20  and  C_19 
REMARK       I    between atoms: C_22  and  N_20 
ROOT
ATOM      1  C   LIG d   1      -5.480  91.436 117.392  0.00  0.00     0.161 C 
ATOM      2  C   LIG d   1      -4.496  90.450 117.576  0.00  0.00     0.016 C 
ATOM      3  C   LIG d   1      -3.602  90.438 118.671  0.00  0.00     0.038 C 
ATOM      4  C   LIG d   1      -3.731  91.333 119.743  0.00  0.00     0.028 C 
ATOM      5  C   LIG d   1      -4.387  92.654 119.355  0.00  0.00    -0.047 C 
ATOM      6  C   LIG d   1      -5.708  92.357 118.609  0.00  0.00     0.091 C 
ENDROOT
BRANCH   1   7
ATOM      7  O   LIG d   1      -6.720  90.820 116.990  0.00  0.00    -0.368 OA
BRANCH   7   8
ATOM      8  C   LIG d   1      -6.687  90.072 115.750  0.00  0.00     0.119 C 
BRANCH   8   9
ATOM      9  C   LIG d   1      -6.110  91.001 114.664  0.00  0.00     0.028 C 
ATOM     10  C   LIG d   1      -7.201  91.816 113.949  0.00  0.00     0.006 C 
ENDBRANCH   8   9
BRANCH   8  11
ATOM     11  C   LIG d   1      -8.100  89.720 115.274  0.00  0.00     0.028 C 
ATOM     12  C   LIG d   1      -8.813  88.729 116.207  0.00  0.00     0.006 C 
ENDBRANCH   8  11
ENDBRANCH   7   8
ENDBRANCH   1   7
BRANCH   6  13
ATOM     13  N   LIG d   1      -6.373  93.593 118.119  0.00  0.00    -0.311 N 
ATOM     14  C   LIG d   1      -7.275  94.270 118.827  0.00  0.00     0.210 C 
ATOM     15  C   LIG d   1      -7.852  95.505 118.128  0.00  0.00     0.109 C 
ATOM     16  O   LIG d   1      -7.630  93.983 119.981  0.00  0.00    -0.276 OA
ATOM     17  H   LIG d   1      -6.121  93.915 117.205  0.00  0.00     0.149 HD
ENDBRANCH   6  13
BRANCH   5  18
ATOM     18  N   LIG d   1      -4.584  93.434 120.591  0.00  0.00     0.381 N 
ATOM     19  H   LIG d   1      -5.179  92.932 121.218  0.00  0.00    -0.090 HD
ATOM     20  H   LIG d   1      -5.032  94.303 120.359  0.00  0.00    -0.090 HD
ATOM     21  H   LIG d   1      -3.705  93.611 121.026  0.00  0.00    -0.090 HD
ENDBRANCH   5  18
BRANCH   3  22
ATOM     22  C   LIG d   1      -2.539  89.548 118.681  0.00  0.00     0.382 C 
ATOM     23  O   LIG d   1      -1.362  89.976 118.618  0.00  0.00    -0.241 OA
ATOM     24  O   LIG d   1      -2.745  88.319 118.706  0.00  0.00    -0.241 OA
ENDBRANCH   3  22
TORSDOF 7
ENDMDL
MODEL 2
REMARK VINA RESULT:      -5.2      2.209      5.641
REMARK  7 active torsions:
REMARK  status: ('A' for Active; 'I' for Inactive)
REMARK    1  A    between atoms: C_2  and  C_3 
REMARK    2  A    between atoms: C_3  and  O_6 
REMARK    3  A    between atoms: C_3  and  C_4 
REMARK    4  A    between atoms: C_7  and  O_6 
REMARK    5  A    between atoms: C_9  and  C_10 
REMARK    6  A    between atoms: N_15  and  C_14 
REMARK    7  A    between atoms: N_20  and  C_19 
REMARK       I    between atoms: C_22  and  N_20 
ROOT
ATOM      1  C   LIG d   1      -5.308  91.873 118.300  0.00  0.00     0.161 C 
ATOM      2  C   LIG d   1      -6.166  91.837 117.188  0.00  0.00     0.016 C 
ATOM      3  C   LIG d   1      -5.970  90.980 116.081  0.00  0.00     0.038 C 
ATOM      4  C   LIG d   1      -4.980  89.986 116.079  0.00  0.00     0.028 C 
ATOM      5  C   LIG d   1      -3.781  90.324 116.959  0.00  0.00    -0.047 C 
ATOM      6  C   LIG d   1      -4.286  90.719 118.365  0.00  0.00     0.091 C 
ENDROOT
BRANCH   1   7
ATOM      7  O   LIG d   1      -6.083  91.926 119.514  0.00  0.00    -0.368 OA
BRANCH   7   8
ATOM      8  C   LIG d   1      -6.058  93.184 120.232  0.00  0.00     0.119 C 
BRANCH   8   9
ATOM      9  C   LIG d   1      -7.428  93.860 120.030  0.00  0.00     0.028 C 
ATOM     10  C   LIG d   1      -7.390  94.950 118.946  0.00  0.00     0.006 C 
ENDBRANCH   8   9
BRANCH   8  11
ATOM     11  C   LIG d   1      -5.035  94.150 119.627  0.00  0.00     0.028 C 
ATOM     12  C   LIG d   1      -3.882  94.477 120.589  0.00  0.00     0.006 C 
ENDBRANCH   8  11
ENDBRANCH   7   8
ENDBRANCH   1   7
BRANCH   6  13
ATOM     13  N   LIG d   1      -3.183  91.145 119.265  0.00  0.00    -0.311 N 
ATOM     14  C   LIG d   1      -2.504  90.304 120.043  0.00  0.00     0.210 C 
ATOM     15  C   LIG d   1      -1.420  90.954 120.908  0.00  0.00     0.109 C 
ATOM     16  O   LIG d   1      -2.676  89.076 120.076  0.00  0.00    -0.276 OA
ATOM     17  H   LIG d   1      -2.956  92.120 119.278  0.00  0.00     0.149 HD
ENDBRANCH   6  13
BRANCH   5  18
ATOM     18  N   LIG d   1      -2.893  89.146 116.973  0.00  0.00     0.381 N 
ATOM     19  H   LIG d   1      -2.119  89.298 116.357  0.00  0.00    -0.090 HD
ATOM     20  H   LIG d   1      -3.406  88.348 116.644  0.00  0.00    -0.090 HD
ATOM     21  H   LIG d   1      -2.562  88.980 117.898  0.00  0.00    -0.090 HD
ENDBRANCH   5  18
BRANCH   3  22
ATOM     22  C   LIG d   1      -6.745  91.139 114.943  0.00  0.00     0.382 C 
ATOM     23  O   LIG d   1      -7.635  90.298 114.667  0.00  0.00    -0.241 OA
ATOM     24  O   LIG d   1      -6.537  92.089 114.164  0.00  0.00    -0.241 OA
ENDBRANCH   3  22
TORSDOF 7
ENDMDL
MODEL 3
REMARK VINA RESULT:      -5.0      2.111      5.152
REMARK  7 active torsions:
REMARK  status: ('A' for Active; 'I' for Inactive)
REMARK    1  A    between atoms: C_2  and  C_3 
REMARK    2  A    between atoms: C_3  and  O_6 
REMARK    3  A    between atoms: C_3  and  C_4 
REMARK    4  A    between atoms: C_7  and  O_6 
REMARK    5  A    between atoms: C_9  and  C_10 
REMARK    6  A    between atoms: N_15  and  C_14 
REMARK    7  A    between atoms: N_20  and  C_19 
REMARK       I    between atoms: C_22  and  N_20 
ROOT
ATOM      1  C   LIG d   1      -5.021  92.536 118.853  0.00  0.00     0.161 C 
ATOM      2  C   LIG d   1      -6.383  92.880 118.816  0.00  0.00     0.016 C 
ATOM      3  C   LIG d   1      -6.895  94.087 119.346  0.00  0.00     0.038 C 
ATOM      4  C   LIG d   1      -6.053  95.106 119.817  0.00  0.00     0.028 C 
ATOM      5  C   LIG d   1      -4.714  94.594 120.335  0.00  0.00    -0.047 C 
ATOM      6  C   LIG d   1      -4.075  93.684 119.262  0.00  0.00     0.091 C 
ENDROOT
BRANCH   1   7
ATOM      7  O   LIG d   1      -4.622  91.986 117.581  0.00  0.00    -0.368 OA
BRANCH   7   8
ATOM      8  C   LIG d   1      -4.747  90.550 117.441  0.00  0.00     0.119 C 
BRANCH   8   9
ATOM      9  C   LIG d   1      -3.326  89.955 117.491  0.00  0.00     0.028 C 
ATOM     10  C   LIG d   1      -2.955  89.438 118.892  0.00  0.00     0.006 C 
ENDBRANCH   8   9
BRANCH   8  11
ATOM     11  C   LIG d   1      -5.296  90.170 116.062  0.00  0.00     0.028 C 
ATOM     12  C   LIG d   1      -6.832  90.205 116.003  0.00  0.00     0.006 C 
ENDBRANCH   8  11
ENDBRANCH   7   8
ENDBRANCH   1   7
BRANCH   6  13
ATOM     13  N   LIG d   1      -2.800  93.073 119.722  0.00  0.00    -0.311 N 
ATOM     14  C   LIG d   1      -1.714  92.978 118.957  0.00  0.00     0.210 C 
ATOM     15  C   LIG d   1      -0.514  92.296 119.620  0.00  0.00     0.109 C 
ATOM     16  O   LIG d   1      -1.621  93.423 117.803  0.00  0.00    -0.276 OA
ATOM     17  H   LIG d   1      -2.778  92.714 120.657  0.00  0.00     0.149 HD
ENDBRANCH   6  13
BRANCH   5  18
ATOM     18  N   LIG d   1      -3.885  95.769 120.665  0.00  0.00     0.381 N 
ATOM     19  H   LIG d   1      -2.917  95.543 120.553  0.00  0.00    -0.090 HD
ATOM     20  H   LIG d   1      -4.042  96.019 121.625  0.00  0.00    -0.090 HD
ATOM     21  H   LIG d   1      -4.125  96.533 120.072  0.00  0.00    -0.090 HD
ENDBRANCH   5  18
BRANCH   3  22
ATOM     22  C   LIG d   1      -8.266  94.266 119.445  0.00  0.00     0.382 C 
ATOM     23  O   LIG d   1      -8.890  94.850 118.526  0.00  0.00    -0.241 OA
ATOM     24  O   LIG d   1      -8.880  93.892 120.462  0.00  0.00    -0.241 OA
ENDBRANCH   3  22
TORSDOF 7
ENDMDL
MODEL 4
REMARK VINA RESULT:      -5.0      1.861      4.846
REMARK  7 active torsions:
REMARK  status: ('A' for Active; 'I' for Inactive)
REMARK    1  A    between atoms: C_2  and  C_3 
REMARK    2  A    between atoms: C_3  and  O_6 
REMARK    3  A    between atoms: C_3  and  C_4 
REMARK    4  A    between atoms: C_7  and  O_6 
REMARK    5  A    between atoms: C_9  and  C_10 
REMARK    6  A    between atoms: N_15  and  C_14 
REMARK    7  A    between atoms: N_20  and  C_19 
REMARK       I    between atoms: C_22  and  N_20 
ROOT
ATOM      1  C   LIG d   1      -4.981  90.755 118.044  0.00  0.00     0.161 C 
ATOM      2  C   LIG d   1      -5.795  91.842 118.400  0.00  0.00     0.016 C 
ATOM      3  C   LIG d   1      -5.307  93.000 119.049  0.00  0.00     0.038 C 
ATOM      4  C   LIG d   1      -3.936  93.215 119.250  0.00  0.00     0.028 C 
ATOM      5  C   LIG d   1      -3.131  91.924 119.363  0.00  0.00    -0.047 C 
ATOM      6  C   LIG d   1      -3.465  91.018 118.156  0.00  0.00     0.091 C 
ENDROOT
BRANCH   1   7
ATOM      7  O   LIG d   1      -5.315  90.309 116.715  0.00  0.00    -0.368 OA
BRANCH   7   8
ATOM      8  C   LIG d   1      -6.610  90.722 116.211  0.00  0.00     0.119 C 
BRANCH   8   9
ATOM      9  C   LIG d   1      -7.190  89.544 115.404  0.00  0.00     0.028 C 
ATOM     10  C   LIG d   1      -8.505  89.015 116.001  0.00  0.00     0.006 C 
ENDBRANCH   8   9
BRANCH   8  11
ATOM     11  C   LIG d   1      -6.476  91.872 115.209  0.00  0.00     0.028 C 
ATOM     12  C   LIG d   1      -7.240  91.615 113.901  0.00  0.00     0.006 C 
ENDBRANCH   8  11
ENDBRANCH   7   8
ENDBRANCH   1   7
BRANCH   6  13
ATOM     13  N   LIG d   1      -2.783  89.700 118.231  0.00  0.00    -0.311 N 
ATOM     14  C   LIG d   1      -1.572  89.470 117.727  0.00  0.00     0.210 C 
ATOM     15  C   LIG d   1      -1.062  88.035 117.896  0.00  0.00     0.109 C 
ATOM     16  O   LIG d   1      -0.858  90.327 117.185  0.00  0.00    -0.276 OA
ATOM     17  H   LIG d   1      -3.278  88.956 118.683  0.00  0.00     0.149 HD
ENDBRANCH   6  13
BRANCH   5  18
ATOM     18  N   LIG d   1      -1.704  92.294 119.432  0.00  0.00     0.381 N 
ATOM     19  H   LIG d   1      -1.322  92.005 120.310  0.00  0.00    -0.090 HD
ATOM     20  H   LIG d   1      -1.624  93.293 119.365  0.00  0.00    -0.090 HD
ATOM     21  H   LIG d   1      -1.204  91.862 118.686  0.00  0.00    -0.090 HD
ENDBRANCH   5  18
BRANCH   3  22
ATOM     22  C   LIG d   1      -6.200  93.941 119.539  0.00  0.00     0.382 C 
ATOM     23  O   LIG d   1      -5.827  94.767 120.406  0.00  0.00    -0.241 OA
ATOM     24  O   LIG d   1      -7.386  93.945 119.158  0.00  0.00    -0.241 OA
ENDBRANCH   3  22
TORSDOF 7
ENDMDL
MODEL 5
REMARK VINA RESULT:      -4.9      2.113      4.802
REMARK  7 active torsions:
REMARK  status: ('A' for Active; 'I' for Inactive)
REMARK    1  A    between atoms: C_2  and  C_3 
REMARK    2  A    between atoms: C_3  and  O_6 
REMARK    3  A    between atoms: C_3  and  C_4 
REMARK    4  A    between atoms: C_7  and  O_6 
REMARK    5  A    between atoms: C_9  and  C_10 
REMARK    6  A    between atoms: N_15  and  C_14 
REMARK    7  A    between atoms: N_20  and  C_19 
REMARK       I    between atoms: C_22  and  N_20 
ROOT
ATOM      1  C   LIG d   1      -4.212  91.129 117.662  0.00  0.00     0.161 C 
ATOM      2  C   LIG d   1      -3.271  92.044 118.162  0.00  0.00     0.016 C 
ATOM      3  C   LIG d   1      -3.622  93.194 118.906  0.00  0.00     0.038 C 
ATOM      4  C   LIG d   1      -4.938  93.427 119.332  0.00  0.00     0.028 C 
ATOM      5  C   LIG d   1      -5.989  92.799 118.423  0.00  0.00    -0.047 C 
ATOM      6  C   LIG d   1      -5.643  91.308 118.211  0.00  0.00     0.091 C 
ENDROOT
BRANCH   1   7
ATOM      7  O   LIG d   1      -3.752  89.782 117.889  0.00  0.00    -0.368 OA
BRANCH   7   8
ATOM      8  C   LIG d   1      -2.451  89.649 118.512  0.00  0.00     0.119 C 
BRANCH   8   9
ATOM      9  C   LIG d   1      -1.553  88.857 117.543  0.00  0.00     0.028 C 
ATOM     10  C   LIG d   1      -0.227  89.579 117.248  0.00  0.00     0.006 C 
ENDBRANCH   8   9
BRANCH   8  11
ATOM     11  C   LIG d   1      -2.526  88.797 119.783  0.00  0.00     0.028 C 
ATOM     12  C   LIG d   1      -2.197  87.317 119.529  0.00  0.00     0.006 C 
ENDBRANCH   8  11
ENDBRANCH   7   8
ENDBRANCH   1   7
BRANCH   6  13
ATOM     13  N   LIG d   1      -6.574  90.638 117.266  0.00  0.00    -0.311 N 
ATOM     14  C   LIG d   1      -6.598  90.890 115.958  0.00  0.00     0.210 C 
ATOM     15  C   LIG d   1      -7.649  90.104 115.168  0.00  0.00     0.109 C 
ATOM     16  O   LIG d   1      -5.827  91.665 115.373  0.00  0.00    -0.276 OA
ATOM     17  H   LIG d   1      -7.213  89.971 117.652  0.00  0.00     0.149 HD
ENDBRANCH   6  13
BRANCH   5  18
ATOM     18  N   LIG d   1      -7.306  93.002 119.058  0.00  0.00     0.381 N 
ATOM     19  H   LIG d   1      -7.455  92.304 119.758  0.00  0.00    -0.090 HD
ATOM     20  H   LIG d   1      -8.022  92.906 118.359  0.00  0.00    -0.090 HD
ATOM     21  H   LIG d   1      -7.351  93.909 119.467  0.00  0.00    -0.090 HD
ENDBRANCH   5  18
BRANCH   3  22
ATOM     22  C   LIG d   1      -2.657  94.145 119.198  0.00  0.00     0.382 C 
ATOM     23  O   LIG d   1      -2.981  95.352 119.316  0.00  0.00    -0.241 OA
ATOM     24  O   LIG d   1      -1.459  93.820 119.300  0.00  0.00    -0.241 OA
ENDBRANCH   3  22
TORSDOF 7
ENDMDL
MODEL 6
REMARK VINA RESULT:      -4.8      4.367      6.638
REMARK  7 active torsions:
REMARK  status: ('A' for Active; 'I' for Inactive)
REMARK    1  A    between atoms: C_2  and  C_3 
REMARK    2  A    between atoms: C_3  and  O_6 
REMARK    3  A    between atoms: C_3  and  C_4 
REMARK    4  A    between atoms: C_7  and  O_6 
REMARK    5  A    between atoms: C_9  and  C_10 
REMARK    6  A    between atoms: N_15  and  C_14 
REMARK    7  A    between atoms: N_20  and  C_19 
REMARK       I    between atoms: C_22  and  N_20 
ROOT
ATOM      1  C   LIG d   1       0.496  90.828 116.678  0.00  0.00     0.161 C 
ATOM      2  C   LIG d   1       1.901  90.819 116.645  0.00  0.00     0.016 C 
ATOM      3  C   LIG d   1       2.705  91.561 117.540  0.00  0.00     0.038 C 
ATOM      4  C   LIG d   1       2.157  92.249 118.633  0.00  0.00     0.028 C 
ATOM      5  C   LIG d   1       0.717  92.696 118.406  0.00  0.00    -0.047 C 
ATOM      6  C   LIG d   1      -0.117  91.484 117.932  0.00  0.00     0.091 C 
ENDROOT
BRANCH   1   7
ATOM      7  O   LIG d   1      -0.005  89.486 116.519  0.00  0.00    -0.368 OA
BRANCH   7   8
ATOM      8  C   LIG d   1      -0.289  88.763 117.742  0.00  0.00     0.119 C 
BRANCH   8   9
ATOM      9  C   LIG d   1       0.634  87.529 117.775  0.00  0.00     0.028 C 
ATOM     10  C   LIG d   1       0.918  86.970 116.371  0.00  0.00     0.006 C 
ENDBRANCH   8   9
BRANCH   8  11
ATOM     11  C   LIG d   1      -1.714  88.202 117.739  0.00  0.00     0.028 C 
ATOM     12  C   LIG d   1      -2.253  87.939 119.154  0.00  0.00     0.006 C 
ENDBRANCH   8  11
ENDBRANCH   7   8
ENDBRANCH   1   7
BRANCH   6  13
ATOM     13  N   LIG d   1      -1.519  91.853 117.607  0.00  0.00    -0.311 N 
ATOM     14  C   LIG d   1      -2.521  91.771 118.482  0.00  0.00     0.210 C 
ATOM     15  C   LIG d   1      -3.892  92.181 117.935  0.00  0.00     0.109 C 
ATOM     16  O   LIG d   1      -2.398  91.429 119.667  0.00  0.00    -0.276 OA
ATOM     17  H   LIG d   1      -1.703  92.171 116.676  0.00  0.00     0.149 HD
ENDBRANCH   6  13
BRANCH   5  18
ATOM     18  N   LIG d   1       0.226  93.276 119.671  0.00  0.00     0.381 N 
ATOM     19  H   LIG d   1       0.880  93.954 120.009  0.00  0.00    -0.090 HD
ATOM     20  H   LIG d   1       0.148  92.545 120.355  0.00  0.00    -0.090 HD
ATOM     21  H   LIG d   1      -0.662  93.704 119.528  0.00  0.00    -0.090 HD
ENDBRANCH   5  18
BRANCH   3  22
ATOM     22  C   LIG d   1       4.071  91.653 117.322  0.00  0.00     0.382 C 
ATOM     23  O   LIG d   1       4.769  90.611 117.273  0.00  0.00    -0.241 OA
ATOM     24  O   LIG d   1       4.621  92.765 117.218  0.00  0.00    -0.241 OA
ENDBRANCH   3  22
TORSDOF 7
ENDMDL
MODEL 7
REMARK VINA RESULT:      -4.8      2.304      5.507
REMARK  7 active torsions:
REMARK  status: ('A' for Active; 'I' for Inactive)
REMARK    1  A    between atoms: C_2  and  C_3 
REMARK    2  A    between atoms: C_3  and  O_6 
REMARK    3  A    between atoms: C_3  and  C_4 
REMARK    4  A    between atoms: C_7  and  O_6 
REMARK    5  A    between atoms: C_9  and  C_10 
REMARK    6  A    between atoms: N_15  and  C_14 
REMARK    7  A    between atoms: N_20  and  C_19 
REMARK       I    between atoms: C_22  and  N_20 
ROOT
ATOM      1  C   LIG d   1      -3.933  90.285 117.642  0.00  0.00     0.161 C 
ATOM      2  C   LIG d   1      -4.899  89.873 116.708  0.00  0.00     0.016 C 
ATOM      3  C   LIG d   1      -6.040  90.640 116.379  0.00  0.00     0.038 C 
ATOM      4  C   LIG d   1      -6.216  91.949 116.853  0.00  0.00     0.028 C 
ATOM      5  C   LIG d   1      -5.526  92.207 118.188  0.00  0.00    -0.047 C 
ATOM      6  C   LIG d   1      -4.050  91.758 118.086  0.00  0.00     0.091 C 
ENDROOT
BRANCH   1   7
ATOM      7  O   LIG d   1      -2.613  90.019 117.129  0.00  0.00    -0.368 OA
BRANCH   7   8
ATOM      8  C   LIG d   1      -2.023  88.753 117.512  0.00  0.00     0.119 C 
BRANCH   8   9
ATOM      9  C   LIG d   1      -2.460  88.458 118.960  0.00  0.00     0.028 C 
ATOM     10  C   LIG d   1      -1.378  88.831 119.987  0.00  0.00     0.006 C 
ENDBRANCH   8   9
BRANCH   8  11
ATOM     11  C   LIG d   1      -0.495  88.842 117.560  0.00  0.00     0.028 C 
ATOM     12  C   LIG d   1       0.193  87.723 116.762  0.00  0.00     0.006 C 
ENDBRANCH   8  11
ENDBRANCH   7   8
ENDBRANCH   1   7
BRANCH   6  13
ATOM     13  N   LIG d   1      -3.324  91.898 119.375  0.00  0.00    -0.311 N 
ATOM     14  C   LIG d   1      -2.226  92.637 119.521  0.00  0.00     0.210 C 
ATOM     15  C   LIG d   1      -1.624  92.629 120.930  0.00  0.00     0.109 C 
ATOM     16  O   LIG d   1      -1.711  93.324 118.626  0.00  0.00    -0.276 OA
ATOM     17  H   LIG d   1      -3.692  91.400 120.162  0.00  0.00     0.149 HD
ENDBRANCH   6  13
BRANCH   5  18
ATOM     18  N   LIG d   1      -5.673  93.642 118.495  0.00  0.00     0.381 N 
ATOM     19  H   LIG d   1      -6.412  94.032 117.945  0.00  0.00    -0.090 HD
ATOM     20  H   LIG d   1      -4.819  94.115 118.257  0.00  0.00    -0.090 HD
ATOM     21  H   LIG d   1      -5.871  93.765 119.464  0.00  0.00    -0.090 HD
ENDBRANCH   5  18
BRANCH   3  22
ATOM     22  C   LIG d   1      -7.041  90.082 115.598  0.00  0.00     0.382 C 
ATOM     23  O   LIG d   1      -7.749  89.153 116.055  0.00  0.00    -0.241 OA
ATOM     24  O   LIG d   1      -7.215  90.467 114.426  0.00  0.00    -0.241 OA
ENDBRANCH   3  22
TORSDOF 7
ENDMDL
MODEL 8
REMARK VINA RESULT:      -4.7      2.306      5.110
REMARK  7 active torsions:
REMARK  status: ('A' for Active; 'I' for Inactive)
REMARK    1  A    between atoms: C_2  and  C_3 
REMARK    2  A    between atoms: C_3  and  O_6 
REMARK    3  A    between atoms: C_3  and  C_4 
REMARK    4  A    between atoms: C_7  and  O_6 
REMARK    5  A    between atoms: C_9  and  C_10 
REMARK    6  A    between atoms: N_15  and  C_14 
REMARK    7  A    between atoms: N_20  and  C_19 
REMARK       I    between atoms: C_22  and  N_20 
ROOT
ATOM      1  C   LIG d   1      -5.270  92.574 119.103  0.00  0.00     0.161 C 
ATOM      2  C   LIG d   1      -5.929  92.024 117.991  0.00  0.00     0.016 C 
ATOM      3  C   LIG d   1      -5.352  91.043 117.151  0.00  0.00     0.038 C 
ATOM      4  C   LIG d   1      -4.126  90.433 117.457  0.00  0.00     0.028 C 
ATOM      5  C   LIG d   1      -3.201  91.315 118.288  0.00  0.00    -0.047 C 
ATOM      6  C   LIG d   1      -3.977  91.840 119.517  0.00  0.00     0.091 C 
ENDROOT
BRANCH   1   7
ATOM      7  O   LIG d   1      -6.179  92.656 120.218  0.00  0.00    -0.368 OA
BRANCH   7   8
ATOM      8  C   LIG d   1      -6.652  93.982 120.559  0.00  0.00     0.119 C 
BRANCH   8   9
ATOM      9  C   LIG d   1      -8.163  94.026 120.258  0.00  0.00     0.028 C 
ATOM     10  C   LIG d   1      -8.517  95.065 119.181  0.00  0.00     0.006 C 
ENDBRANCH   8   9
BRANCH   8  11
ATOM     11  C   LIG d   1      -6.028  95.046 119.652  0.00  0.00     0.028 C 
ATOM     12  C   LIG d   1      -5.295  96.144 120.440  0.00  0.00     0.006 C 
ENDBRANCH   8  11
ENDBRANCH   7   8
ENDBRANCH   1   7
BRANCH   6  13
ATOM     13  N   LIG d   1      -3.170  92.780 120.338  0.00  0.00    -0.311 N 
ATOM     14  C   LIG d   1      -2.560  93.853 119.838  0.00  0.00     0.210 C 
ATOM     15  C   LIG d   1      -1.764  94.677 120.855  0.00  0.00     0.109 C 
ATOM     16  O   LIG d   1      -2.630  94.219 118.655  0.00  0.00    -0.276 OA
ATOM     17  H   LIG d   1      -3.086  92.576 121.315  0.00  0.00     0.149 HD
ENDBRANCH   6  13
BRANCH   5  18
ATOM     18  N   LIG d   1      -2.021  90.507 118.650  0.00  0.00     0.381 N 
ATOM     19  H   LIG d   1      -1.414  90.421 117.860  0.00  0.00    -0.090 HD
ATOM     20  H   LIG d   1      -2.327  89.587 118.916  0.00  0.00    -0.090 HD
ATOM     21  H   LIG d   1      -1.535  90.935 119.407  0.00  0.00    -0.090 HD
ENDBRANCH   5  18
BRANCH   3  22
ATOM     22  C   LIG d   1      -5.985  90.693 115.968  0.00  0.00     0.382 C 
ATOM     23  O   LIG d   1      -6.294  89.496 115.753  0.00  0.00    -0.241 OA
ATOM     24  O   LIG d   1      -6.211  91.551 115.094  0.00  0.00    -0.241 OA
ENDBRANCH   3  22
TORSDOF 7
ENDMDL
MODEL 9
REMARK VINA RESULT:      -4.5      6.516      9.399
REMARK  7 active torsions:
REMARK  status: ('A' for Active; 'I' for Inactive)
REMARK    1  A    between atoms: C_2  and  C_3 
REMARK    2  A    between atoms: C_3  and  O_6 
REMARK    3  A    between atoms: C_3  and  C_4 
REMARK    4  A    between atoms: C_7  and  O_6 
REMARK    5  A    between atoms: C_9  and  C_10 
REMARK    6  A    between atoms: N_15  and  C_14 
REMARK    7  A    between atoms: N_20  and  C_19 
REMARK       I    between atoms: C_22  and  N_20 
ROOT
ATOM      1  C   LIG d   1       2.377  89.313 116.546  0.00  0.00     0.161 C 
ATOM      2  C   LIG d   1       1.002  89.032 116.616  0.00  0.00     0.016 C 
ATOM      3  C   LIG d   1       0.086  89.807 117.363  0.00  0.00     0.038 C 
ATOM      4  C   LIG d   1       0.461  91.013 117.974  0.00  0.00     0.028 C 
ATOM      5  C   LIG d   1       1.937  91.068 118.351  0.00  0.00    -0.047 C 
ATOM      6  C   LIG d   1       2.785  90.688 117.116  0.00  0.00     0.091 C 
ENDROOT
BRANCH   1   7
ATOM      7  O   LIG d   1       2.835  89.178 115.187  0.00  0.00    -0.368 OA
BRANCH   7   8
ATOM      8  C   LIG d   1       3.533  87.948 114.869  0.00  0.00     0.119 C 
BRANCH   8   9
ATOM      9  C   LIG d   1       5.041  88.264 114.851  0.00  0.00     0.028 C 
ATOM     10  C   LIG d   1       5.522  88.759 113.477  0.00  0.00     0.006 C 
ENDBRANCH   8   9
BRANCH   8  11
ATOM     11  C   LIG d   1       3.202  87.470 113.452  0.00  0.00     0.028 C 
ATOM     12  C   LIG d   1       2.315  86.215 113.438  0.00  0.00     0.006 C 
ENDBRANCH   8  11
ENDBRANCH   7   8
ENDBRANCH   1   7
BRANCH   6  13
ATOM     13  N   LIG d   1       4.239  90.635 117.420  0.00  0.00    -0.311 N 
ATOM     14  C   LIG d   1       5.045  91.691 117.333  0.00  0.00     0.210 C 
ATOM     15  C   LIG d   1       6.513  91.414 117.672  0.00  0.00     0.109 C 
ATOM     16  O   LIG d   1       4.678  92.838 117.039  0.00  0.00    -0.276 OA
ATOM     17  H   LIG d   1       4.614  89.749 117.698  0.00  0.00     0.149 HD
ENDBRANCH   6  13
BRANCH   5  18
ATOM     18  N   LIG d   1       2.220  92.427 118.850  0.00  0.00     0.381 N 
ATOM     19  H   LIG d   1       3.173  92.487 119.148  0.00  0.00    -0.090 HD
ATOM     20  H   LIG d   1       1.630  92.611 119.643  0.00  0.00    -0.090 HD
ATOM     21  H   LIG d   1       2.044  93.096 118.134  0.00  0.00    -0.090 HD
ENDBRANCH   5  18
BRANCH   3  22
ATOM     22  C   LIG d   1      -1.214  89.356 117.538  0.00  0.00     0.382 C 
ATOM     23  O   LIG d   1      -2.122  90.165 117.847  0.00  0.00    -0.241 OA
ATOM     24  O   LIG d   1      -1.481  88.144 117.434  0.00  0.00    -0.241 OA
ENDBRANCH   3  22
TORSDOF 7
ENDMDL
