MODEL 1
REMARK VINA RESULT:      -5.9      0.000      0.000
REMARK  7 active torsions:
REMARK  status: ('A' for Active; 'I' for Inactive)
REMARK    1  A    between atoms: C_2  and  C_3 
REMARK    2  A    between atoms: C_3  and  O_6 
REMARK    3  A    between atoms: C_3  and  C_4 
REMARK    4  A    between atoms: C_7  and  O_6 
REMARK    5  A    between atoms: C_9  and  C_10 
REMARK    6  A    between atoms: N_15  and  C_14 
REMARK    7  A    between atoms: N_20  and  C_19 
REMARK       I    between atoms: C_22  and  N_20 
ROOT
ATOM      1  C   LIG d   1      -5.804  92.686 117.397  0.00  0.00     0.161 C 
ATOM      2  C   LIG d   1      -6.888  91.897 116.976  0.00  0.00     0.016 C 
ATOM      3  C   LIG d   1      -6.757  90.551 116.564  0.00  0.00     0.038 C 
ATOM      4  C   LIG d   1      -5.547  89.851 116.690  0.00  0.00     0.028 C 
ATOM      5  C   LIG d   1      -4.318  90.752 116.634  0.00  0.00    -0.047 C 
ATOM      6  C   LIG d   1      -4.496  91.907 117.646  0.00  0.00     0.091 C 
ENDROOT
BRANCH   1   7
ATOM      7  O   LIG d   1      -6.173  93.435 118.571  0.00  0.00    -0.368 OA
BRANCH   7   8
ATOM      8  C   LIG d   1      -6.201  94.876 118.425  0.00  0.00     0.119 C 
BRANCH   8   9
ATOM      9  C   LIG d   1      -5.074  95.453 119.304  0.00  0.00     0.028 C 
ATOM     10  C   LIG d   1      -4.802  94.592 120.549  0.00  0.00     0.006 C 
ENDBRANCH   8   9
BRANCH   8  11
ATOM     11  C   LIG d   1      -7.496  95.469 118.987  0.00  0.00     0.028 C 
ATOM     12  C   LIG d   1      -8.747  94.989 118.233  0.00  0.00     0.006 C 
ENDBRANCH   8  11
ENDBRANCH   7   8
ENDBRANCH   1   7
BRANCH   6  13
ATOM     13  N   LIG d   1      -3.376  92.882 117.596  0.00  0.00    -0.311 N 
ATOM     14  C   LIG d   1      -2.318  92.826 118.404  0.00  0.00     0.210 C 
ATOM     15  C   LIG d   1      -1.287  93.940 118.198  0.00  0.00     0.109 C 
ATOM     16  O   LIG d   1      -2.120  91.940 119.249  0.00  0.00    -0.276 OA
ATOM     17  H   LIG d   1      -3.439  93.616 116.918  0.00  0.00     0.149 HD
ENDBRANCH   6  13
BRANCH   5  18
ATOM     18  N   LIG d   1      -3.138  89.913 116.915  0.00  0.00     0.381 N 
ATOM     19  H   LIG d   1      -2.926  89.348 116.117  0.00  0.00    -0.090 HD
ATOM     20  H   LIG d   1      -3.348  89.304 117.686  0.00  0.00    -0.090 HD
ATOM     21  H   LIG d   1      -2.357  90.488 117.141  0.00  0.00    -0.090 HD
ENDBRANCH   5  18
BRANCH   3  22
ATOM     22  C   LIG d   1      -7.835  89.902 115.982  0.00  0.00     0.382 C 
ATOM     23  O   LIG d   1      -8.319  88.879 116.524  0.00  0.00    -0.241 OA
ATOM     24  O   LIG d   1      -8.302  90.300 114.898  0.00  0.00    -0.241 OA
ENDBRANCH   3  22
TORSDOF 7
ENDMDL
MODEL 2
REMARK VINA RESULT:      -5.6      0.901      1.743
REMARK  7 active torsions:
REMARK  status: ('A' for Active; 'I' for Inactive)
REMARK    1  A    between atoms: C_2  and  C_3 
REMARK    2  A    between atoms: C_3  and  O_6 
REMARK    3  A    between atoms: C_3  and  C_4 
REMARK    4  A    between atoms: C_7  and  O_6 
REMARK    5  A    between atoms: C_9  and  C_10 
REMARK    6  A    between atoms: N_15  and  C_14 
REMARK    7  A    between atoms: N_20  and  C_19 
REMARK       I    between atoms: C_22  and  N_20 
ROOT
ATOM      1  C   LIG d   1      -6.078  92.473 118.049  0.00  0.00     0.161 C 
ATOM      2  C   LIG d   1      -7.080  91.670 117.478  0.00  0.00     0.016 C 
ATOM      3  C   LIG d   1      -6.809  90.498 116.735  0.00  0.00     0.038 C 
ATOM      4  C   LIG d   1      -5.515  89.964 116.638  0.00  0.00     0.028 C 
ATOM      5  C   LIG d   1      -4.415  91.012 116.772  0.00  0.00    -0.047 C 
ATOM      6  C   LIG d   1      -4.669  91.845 118.049  0.00  0.00     0.091 C 
ENDROOT
BRANCH   1   7
ATOM      7  O   LIG d   1      -6.458  92.851 119.387  0.00  0.00    -0.368 OA
BRANCH   7   8
ATOM      8  C   LIG d   1      -6.936  94.208 119.554  0.00  0.00     0.119 C 
BRANCH   8   9
ATOM      9  C   LIG d   1      -8.465  94.188 119.363  0.00  0.00     0.028 C 
ATOM     10  C   LIG d   1      -8.972  95.396 118.558  0.00  0.00     0.006 C 
ENDBRANCH   8   9
BRANCH   8  11
ATOM     11  C   LIG d   1      -6.402  95.127 118.451  0.00  0.00     0.028 C 
ATOM     12  C   LIG d   1      -5.343  96.117 118.961  0.00  0.00     0.006 C 
ENDBRANCH   8  11
ENDBRANCH   7   8
ENDBRANCH   1   7
BRANCH   6  13
ATOM     13  N   LIG d   1      -3.685  92.948 118.210  0.00  0.00    -0.311 N 
ATOM     14  C   LIG d   1      -2.977  93.142 119.321  0.00  0.00     0.210 C 
ATOM     15  C   LIG d   1      -2.034  94.349 119.285  0.00  0.00     0.109 C 
ATOM     16  O   LIG d   1      -3.015  92.409 120.321  0.00  0.00    -0.276 OA
ATOM     17  H   LIG d   1      -3.568  93.571 117.436  0.00  0.00     0.149 HD
ENDBRANCH   6  13
BRANCH   5  18
ATOM     18  N   LIG d   1      -3.123  90.302 116.792  0.00  0.00     0.381 N 
ATOM     19  H   LIG d   1      -2.495  90.723 116.137  0.00  0.00    -0.090 HD
ATOM     20  H   LIG d   1      -3.272  89.347 116.516  0.00  0.00    -0.090 HD
ATOM     21  H   LIG d   1      -2.730  90.333 117.707  0.00  0.00    -0.090 HD
ENDBRANCH   5  18
BRANCH   3  22
ATOM     22  C   LIG d   1      -7.834  89.870 116.043  0.00  0.00     0.382 C 
ATOM     23  O   LIG d   1      -8.364  88.835 116.513  0.00  0.00    -0.241 OA
ATOM     24  O   LIG d   1      -8.204  90.301 114.935  0.00  0.00    -0.241 OA
ENDBRANCH   3  22
TORSDOF 7
ENDMDL
MODEL 3
REMARK VINA RESULT:      -5.3      1.917      4.839
REMARK  7 active torsions:
REMARK  status: ('A' for Active; 'I' for Inactive)
REMARK    1  A    between atoms: C_2  and  C_3 
REMARK    2  A    between atoms: C_3  and  O_6 
REMARK    3  A    between atoms: C_3  and  C_4 
REMARK    4  A    between atoms: C_7  and  O_6 
REMARK    5  A    between atoms: C_9  and  C_10 
REMARK    6  A    between atoms: N_15  and  C_14 
REMARK    7  A    between atoms: N_20  and  C_19 
REMARK       I    between atoms: C_22  and  N_20 
ROOT
ATOM      1  C   LIG d   1      -6.333  92.161 119.013  0.00  0.00     0.161 C 
ATOM      2  C   LIG d   1      -7.570  92.814 118.885  0.00  0.00     0.016 C 
ATOM      3  C   LIG d   1      -7.698  94.213 118.720  0.00  0.00     0.038 C 
ATOM      4  C   LIG d   1      -6.583  95.040 118.520  0.00  0.00     0.028 C 
ATOM      5  C   LIG d   1      -5.303  94.495 119.145  0.00  0.00    -0.047 C 
ATOM      6  C   LIG d   1      -5.104  93.033 118.686  0.00  0.00     0.091 C 
ENDROOT
BRANCH   1   7
ATOM      7  O   LIG d   1      -6.328  90.964 118.209  0.00  0.00    -0.368 OA
BRANCH   7   8
ATOM      8  C   LIG d   1      -6.627  91.140 116.803  0.00  0.00     0.119 C 
BRANCH   8   9
ATOM      9  C   LIG d   1      -7.564  89.992 116.381  0.00  0.00     0.028 C 
ATOM     10  C   LIG d   1      -7.833  89.979 114.867  0.00  0.00     0.006 C 
ENDBRANCH   8   9
BRANCH   8  11
ATOM     11  C   LIG d   1      -5.371  90.976 115.941  0.00  0.00     0.028 C 
ATOM     12  C   LIG d   1      -4.431  89.877 116.461  0.00  0.00     0.006 C 
ENDBRANCH   8  11
ENDBRANCH   7   8
ENDBRANCH   1   7
BRANCH   6  13
ATOM     13  N   LIG d   1      -3.919  92.396 119.319  0.00  0.00    -0.311 N 
ATOM     14  C   LIG d   1      -2.728  92.313 118.728  0.00  0.00     0.210 C 
ATOM     15  C   LIG d   1      -1.649  91.599 119.547  0.00  0.00     0.109 C 
ATOM     16  O   LIG d   1      -2.455  92.790 117.616  0.00  0.00    -0.276 OA
ATOM     17  H   LIG d   1      -4.043  92.011 120.234  0.00  0.00     0.149 HD
ENDBRANCH   6  13
BRANCH   5  18
ATOM     18  N   LIG d   1      -4.197  95.384 118.743  0.00  0.00     0.381 N 
ATOM     19  H   LIG d   1      -4.564  96.211 118.317  0.00  0.00    -0.090 HD
ATOM     20  H   LIG d   1      -3.627  94.908 118.067  0.00  0.00    -0.090 HD
ATOM     21  H   LIG d   1      -3.648  95.627 119.539  0.00  0.00    -0.090 HD
ENDBRANCH   5  18
BRANCH   3  22
ATOM     22  C   LIG d   1      -8.950  94.802 118.795  0.00  0.00     0.382 C 
ATOM     23  O   LIG d   1      -9.083  96.026 118.551  0.00  0.00    -0.241 OA
ATOM     24  O   LIG d   1      -9.942  94.136 119.147  0.00  0.00    -0.241 OA
ENDBRANCH   3  22
TORSDOF 7
ENDMDL
MODEL 4
REMARK VINA RESULT:      -5.3      2.090      5.004
REMARK  7 active torsions:
REMARK  status: ('A' for Active; 'I' for Inactive)
REMARK    1  A    between atoms: C_2  and  C_3 
REMARK    2  A    between atoms: C_3  and  O_6 
REMARK    3  A    between atoms: C_3  and  C_4 
REMARK    4  A    between atoms: C_7  and  O_6 
REMARK    5  A    between atoms: C_9  and  C_10 
REMARK    6  A    between atoms: N_15  and  C_14 
REMARK    7  A    between atoms: N_20  and  C_19 
REMARK       I    between atoms: C_22  and  N_20 
ROOT
ATOM      1  C   LIG d   1      -6.739  91.028 118.319  0.00  0.00     0.161 C 
ATOM      2  C   LIG d   1      -7.496  92.195 118.122  0.00  0.00     0.016 C 
ATOM      3  C   LIG d   1      -7.007  93.494 118.389  0.00  0.00     0.038 C 
ATOM      4  C   LIG d   1      -5.666  93.727 118.730  0.00  0.00     0.028 C 
ATOM      5  C   LIG d   1      -5.005  92.543 119.428  0.00  0.00    -0.047 C 
ATOM      6  C   LIG d   1      -5.238  91.269 118.584  0.00  0.00     0.091 C 
ENDROOT
BRANCH   1   7
ATOM      7  O   LIG d   1      -6.913  90.138 117.199  0.00  0.00    -0.368 OA
BRANCH   7   8
ATOM      8  C   LIG d   1      -6.983  90.762 115.894  0.00  0.00     0.119 C 
BRANCH   8   9
ATOM      9  C   LIG d   1      -8.019  89.980 115.062  0.00  0.00     0.028 C 
ATOM     10  C   LIG d   1      -8.913  89.082 115.933  0.00  0.00     0.006 C 
ENDBRANCH   8   9
BRANCH   8  11
ATOM     11  C   LIG d   1      -5.661  90.616 115.135  0.00  0.00     0.028 C 
ATOM     12  C   LIG d   1      -4.932  89.302 115.455  0.00  0.00     0.006 C 
ENDBRANCH   8  11
ENDBRANCH   7   8
ENDBRANCH   1   7
BRANCH   6  13
ATOM     13  N   LIG d   1      -4.696  90.049 119.238  0.00  0.00    -0.311 N 
ATOM     14  C   LIG d   1      -3.501  89.534 118.953  0.00  0.00     0.210 C 
ATOM     15  C   LIG d   1      -3.144  88.262 119.728  0.00  0.00     0.109 C 
ATOM     16  O   LIG d   1      -2.689  90.029 118.156  0.00  0.00    -0.276 OA
ATOM     17  H   LIG d   1      -5.275  89.602 119.921  0.00  0.00     0.149 HD
ENDBRANCH   6  13
BRANCH   5  18
ATOM     18  N   LIG d   1      -3.577  92.869 119.601  0.00  0.00     0.381 N 
ATOM     19  H   LIG d   1      -3.207  92.366 120.383  0.00  0.00    -0.090 HD
ATOM     20  H   LIG d   1      -3.488  93.852 119.789  0.00  0.00    -0.090 HD
ATOM     21  H   LIG d   1      -3.071  92.634 118.776  0.00  0.00    -0.090 HD
ENDBRANCH   5  18
BRANCH   3  22
ATOM     22  C   LIG d   1      -7.875  94.576 118.354  0.00  0.00     0.382 C 
ATOM     23  O   LIG d   1      -7.478  95.709 118.717  0.00  0.00    -0.241 OA
ATOM     24  O   LIG d   1      -9.061  94.423 118.006  0.00  0.00    -0.241 OA
ENDBRANCH   3  22
TORSDOF 7
ENDMDL
MODEL 5
REMARK VINA RESULT:      -5.2      2.225      4.596
REMARK  7 active torsions:
REMARK  status: ('A' for Active; 'I' for Inactive)
REMARK    1  A    between atoms: C_2  and  C_3 
REMARK    2  A    between atoms: C_3  and  O_6 
REMARK    3  A    between atoms: C_3  and  C_4 
REMARK    4  A    between atoms: C_7  and  O_6 
REMARK    5  A    between atoms: C_9  and  C_10 
REMARK    6  A    between atoms: N_15  and  C_14 
REMARK    7  A    between atoms: N_20  and  C_19 
REMARK       I    between atoms: C_22  and  N_20 
ROOT
ATOM      1  C   LIG d   1      -4.416  90.435 117.688  0.00  0.00     0.161 C 
ATOM      2  C   LIG d   1      -5.476  89.890 116.945  0.00  0.00     0.016 C 
ATOM      3  C   LIG d   1      -6.593  90.643 116.515  0.00  0.00     0.038 C 
ATOM      4  C   LIG d   1      -6.652  92.036 116.670  0.00  0.00     0.028 C 
ATOM      5  C   LIG d   1      -5.842  92.548 117.857  0.00  0.00    -0.047 C 
ATOM      6  C   LIG d   1      -4.409  91.976 117.770  0.00  0.00     0.091 C 
ENDROOT
BRANCH   1   7
ATOM      7  O   LIG d   1      -3.159  89.955 117.169  0.00  0.00    -0.368 OA
BRANCH   7   8
ATOM      8  C   LIG d   1      -2.487  88.945 117.961  0.00  0.00     0.119 C 
BRANCH   8   9
ATOM      9  C   LIG d   1      -3.310  88.743 119.248  0.00  0.00     0.028 C 
ATOM     10  C   LIG d   1      -2.925  87.454 119.993  0.00  0.00     0.006 C 
ENDBRANCH   8   9
BRANCH   8  11
ATOM     11  C   LIG d   1      -1.112  89.429 118.430  0.00  0.00     0.028 C 
ATOM     12  C   LIG d   1      -0.254  89.988 117.284  0.00  0.00     0.006 C 
ENDBRANCH   8  11
ENDBRANCH   7   8
ENDBRANCH   1   7
BRANCH   6  13
ATOM     13  N   LIG d   1      -3.574  92.360 118.938  0.00  0.00    -0.311 N 
ATOM     14  C   LIG d   1      -2.363  92.902 118.827  0.00  0.00     0.210 C 
ATOM     15  C   LIG d   1      -1.665  93.204 120.157  0.00  0.00     0.109 C 
ATOM     16  O   LIG d   1      -1.814  93.192 117.754  0.00  0.00    -0.276 OA
ATOM     17  H   LIG d   1      -3.956  92.188 119.848  0.00  0.00     0.149 HD
ENDBRANCH   6  13
BRANCH   5  18
ATOM     18  N   LIG d   1      -5.879  94.022 117.818  0.00  0.00     0.381 N 
ATOM     19  H   LIG d   1      -6.587  94.327 117.180  0.00  0.00    -0.090 HD
ATOM     20  H   LIG d   1      -4.992  94.362 117.490  0.00  0.00    -0.090 HD
ATOM     21  H   LIG d   1      -6.065  94.383 118.729  0.00  0.00    -0.090 HD
ENDBRANCH   5  18
BRANCH   3  22
ATOM     22  C   LIG d   1      -7.685  89.996 115.957  0.00  0.00     0.382 C 
ATOM     23  O   LIG d   1      -8.226  90.457 114.923  0.00  0.00    -0.241 OA
ATOM     24  O   LIG d   1      -8.163  88.982 116.500  0.00  0.00    -0.241 OA
ENDBRANCH   3  22
TORSDOF 7
ENDMDL
MODEL 6
REMARK VINA RESULT:      -5.1      1.953      4.378
REMARK  7 active torsions:
REMARK  status: ('A' for Active; 'I' for Inactive)
REMARK    1  A    between atoms: C_2  and  C_3 
REMARK    2  A    between atoms: C_3  and  O_6 
REMARK    3  A    between atoms: C_3  and  C_4 
REMARK    4  A    between atoms: C_7  and  O_6 
REMARK    5  A    between atoms: C_9  and  C_10 
REMARK    6  A    between atoms: N_15  and  C_14 
REMARK    7  A    between atoms: N_20  and  C_19 
REMARK       I    between atoms: C_22  and  N_20 
ROOT
ATOM      1  C   LIG d   1      -4.374  91.830 117.758  0.00  0.00     0.161 C 
ATOM      2  C   LIG d   1      -4.603  90.889 116.740  0.00  0.00     0.016 C 
ATOM      3  C   LIG d   1      -5.815  90.804 116.018  0.00  0.00     0.038 C 
ATOM      4  C   LIG d   1      -6.833  91.758 116.162  0.00  0.00     0.028 C 
ATOM      5  C   LIG d   1      -6.849  92.424 117.534  0.00  0.00    -0.047 C 
ATOM      6  C   LIG d   1      -5.431  92.950 117.853  0.00  0.00     0.091 C 
ENDROOT
BRANCH   1   7
ATOM      7  O   LIG d   1      -3.056  92.396 117.613  0.00  0.00    -0.368 OA
BRANCH   7   8
ATOM      8  C   LIG d   1      -2.066  91.961 118.577  0.00  0.00     0.119 C 
BRANCH   8   9
ATOM      9  C   LIG d   1      -1.753  93.159 119.493  0.00  0.00     0.028 C 
ATOM     10  C   LIG d   1      -1.817  94.502 118.746  0.00  0.00     0.006 C 
ENDBRANCH   8   9
BRANCH   8  11
ATOM     11  C   LIG d   1      -0.739  91.615 117.895  0.00  0.00     0.028 C 
ATOM     12  C   LIG d   1      -0.266  90.185 118.202  0.00  0.00     0.006 C 
ENDBRANCH   8  11
ENDBRANCH   7   8
ENDBRANCH   1   7
BRANCH   6  13
ATOM     13  N   LIG d   1      -5.339  93.542 119.213  0.00  0.00    -0.311 N 
ATOM     14  C   LIG d   1      -5.499  94.841 119.460  0.00  0.00     0.210 C 
ATOM     15  C   LIG d   1      -5.343  95.243 120.930  0.00  0.00     0.109 C 
ATOM     16  O   LIG d   1      -5.787  95.693 118.606  0.00  0.00    -0.276 OA
ATOM     17  H   LIG d   1      -5.139  92.917 119.970  0.00  0.00     0.149 HD
ENDBRANCH   6  13
BRANCH   5  18
ATOM     18  N   LIG d   1      -7.868  93.490 117.500  0.00  0.00     0.381 N 
ATOM     19  H   LIG d   1      -8.495  93.384 118.271  0.00  0.00    -0.090 HD
ATOM     20  H   LIG d   1      -8.396  93.408 116.649  0.00  0.00    -0.090 HD
ATOM     21  H   LIG d   1      -7.428  94.383 117.541  0.00  0.00    -0.090 HD
ENDBRANCH   5  18
BRANCH   3  22
ATOM     22  C   LIG d   1      -6.034  89.731 115.167  0.00  0.00     0.382 C 
ATOM     23  O   LIG d   1      -7.152  89.585 114.616  0.00  0.00    -0.241 OA
ATOM     24  O   LIG d   1      -5.142  88.882 114.979  0.00  0.00    -0.241 OA
ENDBRANCH   3  22
TORSDOF 7
ENDMDL
MODEL 7
REMARK VINA RESULT:      -4.8      2.429      5.107
REMARK  7 active torsions:
REMARK  status: ('A' for Active; 'I' for Inactive)
REMARK    1  A    between atoms: C_2  and  C_3 
REMARK    2  A    between atoms: C_3  and  O_6 
REMARK    3  A    between atoms: C_3  and  C_4 
REMARK    4  A    between atoms: C_7  and  O_6 
REMARK    5  A    between atoms: C_9  and  C_10 
REMARK    6  A    between atoms: N_15  and  C_14 
REMARK    7  A    between atoms: N_20  and  C_19 
REMARK       I    between atoms: C_22  and  N_20 
ROOT
ATOM      1  C   LIG d   1      -7.186  93.316 118.332  0.00  0.00     0.161 C 
ATOM      2  C   LIG d   1      -8.515  93.404 118.781  0.00  0.00     0.016 C 
ATOM      3  C   LIG d   1      -9.043  94.546 119.425  0.00  0.00     0.038 C 
ATOM      4  C   LIG d   1      -8.317  95.742 119.530  0.00  0.00     0.028 C 
ATOM      5  C   LIG d   1      -6.806  95.534 119.543  0.00  0.00    -0.047 C 
ATOM      6  C   LIG d   1      -6.411  94.650 118.337  0.00  0.00     0.091 C 
ENDROOT
BRANCH   1   7
ATOM      7  O   LIG d   1      -7.153  92.723 117.019  0.00  0.00    -0.368 OA
BRANCH   7   8
ATOM      8  C   LIG d   1      -6.589  91.391 116.935  0.00  0.00     0.119 C 
BRANCH   8   9
ATOM      9  C   LIG d   1      -5.164  91.527 116.366  0.00  0.00     0.028 C 
ATOM     10  C   LIG d   1      -4.172  90.556 117.028  0.00  0.00     0.006 C 
ENDBRANCH   8   9
BRANCH   8  11
ATOM     11  C   LIG d   1      -7.348  90.526 115.924  0.00  0.00     0.028 C 
ATOM     12  C   LIG d   1      -8.234  89.464 116.595  0.00  0.00     0.006 C 
ENDBRANCH   8  11
ENDBRANCH   7   8
ENDBRANCH   1   7
BRANCH   6  13
ATOM     13  N   LIG d   1      -4.961  94.328 118.322  0.00  0.00    -0.311 N 
ATOM     14  C   LIG d   1      -4.348  93.658 119.297  0.00  0.00     0.210 C 
ATOM     15  C   LIG d   1      -2.844  93.450 119.093  0.00  0.00     0.109 C 
ATOM     16  O   LIG d   1      -4.914  93.189 120.296  0.00  0.00    -0.276 OA
ATOM     17  H   LIG d   1      -4.431  94.643 117.533  0.00  0.00     0.149 HD
ENDBRANCH   6  13
BRANCH   5  18
ATOM     18  N   LIG d   1      -6.173  96.865 119.516  0.00  0.00     0.381 N 
ATOM     19  H   LIG d   1      -6.820  97.542 119.164  0.00  0.00    -0.090 HD
ATOM     20  H   LIG d   1      -5.381  96.836 118.898  0.00  0.00    -0.090 HD
ATOM     21  H   LIG d   1      -5.879  97.122 120.432  0.00  0.00    -0.090 HD
ENDBRANCH   5  18
BRANCH   3  22
ATOM     22  C   LIG d   1     -10.300  94.486 120.009  0.00  0.00     0.382 C 
ATOM     23  O   LIG d   1     -10.889  95.543 120.339  0.00  0.00    -0.241 OA
ATOM     24  O   LIG d   1     -10.832  93.386 120.251  0.00  0.00    -0.241 OA
ENDBRANCH   3  22
TORSDOF 7
ENDMDL
MODEL 8
REMARK VINA RESULT:      -4.3      2.150      5.077
REMARK  7 active torsions:
REMARK  status: ('A' for Active; 'I' for Inactive)
REMARK    1  A    between atoms: C_2  and  C_3 
REMARK    2  A    between atoms: C_3  and  O_6 
REMARK    3  A    between atoms: C_3  and  C_4 
REMARK    4  A    between atoms: C_7  and  O_6 
REMARK    5  A    between atoms: C_9  and  C_10 
REMARK    6  A    between atoms: N_15  and  C_14 
REMARK    7  A    between atoms: N_20  and  C_19 
REMARK       I    between atoms: C_22  and  N_20 
ROOT
ATOM      1  C   LIG d   1      -4.500  91.382 117.698  0.00  0.00     0.161 C 
ATOM      2  C   LIG d   1      -3.576  90.336 117.546  0.00  0.00     0.016 C 
ATOM      3  C   LIG d   1      -2.276  90.359 118.102  0.00  0.00     0.038 C 
ATOM      4  C   LIG d   1      -1.863  91.372 118.981  0.00  0.00     0.028 C 
ATOM      5  C   LIG d   1      -2.583  92.698 118.757  0.00  0.00    -0.047 C 
ATOM      6  C   LIG d   1      -4.108  92.445 118.745  0.00  0.00     0.091 C 
ENDROOT
BRANCH   1   7
ATOM      7  O   LIG d   1      -5.804  90.843 117.995  0.00  0.00    -0.368 OA
BRANCH   7   8
ATOM      8  C   LIG d   1      -6.831  91.074 116.999  0.00  0.00     0.119 C 
BRANCH   8   9
ATOM      9  C   LIG d   1      -7.080  89.737 116.274  0.00  0.00     0.028 C 
ATOM     10  C   LIG d   1      -8.535  89.257 116.412  0.00  0.00     0.006 C 
ENDBRANCH   8   9
BRANCH   8  11
ATOM     11  C   LIG d   1      -6.348  92.040 115.914  0.00  0.00     0.028 C 
ATOM     12  C   LIG d   1      -6.351  91.411 114.511  0.00  0.00     0.006 C 
ENDBRANCH   8  11
ENDBRANCH   7   8
ENDBRANCH   1   7
BRANCH   6  13
ATOM     13  N   LIG d   1      -4.884  93.677 118.448  0.00  0.00    -0.311 N 
ATOM     14  C   LIG d   1      -5.964  94.046 119.134  0.00  0.00     0.210 C 
ATOM     15  C   LIG d   1      -6.627  95.340 118.650  0.00  0.00     0.109 C 
ATOM     16  O   LIG d   1      -6.418  93.442 120.117  0.00  0.00    -0.276 OA
ATOM     17  H   LIG d   1      -4.567  94.243 117.686  0.00  0.00     0.149 HD
ENDBRANCH   6  13
BRANCH   5  18
ATOM     18  N   LIG d   1      -2.158  93.621 119.827  0.00  0.00     0.381 N 
ATOM     19  H   LIG d   1      -2.741  93.500 120.630  0.00  0.00    -0.090 HD
ATOM     20  H   LIG d   1      -2.263  94.566 119.501  0.00  0.00    -0.090 HD
ATOM     21  H   LIG d   1      -1.207  93.448 120.068  0.00  0.00    -0.090 HD
ENDBRANCH   5  18
BRANCH   3  22
ATOM     22  C   LIG d   1      -1.359  89.381 117.748  0.00  0.00     0.382 C 
ATOM     23  O   LIG d   1      -1.542  88.192 118.104  0.00  0.00    -0.241 OA
ATOM     24  O   LIG d   1      -0.329  89.679 117.115  0.00  0.00    -0.241 OA
ENDBRANCH   3  22
TORSDOF 7
ENDMDL
MODEL 9
REMARK VINA RESULT:      -4.3      2.536      4.913
REMARK  7 active torsions:
REMARK  status: ('A' for Active; 'I' for Inactive)
REMARK    1  A    between atoms: C_2  and  C_3 
REMARK    2  A    between atoms: C_3  and  O_6 
REMARK    3  A    between atoms: C_3  and  C_4 
REMARK    4  A    between atoms: C_7  and  O_6 
REMARK    5  A    between atoms: C_9  and  C_10 
REMARK    6  A    between atoms: N_15  and  C_14 
REMARK    7  A    between atoms: N_20  and  C_19 
REMARK       I    between atoms: C_22  and  N_20 
ROOT
ATOM      1  C   LIG d   1      -3.294  90.963 118.168  0.00  0.00     0.161 C 
ATOM      2  C   LIG d   1      -4.039  90.155 117.293  0.00  0.00     0.016 C 
ATOM      3  C   LIG d   1      -5.229  90.583 116.662  0.00  0.00     0.038 C 
ATOM      4  C   LIG d   1      -5.676  91.910 116.745  0.00  0.00     0.028 C 
ATOM      5  C   LIG d   1      -5.233  92.620 118.020  0.00  0.00    -0.047 C 
ATOM      6  C   LIG d   1      -3.705  92.450 118.184  0.00  0.00     0.091 C 
ENDROOT
BRANCH   1   7
ATOM      7  O   LIG d   1      -1.889  90.835 117.873  0.00  0.00    -0.368 OA
BRANCH   7   8
ATOM      8  C   LIG d   1      -1.072  90.238 118.910  0.00  0.00     0.119 C 
BRANCH   8   9
ATOM      9  C   LIG d   1       0.381  90.695 118.675  0.00  0.00     0.028 C 
ATOM     10  C   LIG d   1       0.764  91.904 119.545  0.00  0.00     0.006 C 
ENDBRANCH   8   9
BRANCH   8  11
ATOM     11  C   LIG d   1      -1.041  88.712 118.786  0.00  0.00     0.028 C 
ATOM     12  C   LIG d   1       0.329  88.112 119.139  0.00  0.00     0.006 C 
ENDBRANCH   8  11
ENDBRANCH   7   8
ENDBRANCH   1   7
BRANCH   6  13
ATOM     13  N   LIG d   1      -3.201  93.042 119.450  0.00  0.00    -0.311 N 
ATOM     14  C   LIG d   1      -2.301  94.023 119.493  0.00  0.00     0.210 C 
ATOM     15  C   LIG d   1      -1.904  94.475 120.902  0.00  0.00     0.109 C 
ATOM     16  O   LIG d   1      -1.818  94.584 118.498  0.00  0.00    -0.276 OA
ATOM     17  H   LIG d   1      -3.564  92.668 120.305  0.00  0.00     0.149 HD
ENDBRANCH   6  13
BRANCH   5  18
ATOM     18  N   LIG d   1      -5.649  94.031 117.913  0.00  0.00     0.381 N 
ATOM     19  H   LIG d   1      -5.501  94.495 118.786  0.00  0.00    -0.090 HD
ATOM     20  H   LIG d   1      -6.631  94.065 117.701  0.00  0.00    -0.090 HD
ATOM     21  H   LIG d   1      -5.131  94.486 117.194  0.00  0.00    -0.090 HD
ENDBRANCH   5  18
BRANCH   3  22
ATOM     22  C   LIG d   1      -6.008  89.668 115.969  0.00  0.00     0.382 C 
ATOM     23  O   LIG d   1      -5.591  89.181 114.891  0.00  0.00    -0.241 OA
ATOM     24  O   LIG d   1      -7.140  89.358 116.386  0.00  0.00    -0.241 OA
ENDBRANCH   3  22
TORSDOF 7
ENDMDL
