MODEL 1
REMARK VINA RESULT:      -6.0      0.000      0.000
REMARK  7 active torsions:
REMARK  status: ('A' for Active; 'I' for Inactive)
REMARK    1  A    between atoms: C_2  and  C_3 
REMARK    2  A    between atoms: C_3  and  O_6 
REMARK    3  A    between atoms: C_3  and  C_4 
REMARK    4  A    between atoms: C_7  and  O_6 
REMARK    5  A    between atoms: C_9  and  C_10 
REMARK    6  A    between atoms: N_15  and  C_14 
REMARK    7  A    between atoms: N_20  and  C_19 
REMARK       I    between atoms: C_22  and  N_20 
ROOT
ATOM      1  C   LIG d   1      -4.593  91.077 116.772  0.00  0.00     0.161 C 
ATOM      2  C   LIG d   1      -3.450  90.264 116.694  0.00  0.00     0.016 C 
ATOM      3  C   LIG d   1      -2.261  90.522 117.416  0.00  0.00     0.038 C 
ATOM      4  C   LIG d   1      -2.187  91.533 118.386  0.00  0.00     0.028 C 
ATOM      5  C   LIG d   1      -3.149  92.689 118.131  0.00  0.00    -0.047 C 
ATOM      6  C   LIG d   1      -4.569  92.120 117.909  0.00  0.00     0.091 C 
ENDROOT
BRANCH   1   7
ATOM      7  O   LIG d   1      -5.772  90.253 116.872  0.00  0.00    -0.368 OA
BRANCH   7   8
ATOM      8  C   LIG d   1      -6.509  90.043 115.642  0.00  0.00     0.119 C 
BRANCH   8   9
ATOM      9  C   LIG d   1      -6.072  91.137 114.648  0.00  0.00     0.028 C 
ATOM     10  C   LIG d   1      -7.176  92.180 114.402  0.00  0.00     0.006 C 
ENDBRANCH   8   9
BRANCH   8  11
ATOM     11  C   LIG d   1      -8.011  90.259 115.849  0.00  0.00     0.028 C 
ATOM     12  C   LIG d   1      -8.705  89.044 116.485  0.00  0.00     0.006 C 
ENDBRANCH   8  11
ENDBRANCH   7   8
ENDBRANCH   1   7
BRANCH   6  13
ATOM     13  N   LIG d   1      -5.557  93.177 117.570  0.00  0.00    -0.311 N 
ATOM     14  C   LIG d   1      -6.780  93.233 118.093  0.00  0.00     0.210 C 
ATOM     15  C   LIG d   1      -7.646  94.394 117.593  0.00  0.00     0.109 C 
ATOM     16  O   LIG d   1      -7.220  92.450 118.949  0.00  0.00    -0.276 OA
ATOM     17  H   LIG d   1      -5.272  93.871 116.907  0.00  0.00     0.149 HD
ENDBRANCH   6  13
BRANCH   5  18
ATOM     18  N   LIG d   1      -3.066  93.601 119.287  0.00  0.00     0.381 N 
ATOM     19  H   LIG d   1      -2.109  93.735 119.545  0.00  0.00    -0.090 HD
ATOM     20  H   LIG d   1      -3.547  93.184 120.065  0.00  0.00    -0.090 HD
ATOM     21  H   LIG d   1      -3.482  94.477 119.061  0.00  0.00    -0.090 HD
ENDBRANCH   5  18
BRANCH   3  22
ATOM     22  C   LIG d   1      -1.117  89.789 117.140  0.00  0.00     0.382 C 
ATOM     23  O   LIG d   1      -1.118  88.544 117.295  0.00  0.00    -0.241 OA
ATOM     24  O   LIG d   1      -0.071  90.362 116.781  0.00  0.00    -0.241 OA
ENDBRANCH   3  22
TORSDOF 7
ENDMDL
MODEL 2
REMARK VINA RESULT:      -5.5      2.356      6.149
REMARK  7 active torsions:
REMARK  status: ('A' for Active; 'I' for Inactive)
REMARK    1  A    between atoms: C_2  and  C_3 
REMARK    2  A    between atoms: C_3  and  O_6 
REMARK    3  A    between atoms: C_3  and  C_4 
REMARK    4  A    between atoms: C_7  and  O_6 
REMARK    5  A    between atoms: C_9  and  C_10 
REMARK    6  A    between atoms: N_15  and  C_14 
REMARK    7  A    between atoms: N_20  and  C_19 
REMARK       I    between atoms: C_22  and  N_20 
ROOT
ATOM      1  C   LIG d   1      -4.113  91.717 117.434  0.00  0.00     0.161 C 
ATOM      2  C   LIG d   1      -5.365  92.325 117.239  0.00  0.00     0.016 C 
ATOM      3  C   LIG d   1      -6.311  91.871 116.291  0.00  0.00     0.038 C 
ATOM      4  C   LIG d   1      -6.129  90.678 115.575  0.00  0.00     0.028 C 
ATOM      5  C   LIG d   1      -4.663  90.310 115.373  0.00  0.00    -0.047 C 
ATOM      6  C   LIG d   1      -3.943  90.350 116.740  0.00  0.00     0.091 C 
ENDROOT
BRANCH   1   7
ATOM      7  O   LIG d   1      -3.841  91.601 118.845  0.00  0.00    -0.368 OA
BRANCH   7   8
ATOM      8  C   LIG d   1      -2.784  92.446 119.362  0.00  0.00     0.119 C 
BRANCH   8   9
ATOM      9  C   LIG d   1      -3.439  93.501 120.274  0.00  0.00     0.028 C 
ATOM     10  C   LIG d   1      -3.702  94.828 119.541  0.00  0.00     0.006 C 
ENDBRANCH   8   9
BRANCH   8  11
ATOM     11  C   LIG d   1      -2.108  93.242 118.241  0.00  0.00     0.028 C 
ATOM     12  C   LIG d   1      -0.616  92.907 118.089  0.00  0.00     0.006 C 
ENDBRANCH   8  11
ENDBRANCH   7   8
ENDBRANCH   1   7
BRANCH   6  13
ATOM     13  N   LIG d   1      -2.486  90.084 116.621  0.00  0.00    -0.311 N 
ATOM     14  C   LIG d   1      -1.829  89.233 117.408  0.00  0.00     0.210 C 
ATOM     15  C   LIG d   1      -0.326  89.123 117.129  0.00  0.00     0.109 C 
ATOM     16  O   LIG d   1      -2.353  88.536 118.289  0.00  0.00    -0.276 OA
ATOM     17  H   LIG d   1      -1.987  90.585 115.912  0.00  0.00     0.149 HD
ENDBRANCH   6  13
BRANCH   5  18
ATOM     18  N   LIG d   1      -4.621  88.981 114.735  0.00  0.00     0.381 N 
ATOM     19  H   LIG d   1      -5.524  88.751 114.371  0.00  0.00    -0.090 HD
ATOM     20  H   LIG d   1      -4.376  88.296 115.428  0.00  0.00    -0.090 HD
ATOM     21  H   LIG d   1      -3.947  88.976 114.001  0.00  0.00    -0.090 HD
ENDBRANCH   5  18
BRANCH   3  22
ATOM     22  C   LIG d   1      -7.437  92.634 116.023  0.00  0.00     0.382 C 
ATOM     23  O   LIG d   1      -7.755  93.573 116.793  0.00  0.00    -0.241 OA
ATOM     24  O   LIG d   1      -8.163  92.369 115.047  0.00  0.00    -0.241 OA
ENDBRANCH   3  22
TORSDOF 7
ENDMDL
MODEL 3
REMARK VINA RESULT:      -5.4      2.681      4.937
REMARK  7 active torsions:
REMARK  status: ('A' for Active; 'I' for Inactive)
REMARK    1  A    between atoms: C_2  and  C_3 
REMARK    2  A    between atoms: C_3  and  O_6 
REMARK    3  A    between atoms: C_3  and  C_4 
REMARK    4  A    between atoms: C_7  and  O_6 
REMARK    5  A    between atoms: C_9  and  C_10 
REMARK    6  A    between atoms: N_15  and  C_14 
REMARK    7  A    between atoms: N_20  and  C_19 
REMARK       I    between atoms: C_22  and  N_20 
ROOT
ATOM      1  C   LIG d   1      -6.543  92.538 118.442  0.00  0.00     0.161 C 
ATOM      2  C   LIG d   1      -5.424  93.301 118.818  0.00  0.00     0.016 C 
ATOM      3  C   LIG d   1      -4.127  93.087 118.298  0.00  0.00     0.038 C 
ATOM      4  C   LIG d   1      -3.887  92.189 117.248  0.00  0.00     0.028 C 
ATOM      5  C   LIG d   1      -4.891  91.042 117.191  0.00  0.00    -0.047 C 
ATOM      6  C   LIG d   1      -6.322  91.627 117.216  0.00  0.00     0.091 C 
ENDROOT
BRANCH   1   7
ATOM      7  O   LIG d   1      -7.675  93.403 118.226  0.00  0.00    -0.368 OA
BRANCH   7   8
ATOM      8  C   LIG d   1      -7.661  94.662 118.943  0.00  0.00     0.119 C 
BRANCH   8   9
ATOM      9  C   LIG d   1      -8.640  94.531 120.126  0.00  0.00     0.028 C 
ATOM     10  C   LIG d   1     -10.042  95.066 119.789  0.00  0.00     0.006 C 
ENDBRANCH   8   9
BRANCH   8  11
ATOM     11  C   LIG d   1      -8.215  95.800 118.082  0.00  0.00     0.028 C 
ATOM     12  C   LIG d   1      -7.424  97.108 118.242  0.00  0.00     0.006 C 
ENDBRANCH   8  11
ENDBRANCH   7   8
ENDBRANCH   1   7
BRANCH   6  13
ATOM     13  N   LIG d   1      -7.366  90.569 117.248  0.00  0.00    -0.311 N 
ATOM     14  C   LIG d   1      -7.878  90.012 116.152  0.00  0.00     0.210 C 
ATOM     15  C   LIG d   1      -8.957  88.955 116.408  0.00  0.00     0.109 C 
ATOM     16  O   LIG d   1      -7.518  90.268 114.994  0.00  0.00    -0.276 OA
ATOM     17  H   LIG d   1      -7.693  90.278 118.148  0.00  0.00     0.149 HD
ENDBRANCH   6  13
BRANCH   5  18
ATOM     18  N   LIG d   1      -4.607  90.262 115.972  0.00  0.00     0.381 N 
ATOM     19  H   LIG d   1      -4.943  89.326 116.083  0.00  0.00    -0.090 HD
ATOM     20  H   LIG d   1      -3.612  90.225 115.833  0.00  0.00    -0.090 HD
ATOM     21  H   LIG d   1      -5.044  90.688 115.184  0.00  0.00    -0.090 HD
ENDBRANCH   5  18
BRANCH   3  22
ATOM     22  C   LIG d   1      -3.045  93.750 118.858  0.00  0.00     0.382 C 
ATOM     23  O   LIG d   1      -3.059  94.056 120.075  0.00  0.00    -0.241 OA
ATOM     24  O   LIG d   1      -2.074  94.083 118.153  0.00  0.00    -0.241 OA
ENDBRANCH   3  22
TORSDOF 7
ENDMDL
MODEL 4
REMARK VINA RESULT:      -5.2      2.028      5.385
REMARK  7 active torsions:
REMARK  status: ('A' for Active; 'I' for Inactive)
REMARK    1  A    between atoms: C_2  and  C_3 
REMARK    2  A    between atoms: C_3  and  O_6 
REMARK    3  A    between atoms: C_3  and  C_4 
REMARK    4  A    between atoms: C_7  and  O_6 
REMARK    5  A    between atoms: C_9  and  C_10 
REMARK    6  A    between atoms: N_15  and  C_14 
REMARK    7  A    between atoms: N_20  and  C_19 
REMARK       I    between atoms: C_22  and  N_20 
ROOT
ATOM      1  C   LIG d   1      -4.491  91.108 117.588  0.00  0.00     0.161 C 
ATOM      2  C   LIG d   1      -5.480  90.500 116.798  0.00  0.00     0.016 C 
ATOM      3  C   LIG d   1      -6.713  91.118 116.483  0.00  0.00     0.038 C 
ATOM      4  C   LIG d   1      -6.978  92.455 116.815  0.00  0.00     0.028 C 
ATOM      5  C   LIG d   1      -6.216  92.936 118.045  0.00  0.00    -0.047 C 
ATOM      6  C   LIG d   1      -4.716  92.609 117.866  0.00  0.00     0.091 C 
ENDROOT
BRANCH   1   7
ATOM      7  O   LIG d   1      -3.194  90.898 116.995  0.00  0.00    -0.368 OA
BRANCH   7   8
ATOM      8  C   LIG d   1      -2.495  89.695 117.401  0.00  0.00     0.119 C 
BRANCH   8   9
ATOM      9  C   LIG d   1      -2.711  89.523 118.917  0.00  0.00     0.028 C 
ATOM     10  C   LIG d   1      -2.254  88.144 119.422  0.00  0.00     0.006 C 
ENDBRANCH   8   9
BRANCH   8  11
ATOM     11  C   LIG d   1      -0.981  89.843 117.221  0.00  0.00     0.028 C 
ATOM     12  C   LIG d   1      -0.418  91.093 117.917  0.00  0.00     0.006 C 
ENDBRANCH   8  11
ENDBRANCH   7   8
ENDBRANCH   1   7
BRANCH   6  13
ATOM     13  N   LIG d   1      -3.911  92.971 119.062  0.00  0.00    -0.311 N 
ATOM     14  C   LIG d   1      -2.811  93.720 119.005  0.00  0.00     0.210 C 
ATOM     15  C   LIG d   1      -2.120  93.957 120.351  0.00  0.00     0.109 C 
ATOM     16  O   LIG d   1      -2.360  94.237 117.972  0.00  0.00    -0.276 OA
ATOM     17  H   LIG d   1      -4.223  92.620 119.946  0.00  0.00     0.149 HD
ENDBRANCH   6  13
BRANCH   5  18
ATOM     18  N   LIG d   1      -6.479  94.380 118.195  0.00  0.00     0.381 N 
ATOM     19  H   LIG d   1      -6.737  94.581 119.141  0.00  0.00    -0.090 HD
ATOM     20  H   LIG d   1      -7.247  94.634 117.599  0.00  0.00    -0.090 HD
ATOM     21  H   LIG d   1      -5.668  94.902 117.946  0.00  0.00    -0.090 HD
ENDBRANCH   5  18
BRANCH   3  22
ATOM     22  C   LIG d   1      -7.711  90.382 115.864  0.00  0.00     0.382 C 
ATOM     23  O   LIG d   1      -7.909  89.188 116.196  0.00  0.00    -0.241 OA
ATOM     24  O   LIG d   1      -8.388  90.883 114.945  0.00  0.00    -0.241 OA
ENDBRANCH   3  22
TORSDOF 7
ENDMDL
MODEL 5
REMARK VINA RESULT:      -5.1      2.194      5.519
REMARK  7 active torsions:
REMARK  status: ('A' for Active; 'I' for Inactive)
REMARK    1  A    between atoms: C_2  and  C_3 
REMARK    2  A    between atoms: C_3  and  O_6 
REMARK    3  A    between atoms: C_3  and  C_4 
REMARK    4  A    between atoms: C_7  and  O_6 
REMARK    5  A    between atoms: C_9  and  C_10 
REMARK    6  A    between atoms: N_15  and  C_14 
REMARK    7  A    between atoms: N_20  and  C_19 
REMARK       I    between atoms: C_22  and  N_20 
ROOT
ATOM      1  C   LIG d   1      -6.562  92.653 117.527  0.00  0.00     0.161 C 
ATOM      2  C   LIG d   1      -7.516  93.667 117.336  0.00  0.00     0.016 C 
ATOM      3  C   LIG d   1      -7.618  94.805 118.168  0.00  0.00     0.038 C 
ATOM      4  C   LIG d   1      -6.670  95.083 119.164  0.00  0.00     0.028 C 
ATOM      5  C   LIG d   1      -5.990  93.836 119.718  0.00  0.00    -0.047 C 
ATOM      6  C   LIG d   1      -5.449  92.994 118.540  0.00  0.00     0.091 C 
ENDROOT
BRANCH   1   7
ATOM      7  O   LIG d   1      -5.988  92.277 116.259  0.00  0.00    -0.368 OA
BRANCH   7   8
ATOM      8  C   LIG d   1      -6.559  91.108 115.622  0.00  0.00     0.119 C 
BRANCH   8   9
ATOM      9  C   LIG d   1      -7.217  90.255 116.725  0.00  0.00     0.028 C 
ATOM     10  C   LIG d   1      -8.416  89.446 116.203  0.00  0.00     0.006 C 
ENDBRANCH   8   9
BRANCH   8  11
ATOM     11  C   LIG d   1      -5.472  90.218 115.014  0.00  0.00     0.028 C 
ATOM     12  C   LIG d   1      -4.304  89.960 115.980  0.00  0.00     0.006 C 
ENDBRANCH   8  11
ENDBRANCH   7   8
ENDBRANCH   1   7
BRANCH   6  13
ATOM     13  N   LIG d   1      -4.843  91.714 118.989  0.00  0.00    -0.311 N 
ATOM     14  C   LIG d   1      -3.539  91.558 119.211  0.00  0.00     0.210 C 
ATOM     15  C   LIG d   1      -3.121  90.151 119.650  0.00  0.00     0.109 C 
ATOM     16  O   LIG d   1      -2.693  92.460 119.117  0.00  0.00    -0.276 OA
ATOM     17  H   LIG d   1      -5.461  90.937 119.121  0.00  0.00     0.149 HD
ENDBRANCH   6  13
BRANCH   5  18
ATOM     18  N   LIG d   1      -4.931  94.280 120.645  0.00  0.00     0.381 N 
ATOM     19  H   LIG d   1      -4.097  94.486 120.132  0.00  0.00    -0.090 HD
ATOM     20  H   LIG d   1      -4.730  93.535 121.289  0.00  0.00    -0.090 HD
ATOM     21  H   LIG d   1      -5.231  95.088 121.144  0.00  0.00    -0.090 HD
ENDBRANCH   5  18
BRANCH   3  22
ATOM     22  C   LIG d   1      -8.701  95.660 118.034  0.00  0.00     0.382 C 
ATOM     23  O   LIG d   1      -8.514  96.881 117.814  0.00  0.00    -0.241 OA
ATOM     24  O   LIG d   1      -9.863  95.234 118.174  0.00  0.00    -0.241 OA
ENDBRANCH   3  22
TORSDOF 7
ENDMDL
MODEL 6
REMARK VINA RESULT:      -5.0      1.675      5.019
REMARK  7 active torsions:
REMARK  status: ('A' for Active; 'I' for Inactive)
REMARK    1  A    between atoms: C_2  and  C_3 
REMARK    2  A    between atoms: C_3  and  O_6 
REMARK    3  A    between atoms: C_3  and  C_4 
REMARK    4  A    between atoms: C_7  and  O_6 
REMARK    5  A    between atoms: C_9  and  C_10 
REMARK    6  A    between atoms: N_15  and  C_14 
REMARK    7  A    between atoms: N_20  and  C_19 
REMARK       I    between atoms: C_22  and  N_20 
ROOT
ATOM      1  C   LIG d   1      -5.812  91.117 118.457  0.00  0.00     0.161 C 
ATOM      2  C   LIG d   1      -6.733  92.177 118.504  0.00  0.00     0.016 C 
ATOM      3  C   LIG d   1      -6.391  93.488 118.910  0.00  0.00     0.038 C 
ATOM      4  C   LIG d   1      -5.062  93.866 119.152  0.00  0.00     0.028 C 
ATOM      5  C   LIG d   1      -4.176  92.710 119.605  0.00  0.00    -0.047 C 
ATOM      6  C   LIG d   1      -4.335  91.536 118.611  0.00  0.00     0.091 C 
ENDROOT
BRANCH   1   7
ATOM      7  O   LIG d   1      -5.995  90.365 117.241  0.00  0.00    -0.368 OA
BRANCH   7   8
ATOM      8  C   LIG d   1      -6.892  90.945 116.262  0.00  0.00     0.119 C 
BRANCH   8   9
ATOM      9  C   LIG d   1      -7.735  89.799 115.671  0.00  0.00     0.028 C 
ATOM     10  C   LIG d   1      -8.683  89.172 116.707  0.00  0.00     0.006 C 
ENDBRANCH   8   9
BRANCH   8  11
ATOM     11  C   LIG d   1      -6.119  91.532 115.077  0.00  0.00     0.028 C 
ATOM     12  C   LIG d   1      -7.040  92.109 113.991  0.00  0.00     0.006 C 
ENDBRANCH   8  11
ENDBRANCH   7   8
ENDBRANCH   1   7
BRANCH   6  13
ATOM     13  N   LIG d   1      -3.567  90.334 119.026  0.00  0.00    -0.311 N 
ATOM     14  C   LIG d   1      -2.794  89.635 118.197  0.00  0.00     0.210 C 
ATOM     15  C   LIG d   1      -2.107  88.418 118.824  0.00  0.00     0.109 C 
ATOM     16  O   LIG d   1      -2.587  89.926 117.009  0.00  0.00    -0.276 OA
ATOM     17  H   LIG d   1      -3.653  90.045 119.981  0.00  0.00     0.149 HD
ENDBRANCH   6  13
BRANCH   5  18
ATOM     18  N   LIG d   1      -2.793  93.214 119.688  0.00  0.00     0.381 N 
ATOM     19  H   LIG d   1      -2.440  93.083 120.615  0.00  0.00    -0.090 HD
ATOM     20  H   LIG d   1      -2.793  94.198 119.487  0.00  0.00    -0.090 HD
ATOM     21  H   LIG d   1      -2.215  92.734 119.034  0.00  0.00    -0.090 HD
ENDBRANCH   5  18
BRANCH   3  22
ATOM     22  C   LIG d   1      -7.390  94.427 119.115  0.00  0.00     0.382 C 
ATOM     23  O   LIG d   1      -7.266  95.288 120.018  0.00  0.00    -0.241 OA
ATOM     24  O   LIG d   1      -8.435  94.396 118.437  0.00  0.00    -0.241 OA
ENDBRANCH   3  22
TORSDOF 7
ENDMDL
MODEL 7
REMARK VINA RESULT:      -4.9      2.416      4.833
REMARK  7 active torsions:
REMARK  status: ('A' for Active; 'I' for Inactive)
REMARK    1  A    between atoms: C_2  and  C_3 
REMARK    2  A    between atoms: C_3  and  O_6 
REMARK    3  A    between atoms: C_3  and  C_4 
REMARK    4  A    between atoms: C_7  and  O_6 
REMARK    5  A    between atoms: C_9  and  C_10 
REMARK    6  A    between atoms: N_15  and  C_14 
REMARK    7  A    between atoms: N_20  and  C_19 
REMARK       I    between atoms: C_22  and  N_20 
ROOT
ATOM      1  C   LIG d   1      -5.618  91.848 119.031  0.00  0.00     0.161 C 
ATOM      2  C   LIG d   1      -4.819  91.048 118.197  0.00  0.00     0.016 C 
ATOM      3  C   LIG d   1      -5.009  90.951 116.799  0.00  0.00     0.038 C 
ATOM      4  C   LIG d   1      -5.920  91.769 116.115  0.00  0.00     0.028 C 
ATOM      5  C   LIG d   1      -7.093  92.222 116.978  0.00  0.00    -0.047 C 
ATOM      6  C   LIG d   1      -6.545  92.833 118.288  0.00  0.00     0.091 C 
ENDROOT
BRANCH   1   7
ATOM      7  O   LIG d   1      -4.786  92.556 119.972  0.00  0.00    -0.368 OA
BRANCH   7   8
ATOM      8  C   LIG d   1      -3.385  92.669 119.623  0.00  0.00     0.119 C 
BRANCH   8   9
ATOM      9  C   LIG d   1      -2.574  92.571 120.930  0.00  0.00     0.028 C 
ATOM     10  C   LIG d   1      -1.562  91.413 120.906  0.00  0.00     0.006 C 
ENDBRANCH   8   9
BRANCH   8  11
ATOM     11  C   LIG d   1      -3.063  94.053 119.050  0.00  0.00     0.028 C 
ATOM     12  C   LIG d   1      -1.975  94.010 117.966  0.00  0.00     0.006 C 
ENDBRANCH   8  11
ENDBRANCH   7   8
ENDBRANCH   1   7
BRANCH   6  13
ATOM     13  N   LIG d   1      -7.629  93.225 119.227  0.00  0.00    -0.311 N 
ATOM     14  C   LIG d   1      -7.863  94.485 119.590  0.00  0.00     0.210 C 
ATOM     15  C   LIG d   1      -9.016  94.667 120.583  0.00  0.00     0.109 C 
ATOM     16  O   LIG d   1      -7.247  95.471 119.160  0.00  0.00    -0.276 OA
ATOM     17  H   LIG d   1      -8.198  92.490 119.600  0.00  0.00     0.149 HD
ENDBRANCH   6  13
BRANCH   5  18
ATOM     18  N   LIG d   1      -7.888  93.177 116.183  0.00  0.00     0.381 N 
ATOM     19  H   LIG d   1      -8.779  92.777 115.965  0.00  0.00    -0.090 HD
ATOM     20  H   LIG d   1      -7.406  93.363 115.321  0.00  0.00    -0.090 HD
ATOM     21  H   LIG d   1      -8.012  94.024 116.692  0.00  0.00    -0.090 HD
ENDBRANCH   5  18
BRANCH   3  22
ATOM     22  C   LIG d   1      -4.308  89.997 116.075  0.00  0.00     0.382 C 
ATOM     23  O   LIG d   1      -3.136  89.695 116.406  0.00  0.00    -0.241 OA
ATOM     24  O   LIG d   1      -4.817  89.468 115.070  0.00  0.00    -0.241 OA
ENDBRANCH   3  22
TORSDOF 7
ENDMDL
MODEL 8
REMARK VINA RESULT:      -4.9      2.173      5.957
REMARK  7 active torsions:
REMARK  status: ('A' for Active; 'I' for Inactive)
REMARK    1  A    between atoms: C_2  and  C_3 
REMARK    2  A    between atoms: C_3  and  O_6 
REMARK    3  A    between atoms: C_3  and  C_4 
REMARK    4  A    between atoms: C_7  and  O_6 
REMARK    5  A    between atoms: C_9  and  C_10 
REMARK    6  A    between atoms: N_15  and  C_14 
REMARK    7  A    between atoms: N_20  and  C_19 
REMARK       I    between atoms: C_22  and  N_20 
ROOT
ATOM      1  C   LIG d   1      -2.086  90.555 117.530  0.00  0.00     0.161 C 
ATOM      2  C   LIG d   1      -3.153  90.036 116.777  0.00  0.00     0.016 C 
ATOM      3  C   LIG d   1      -4.357  90.739 116.547  0.00  0.00     0.038 C 
ATOM      4  C   LIG d   1      -4.519  92.079 116.929  0.00  0.00     0.028 C 
ATOM      5  C   LIG d   1      -3.665  92.473 118.129  0.00  0.00    -0.047 C 
ATOM      6  C   LIG d   1      -2.200  92.058 117.861  0.00  0.00     0.091 C 
ENDROOT
BRANCH   1   7
ATOM      7  O   LIG d   1      -0.838  90.282 116.862  0.00  0.00    -0.368 OA
BRANCH   7   8
ATOM      8  C   LIG d   1       0.073  89.393 117.553  0.00  0.00     0.119 C 
BRANCH   8   9
ATOM      9  C   LIG d   1       1.501  89.925 117.325  0.00  0.00     0.028 C 
ATOM     10  C   LIG d   1       2.063  90.648 118.561  0.00  0.00     0.006 C 
ENDBRANCH   8   9
BRANCH   8  11
ATOM     11  C   LIG d   1       0.059  87.991 116.937  0.00  0.00     0.028 C 
ATOM     12  C   LIG d   1       1.226  87.115 117.421  0.00  0.00     0.006 C 
ENDBRANCH   8  11
ENDBRANCH   7   8
ENDBRANCH   1   7
BRANCH   6  13
ATOM     13  N   LIG d   1      -1.312  92.331 119.021  0.00  0.00    -0.311 N 
ATOM     14  C   LIG d   1      -0.574  93.434 119.135  0.00  0.00     0.210 C 
ATOM     15  C   LIG d   1       0.287  93.508 120.400  0.00  0.00     0.109 C 
ATOM     16  O   LIG d   1      -0.574  94.372 118.324  0.00  0.00    -0.276 OA
ATOM     17  H   LIG d   1      -1.275  91.636 119.741  0.00  0.00     0.149 HD
ENDBRANCH   6  13
BRANCH   5  18
ATOM     18  N   LIG d   1      -3.826  93.925 118.333  0.00  0.00     0.381 N 
ATOM     19  H   LIG d   1      -3.363  94.202 119.176  0.00  0.00    -0.090 HD
ATOM     20  H   LIG d   1      -4.804  94.133 118.427  0.00  0.00    -0.090 HD
ATOM     21  H   LIG d   1      -3.446  94.423 117.558  0.00  0.00    -0.090 HD
ENDBRANCH   5  18
BRANCH   3  22
ATOM     22  C   LIG d   1      -5.432  90.087 115.961  0.00  0.00     0.382 C 
ATOM     23  O   LIG d   1      -6.552  90.092 116.527  0.00  0.00    -0.241 OA
ATOM     24  O   LIG d   1      -5.285  89.457 114.897  0.00  0.00    -0.241 OA
ENDBRANCH   3  22
TORSDOF 7
ENDMDL
MODEL 9
REMARK VINA RESULT:      -4.8      2.302      4.800
REMARK  7 active torsions:
REMARK  status: ('A' for Active; 'I' for Inactive)
REMARK    1  A    between atoms: C_2  and  C_3 
REMARK    2  A    between atoms: C_3  and  O_6 
REMARK    3  A    between atoms: C_3  and  C_4 
REMARK    4  A    between atoms: C_7  and  O_6 
REMARK    5  A    between atoms: C_9  and  C_10 
REMARK    6  A    between atoms: N_15  and  C_14 
REMARK    7  A    between atoms: N_20  and  C_19 
REMARK       I    between atoms: C_22  and  N_20 
ROOT
ATOM      1  C   LIG d   1      -3.913  92.177 117.206  0.00  0.00     0.161 C 
ATOM      2  C   LIG d   1      -3.206  92.917 118.168  0.00  0.00     0.016 C 
ATOM      3  C   LIG d   1      -3.829  93.593 119.242  0.00  0.00     0.038 C 
ATOM      4  C   LIG d   1      -5.198  93.450 119.514  0.00  0.00     0.028 C 
ATOM      5  C   LIG d   1      -6.030  93.123 118.279  0.00  0.00    -0.047 C 
ATOM      6  C   LIG d   1      -5.395  91.917 117.550  0.00  0.00     0.091 C 
ENDROOT
BRANCH   1   7
ATOM      7  O   LIG d   1      -3.233  90.932 116.950  0.00  0.00    -0.368 OA
BRANCH   7   8
ATOM      8  C   LIG d   1      -2.262  90.520 117.943  0.00  0.00     0.119 C 
BRANCH   8   9
ATOM      9  C   LIG d   1      -1.048  89.941 117.192  0.00  0.00     0.028 C 
ATOM     10  C   LIG d   1       0.156  90.898 117.197  0.00  0.00     0.006 C 
ENDBRANCH   8   9
BRANCH   8  11
ATOM     11  C   LIG d   1      -2.796  89.368 118.800  0.00  0.00     0.028 C 
ATOM     12  C   LIG d   1      -1.761  88.250 119.006  0.00  0.00     0.006 C 
ENDBRANCH   8  11
ENDBRANCH   7   8
ENDBRANCH   1   7
BRANCH   6  13
ATOM     13  N   LIG d   1      -6.099  91.584 116.285  0.00  0.00    -0.311 N 
ATOM     14  C   LIG d   1      -7.141  90.758 116.221  0.00  0.00     0.210 C 
ATOM     15  C   LIG d   1      -7.707  90.536 114.815  0.00  0.00     0.109 C 
ATOM     16  O   LIG d   1      -7.672  90.212 117.201  0.00  0.00    -0.276 OA
ATOM     17  H   LIG d   1      -5.754  92.008 115.446  0.00  0.00     0.149 HD
ENDBRANCH   6  13
BRANCH   5  18
ATOM     18  N   LIG d   1      -7.411  92.866 118.728  0.00  0.00     0.381 N 
ATOM     19  H   LIG d   1      -7.975  93.677 118.572  0.00  0.00    -0.090 HD
ATOM     20  H   LIG d   1      -7.402  92.673 119.714  0.00  0.00    -0.090 HD
ATOM     21  H   LIG d   1      -7.791  92.088 118.234  0.00  0.00    -0.090 HD
ENDBRANCH   5  18
BRANCH   3  22
ATOM     22  C   LIG d   1      -3.087  94.457 120.033  0.00  0.00     0.382 C 
ATOM     23  O   LIG d   1      -3.652  95.128 120.930  0.00  0.00    -0.241 OA
ATOM     24  O   LIG d   1      -1.867  94.607 119.832  0.00  0.00    -0.241 OA
ENDBRANCH   3  22
TORSDOF 7
ENDMDL
