MODEL 1
REMARK VINA RESULT:      -5.4      0.000      0.000
REMARK  7 active torsions:
REMARK  status: ('A' for Active; 'I' for Inactive)
REMARK    1  A    between atoms: C_2  and  C_3 
REMARK    2  A    between atoms: C_3  and  O_6 
REMARK    3  A    between atoms: C_3  and  C_4 
REMARK    4  A    between atoms: C_7  and  O_6 
REMARK    5  A    between atoms: C_9  and  C_10 
REMARK    6  A    between atoms: N_15  and  C_14 
REMARK    7  A    between atoms: N_20  and  C_19 
REMARK       I    between atoms: C_22  and  N_20 
ROOT
ATOM      1  C   LIG d   1      -6.712  93.268 117.990  0.00  0.00     0.161 C 
ATOM      2  C   LIG d   1      -7.276  92.241 117.215  0.00  0.00     0.016 C 
ATOM      3  C   LIG d   1      -6.513  91.224 116.598  0.00  0.00     0.038 C 
ATOM      4  C   LIG d   1      -5.139  91.076 116.841  0.00  0.00     0.028 C 
ATOM      5  C   LIG d   1      -4.446  92.383 117.210  0.00  0.00    -0.047 C 
ATOM      6  C   LIG d   1      -5.228  93.060 118.359  0.00  0.00     0.091 C 
ENDROOT
BRANCH   1   7
ATOM      7  O   LIG d   1      -7.500  93.470 119.180  0.00  0.00    -0.368 OA
BRANCH   7   8
ATOM      8  C   LIG d   1      -8.656  94.333 119.041  0.00  0.00     0.119 C 
BRANCH   8   9
ATOM      9  C   LIG d   1      -8.171  95.660 118.427  0.00  0.00     0.028 C 
ATOM     10  C   LIG d   1      -7.393  96.524 119.434  0.00  0.00     0.006 C 
ENDBRANCH   8   9
BRANCH   8  11
ATOM     11  C   LIG d   1      -9.240  94.707 120.406  0.00  0.00     0.028 C 
ATOM     12  C   LIG d   1     -10.680  95.236 120.314  0.00  0.00     0.006 C 
ENDBRANCH   8  11
ENDBRANCH   7   8
ENDBRANCH   1   7
BRANCH   6  13
ATOM     13  N   LIG d   1      -4.665  94.386 118.724  0.00  0.00    -0.311 N 
ATOM     14  C   LIG d   1      -3.769  94.560 119.694  0.00  0.00     0.210 C 
ATOM     15  C   LIG d   1      -3.335  96.011 119.920  0.00  0.00     0.109 C 
ATOM     16  O   LIG d   1      -3.268  93.646 120.366  0.00  0.00    -0.276 OA
ATOM     17  H   LIG d   1      -4.993  95.179 118.208  0.00  0.00     0.149 HD
ENDBRANCH   6  13
BRANCH   5  18
ATOM     18  N   LIG d   1      -3.052  92.062 117.571  0.00  0.00     0.381 N 
ATOM     19  H   LIG d   1      -3.035  91.533 118.420  0.00  0.00    -0.090 HD
ATOM     20  H   LIG d   1      -2.550  92.919 117.723  0.00  0.00    -0.090 HD
ATOM     21  H   LIG d   1      -2.621  91.542 116.838  0.00  0.00    -0.090 HD
ENDBRANCH   5  18
BRANCH   3  22
ATOM     22  C   LIG d   1      -7.118  90.363 115.694  0.00  0.00     0.382 C 
ATOM     23  O   LIG d   1      -6.508  90.017 114.653  0.00  0.00    -0.241 OA
ATOM     24  O   LIG d   1      -8.282  89.963 115.885  0.00  0.00    -0.241 OA
ENDBRANCH   3  22
TORSDOF 7
ENDMDL
MODEL 2
REMARK VINA RESULT:      -5.4      2.493      4.983
REMARK  7 active torsions:
REMARK  status: ('A' for Active; 'I' for Inactive)
REMARK    1  A    between atoms: C_2  and  C_3 
REMARK    2  A    between atoms: C_3  and  O_6 
REMARK    3  A    between atoms: C_3  and  C_4 
REMARK    4  A    between atoms: C_7  and  O_6 
REMARK    5  A    between atoms: C_9  and  C_10 
REMARK    6  A    between atoms: N_15  and  C_14 
REMARK    7  A    between atoms: N_20  and  C_19 
REMARK       I    between atoms: C_22  and  N_20 
ROOT
ATOM      1  C   LIG d   1      -4.418  91.475 117.682  0.00  0.00     0.161 C 
ATOM      2  C   LIG d   1      -5.279  90.842 116.770  0.00  0.00     0.016 C 
ATOM      3  C   LIG d   1      -6.485  91.418 116.310  0.00  0.00     0.038 C 
ATOM      4  C   LIG d   1      -6.840  92.740 116.618  0.00  0.00     0.028 C 
ATOM      5  C   LIG d   1      -6.255  93.233 117.937  0.00  0.00    -0.047 C 
ATOM      6  C   LIG d   1      -4.733  92.963 117.943  0.00  0.00     0.091 C 
ENDROOT
BRANCH   1   7
ATOM      7  O   LIG d   1      -3.051  91.321 117.253  0.00  0.00    -0.368 OA
BRANCH   7   8
ATOM      8  C   LIG d   1      -2.152  90.694 118.200  0.00  0.00     0.119 C 
BRANCH   8   9
ATOM      9  C   LIG d   1      -0.719  91.126 117.835  0.00  0.00     0.028 C 
ATOM     10  C   LIG d   1      -0.005  91.833 119.000  0.00  0.00     0.006 C 
ENDBRANCH   8   9
BRANCH   8  11
ATOM     11  C   LIG d   1      -2.165  89.169 118.055  0.00  0.00     0.028 C 
ATOM     12  C   LIG d   1      -2.533  88.449 119.362  0.00  0.00     0.006 C 
ENDBRANCH   8  11
ENDBRANCH   7   8
ENDBRANCH   1   7
BRANCH   6  13
ATOM     13  N   LIG d   1      -4.096  93.339 119.232  0.00  0.00    -0.311 N 
ATOM     14  C   LIG d   1      -3.016  94.114 119.317  0.00  0.00     0.210 C 
ATOM     15  C   LIG d   1      -2.509  94.361 120.741  0.00  0.00     0.109 C 
ATOM     16  O   LIG d   1      -2.449  94.645 118.351  0.00  0.00    -0.276 OA
ATOM     17  H   LIG d   1      -4.510  92.977 120.068  0.00  0.00     0.149 HD
ENDBRANCH   6  13
BRANCH   5  18
ATOM     18  N   LIG d   1      -6.589  94.664 118.065  0.00  0.00     0.381 N 
ATOM     19  H   LIG d   1      -7.543  94.814 117.802  0.00  0.00    -0.090 HD
ATOM     20  H   LIG d   1      -6.003  95.192 117.443  0.00  0.00    -0.090 HD
ATOM     21  H   LIG d   1      -6.445  94.965 119.004  0.00  0.00    -0.090 HD
ENDBRANCH   5  18
BRANCH   3  22
ATOM     22  C   LIG d   1      -7.371  90.654 115.565  0.00  0.00     0.382 C 
ATOM     23  O   LIG d   1      -7.467  90.836 114.327  0.00  0.00    -0.241 OA
ATOM     24  O   LIG d   1      -8.106  89.817 116.122  0.00  0.00    -0.241 OA
ENDBRANCH   3  22
TORSDOF 7
ENDMDL
MODEL 3
REMARK VINA RESULT:      -5.4      2.218      4.544
REMARK  7 active torsions:
REMARK  status: ('A' for Active; 'I' for Inactive)
REMARK    1  A    between atoms: C_2  and  C_3 
REMARK    2  A    between atoms: C_3  and  O_6 
REMARK    3  A    between atoms: C_3  and  C_4 
REMARK    4  A    between atoms: C_7  and  O_6 
REMARK    5  A    between atoms: C_9  and  C_10 
REMARK    6  A    between atoms: N_15  and  C_14 
REMARK    7  A    between atoms: N_20  and  C_19 
REMARK       I    between atoms: C_22  and  N_20 
ROOT
ATOM      1  C   LIG d   1      -5.104  92.425 117.803  0.00  0.00     0.161 C 
ATOM      2  C   LIG d   1      -5.493  91.485 116.834  0.00  0.00     0.016 C 
ATOM      3  C   LIG d   1      -6.753  91.503 116.193  0.00  0.00     0.038 C 
ATOM      4  C   LIG d   1      -7.659  92.559 116.370  0.00  0.00     0.028 C 
ATOM      5  C   LIG d   1      -7.517  93.260 117.716  0.00  0.00    -0.047 C 
ATOM      6  C   LIG d   1      -6.036  93.648 117.927  0.00  0.00     0.091 C 
ENDROOT
BRANCH   1   7
ATOM      7  O   LIG d   1      -3.749  92.850 117.555  0.00  0.00    -0.368 OA
BRANCH   7   8
ATOM      8  C   LIG d   1      -2.752  92.378 118.494  0.00  0.00     0.119 C 
BRANCH   8   9
ATOM      9  C   LIG d   1      -1.755  93.529 118.729  0.00  0.00     0.028 C 
ATOM     10  C   LIG d   1      -1.539  94.385 117.469  0.00  0.00     0.006 C 
ENDBRANCH   8   9
BRANCH   8  11
ATOM     11  C   LIG d   1      -1.920  91.238 117.897  0.00  0.00     0.028 C 
ATOM     12  C   LIG d   1      -2.463  89.848 118.265  0.00  0.00     0.006 C 
ENDBRANCH   8  11
ENDBRANCH   7   8
ENDBRANCH   1   7
BRANCH   6  13
ATOM     13  N   LIG d   1      -5.795  94.265 119.257  0.00  0.00    -0.311 N 
ATOM     14  C   LIG d   1      -5.906  95.571 119.491  0.00  0.00     0.210 C 
ATOM     15  C   LIG d   1      -5.594  95.999 120.929  0.00  0.00     0.109 C 
ATOM     16  O   LIG d   1      -6.265  96.412 118.653  0.00  0.00    -0.276 OA
ATOM     17  H   LIG d   1      -5.530  93.651 120.003  0.00  0.00     0.149 HD
ENDBRANCH   6  13
BRANCH   5  18
ATOM     18  N   LIG d   1      -8.425  94.423 117.711  0.00  0.00     0.381 N 
ATOM     19  H   LIG d   1      -8.524  94.771 116.778  0.00  0.00    -0.090 HD
ATOM     20  H   LIG d   1      -8.025  95.150 118.277  0.00  0.00    -0.090 HD
ATOM     21  H   LIG d   1      -9.316  94.162 118.073  0.00  0.00    -0.090 HD
ENDBRANCH   5  18
BRANCH   3  22
ATOM     22  C   LIG d   1      -7.134  90.434 115.396  0.00  0.00     0.382 C 
ATOM     23  O   LIG d   1      -6.304  89.908 114.615  0.00  0.00    -0.241 OA
ATOM     24  O   LIG d   1      -8.308  90.019 115.414  0.00  0.00    -0.241 OA
ENDBRANCH   3  22
TORSDOF 7
ENDMDL
MODEL 4
REMARK VINA RESULT:      -5.4      2.472      5.132
REMARK  7 active torsions:
REMARK  status: ('A' for Active; 'I' for Inactive)
REMARK    1  A    between atoms: C_2  and  C_3 
REMARK    2  A    between atoms: C_3  and  O_6 
REMARK    3  A    between atoms: C_3  and  C_4 
REMARK    4  A    between atoms: C_7  and  O_6 
REMARK    5  A    between atoms: C_9  and  C_10 
REMARK    6  A    between atoms: N_15  and  C_14 
REMARK    7  A    between atoms: N_20  and  C_19 
REMARK       I    between atoms: C_22  and  N_20 
ROOT
ATOM      1  C   LIG d   1      -4.419  91.475 117.678  0.00  0.00     0.161 C 
ATOM      2  C   LIG d   1      -5.224  90.788 116.754  0.00  0.00     0.016 C 
ATOM      3  C   LIG d   1      -6.448  91.294 116.260  0.00  0.00     0.038 C 
ATOM      4  C   LIG d   1      -6.879  92.598 116.544  0.00  0.00     0.028 C 
ATOM      5  C   LIG d   1      -6.352  93.136 117.870  0.00  0.00    -0.047 C 
ATOM      6  C   LIG d   1      -4.818  92.947 117.914  0.00  0.00     0.091 C 
ENDROOT
BRANCH   1   7
ATOM      7  O   LIG d   1      -3.036  91.388 117.282  0.00  0.00    -0.368 OA
BRANCH   7   8
ATOM      8  C   LIG d   1      -2.332  90.188 117.685  0.00  0.00     0.119 C 
BRANCH   8   9
ATOM      9  C   LIG d   1      -2.658  89.937 119.170  0.00  0.00     0.028 C 
ATOM     10  C   LIG d   1      -2.530  88.454 119.556  0.00  0.00     0.006 C 
ENDBRANCH   8   9
BRANCH   8  11
ATOM     11  C   LIG d   1      -0.814  90.388 117.631  0.00  0.00     0.028 C 
ATOM     12  C   LIG d   1      -0.405  91.867 117.709  0.00  0.00     0.006 C 
ENDBRANCH   8  11
ENDBRANCH   7   8
ENDBRANCH   1   7
BRANCH   6  13
ATOM     13  N   LIG d   1      -4.232  93.370 119.213  0.00  0.00    -0.311 N 
ATOM     14  C   LIG d   1      -3.162  94.157 119.312  0.00  0.00     0.210 C 
ATOM     15  C   LIG d   1      -2.710  94.455 120.746  0.00  0.00     0.109 C 
ATOM     16  O   LIG d   1      -2.564  94.663 118.351  0.00  0.00    -0.276 OA
ATOM     17  H   LIG d   1      -4.674  93.030 120.044  0.00  0.00     0.149 HD
ENDBRANCH   6  13
BRANCH   5  18
ATOM     18  N   LIG d   1      -6.764  94.548 117.974  0.00  0.00     0.381 N 
ATOM     19  H   LIG d   1      -6.250  94.998 118.705  0.00  0.00    -0.090 HD
ATOM     20  H   LIG d   1      -7.741  94.586 118.205  0.00  0.00    -0.090 HD
ATOM     21  H   LIG d   1      -6.602  95.015 117.109  0.00  0.00    -0.090 HD
ENDBRANCH   5  18
BRANCH   3  22
ATOM     22  C   LIG d   1      -7.274  90.477 115.504  0.00  0.00     0.382 C 
ATOM     23  O   LIG d   1      -8.303  89.977 116.020  0.00  0.00    -0.241 OA
ATOM     24  O   LIG d   1      -6.980  90.197 114.327  0.00  0.00    -0.241 OA
ENDBRANCH   3  22
TORSDOF 7
ENDMDL
MODEL 5
REMARK VINA RESULT:      -4.8      2.290      4.829
REMARK  7 active torsions:
REMARK  status: ('A' for Active; 'I' for Inactive)
REMARK    1  A    between atoms: C_2  and  C_3 
REMARK    2  A    between atoms: C_3  and  O_6 
REMARK    3  A    between atoms: C_3  and  C_4 
REMARK    4  A    between atoms: C_7  and  O_6 
REMARK    5  A    between atoms: C_9  and  C_10 
REMARK    6  A    between atoms: N_15  and  C_14 
REMARK    7  A    between atoms: N_20  and  C_19 
REMARK       I    between atoms: C_22  and  N_20 
ROOT
ATOM      1  C   LIG d   1      -5.747  93.406 119.753  0.00  0.00     0.161 C 
ATOM      2  C   LIG d   1      -7.145  93.393 119.622  0.00  0.00     0.016 C 
ATOM      3  C   LIG d   1      -7.898  94.516 119.207  0.00  0.00     0.038 C 
ATOM      4  C   LIG d   1      -7.286  95.690 118.746  0.00  0.00     0.028 C 
ATOM      5  C   LIG d   1      -5.900  95.923 119.338  0.00  0.00    -0.047 C 
ATOM      6  C   LIG d   1      -5.052  94.645 119.149  0.00  0.00     0.091 C 
ENDROOT
BRANCH   1   7
ATOM      7  O   LIG d   1      -5.192  92.199 119.195  0.00  0.00    -0.368 OA
BRANCH   7   8
ATOM      8  C   LIG d   1      -4.971  92.201 117.763  0.00  0.00     0.119 C 
BRANCH   8   9
ATOM      9  C   LIG d   1      -6.183  91.515 117.106  0.00  0.00     0.028 C 
ATOM     10  C   LIG d   1      -6.875  92.414 116.068  0.00  0.00     0.006 C 
ENDBRANCH   8   9
BRANCH   8  11
ATOM     11  C   LIG d   1      -3.762  91.339 117.385  0.00  0.00     0.028 C 
ATOM     12  C   LIG d   1      -2.917  90.931 118.602  0.00  0.00     0.006 C 
ENDBRANCH   8  11
ENDBRANCH   7   8
ENDBRANCH   1   7
BRANCH   6  13
ATOM     13  N   LIG d   1      -3.709  94.757 119.775  0.00  0.00    -0.311 N 
ATOM     14  C   LIG d   1      -2.571  94.688 119.086  0.00  0.00     0.210 C 
ATOM     15  C   LIG d   1      -1.297  94.807 119.929  0.00  0.00     0.109 C 
ATOM     16  O   LIG d   1      -2.496  94.571 117.854  0.00  0.00    -0.276 OA
ATOM     17  H   LIG d   1      -3.677  94.885 120.767  0.00  0.00     0.149 HD
ENDBRANCH   6  13
BRANCH   5  18
ATOM     18  N   LIG d   1      -5.322  97.104 118.670  0.00  0.00     0.381 N 
ATOM     19  H   LIG d   1      -5.569  97.933 119.173  0.00  0.00    -0.090 HD
ATOM     20  H   LIG d   1      -5.704  97.173 117.743  0.00  0.00    -0.090 HD
ATOM     21  H   LIG d   1      -4.331  97.019 118.623  0.00  0.00    -0.090 HD
ENDBRANCH   5  18
BRANCH   3  22
ATOM     22  C   LIG d   1      -9.282  94.483 119.287  0.00  0.00     0.382 C 
ATOM     23  O   LIG d   1      -9.956  95.471 118.910  0.00  0.00    -0.241 OA
ATOM     24  O   LIG d   1      -9.863  93.494 119.774  0.00  0.00    -0.241 OA
ENDBRANCH   3  22
TORSDOF 7
ENDMDL
MODEL 6
REMARK VINA RESULT:      -4.7      2.342      5.043
REMARK  7 active torsions:
REMARK  status: ('A' for Active; 'I' for Inactive)
REMARK    1  A    between atoms: C_2  and  C_3 
REMARK    2  A    between atoms: C_3  and  O_6 
REMARK    3  A    between atoms: C_3  and  C_4 
REMARK    4  A    between atoms: C_7  and  O_6 
REMARK    5  A    between atoms: C_9  and  C_10 
REMARK    6  A    between atoms: N_15  and  C_14 
REMARK    7  A    between atoms: N_20  and  C_19 
REMARK       I    between atoms: C_22  and  N_20 
ROOT
ATOM      1  C   LIG d   1      -4.590  93.333 118.705  0.00  0.00     0.161 C 
ATOM      2  C   LIG d   1      -5.780  94.073 118.807  0.00  0.00     0.016 C 
ATOM      3  C   LIG d   1      -6.937  93.795 118.044  0.00  0.00     0.038 C 
ATOM      4  C   LIG d   1      -7.032  92.657 117.230  0.00  0.00     0.028 C 
ATOM      5  C   LIG d   1      -5.684  92.167 116.712  0.00  0.00    -0.047 C 
ATOM      6  C   LIG d   1      -4.712  92.020 117.905  0.00  0.00     0.091 C 
ENDROOT
BRANCH   1   7
ATOM      7  O   LIG d   1      -4.063  93.071 120.021  0.00  0.00    -0.368 OA
BRANCH   7   8
ATOM      8  C   LIG d   1      -2.871  93.807 120.388  0.00  0.00     0.119 C 
BRANCH   8   9
ATOM      9  C   LIG d   1      -2.483  94.691 119.187  0.00  0.00     0.028 C 
ATOM     10  C   LIG d   1      -2.553  96.192 119.515  0.00  0.00     0.006 C 
ENDBRANCH   8   9
BRANCH   8  11
ATOM     11  C   LIG d   1      -1.680  92.868 120.601  0.00  0.00     0.028 C 
ATOM     12  C   LIG d   1      -0.525  93.139 119.624  0.00  0.00     0.006 C 
ENDBRANCH   8  11
ENDBRANCH   7   8
ENDBRANCH   1   7
BRANCH   6  13
ATOM     13  N   LIG d   1      -3.345  91.626 117.476  0.00  0.00    -0.311 N 
ATOM     14  C   LIG d   1      -2.731  90.523 117.903  0.00  0.00     0.210 C 
ATOM     15  C   LIG d   1      -1.317  90.315 117.353  0.00  0.00     0.109 C 
ATOM     16  O   LIG d   1      -3.237  89.681 118.661  0.00  0.00    -0.276 OA
ATOM     17  H   LIG d   1      -2.873  92.236 116.837  0.00  0.00     0.149 HD
ENDBRANCH   6  13
BRANCH   5  18
ATOM     18  N   LIG d   1      -5.916  90.899 115.995  0.00  0.00     0.381 N 
ATOM     19  H   LIG d   1      -5.116  90.674 115.438  0.00  0.00    -0.090 HD
ATOM     20  H   LIG d   1      -6.705  91.012 115.383  0.00  0.00    -0.090 HD
ATOM     21  H   LIG d   1      -6.093  90.167 116.646  0.00  0.00    -0.090 HD
ENDBRANCH   5  18
BRANCH   3  22
ATOM     22  C   LIG d   1      -8.001  94.685 118.059  0.00  0.00     0.382 C 
ATOM     23  O   LIG d   1      -7.785  95.919 118.129  0.00  0.00    -0.241 OA
ATOM     24  O   LIG d   1      -9.174  94.267 118.050  0.00  0.00    -0.241 OA
ENDBRANCH   3  22
TORSDOF 7
ENDMDL
MODEL 7
REMARK VINA RESULT:      -4.7      1.660      4.891
REMARK  7 active torsions:
REMARK  status: ('A' for Active; 'I' for Inactive)
REMARK    1  A    between atoms: C_2  and  C_3 
REMARK    2  A    between atoms: C_3  and  O_6 
REMARK    3  A    between atoms: C_3  and  C_4 
REMARK    4  A    between atoms: C_7  and  O_6 
REMARK    5  A    between atoms: C_9  and  C_10 
REMARK    6  A    between atoms: N_15  and  C_14 
REMARK    7  A    between atoms: N_20  and  C_19 
REMARK       I    between atoms: C_22  and  N_20 
ROOT
ATOM      1  C   LIG d   1      -5.504  93.262 118.701  0.00  0.00     0.161 C 
ATOM      2  C   LIG d   1      -4.540  93.930 119.475  0.00  0.00     0.016 C 
ATOM      3  C   LIG d   1      -3.158  93.639 119.418  0.00  0.00     0.038 C 
ATOM      4  C   LIG d   1      -2.625  92.757 118.466  0.00  0.00     0.028 C 
ATOM      5  C   LIG d   1      -3.613  91.689 118.009  0.00  0.00    -0.047 C 
ATOM      6  C   LIG d   1      -4.929  92.375 117.577  0.00  0.00     0.091 C 
ENDROOT
BRANCH   1   7
ATOM      7  O   LIG d   1      -6.440  94.214 118.159  0.00  0.00    -0.368 OA
BRANCH   7   8
ATOM      8  C   LIG d   1      -7.400  94.767 119.093  0.00  0.00     0.119 C 
BRANCH   8   9
ATOM      9  C   LIG d   1      -8.770  94.133 118.778  0.00  0.00     0.028 C 
ATOM     10  C   LIG d   1      -9.590  93.850 120.048  0.00  0.00     0.006 C 
ENDBRANCH   8   9
BRANCH   8  11
ATOM     11  C   LIG d   1      -7.590  96.271 118.873  0.00  0.00     0.028 C 
ATOM     12  C   LIG d   1      -7.203  97.106 120.104  0.00  0.00     0.006 C 
ENDBRANCH   8  11
ENDBRANCH   7   8
ENDBRANCH   1   7
BRANCH   6  13
ATOM     13  N   LIG d   1      -5.980  91.396 117.195  0.00  0.00    -0.311 N 
ATOM     14  C   LIG d   1      -6.688  91.482 116.070  0.00  0.00     0.210 C 
ATOM     15  C   LIG d   1      -7.735  90.380 115.879  0.00  0.00     0.109 C 
ATOM     16  O   LIG d   1      -6.526  92.347 115.197  0.00  0.00    -0.276 OA
ATOM     17  H   LIG d   1      -6.155  90.644 117.832  0.00  0.00     0.149 HD
ENDBRANCH   6  13
BRANCH   5  18
ATOM     18  N   LIG d   1      -2.974  90.927 116.920  0.00  0.00     0.381 N 
ATOM     19  H   LIG d   1      -3.528  90.993 116.089  0.00  0.00    -0.090 HD
ATOM     20  H   LIG d   1      -2.921  89.960 117.187  0.00  0.00    -0.090 HD
ATOM     21  H   LIG d   1      -2.059  91.282 116.747  0.00  0.00    -0.090 HD
ENDBRANCH   5  18
BRANCH   3  22
ATOM     22  C   LIG d   1      -2.298  94.203 120.347  0.00  0.00     0.382 C 
ATOM     23  O   LIG d   1      -2.342  95.436 120.575  0.00  0.00    -0.241 OA
ATOM     24  O   LIG d   1      -1.448  93.502 120.928  0.00  0.00    -0.241 OA
ENDBRANCH   3  22
TORSDOF 7
ENDMDL
MODEL 8
REMARK VINA RESULT:      -4.7      2.402      4.368
REMARK  7 active torsions:
REMARK  status: ('A' for Active; 'I' for Inactive)
REMARK    1  A    between atoms: C_2  and  C_3 
REMARK    2  A    between atoms: C_3  and  O_6 
REMARK    3  A    between atoms: C_3  and  C_4 
REMARK    4  A    between atoms: C_7  and  O_6 
REMARK    5  A    between atoms: C_9  and  C_10 
REMARK    6  A    between atoms: N_15  and  C_14 
REMARK    7  A    between atoms: N_20  and  C_19 
REMARK       I    between atoms: C_22  and  N_20 
ROOT
ATOM      1  C   LIG d   1      -5.378  92.973 119.860  0.00  0.00     0.161 C 
ATOM      2  C   LIG d   1      -4.223  92.339 119.373  0.00  0.00     0.016 C 
ATOM      3  C   LIG d   1      -4.191  91.598 118.169  0.00  0.00     0.038 C 
ATOM      4  C   LIG d   1      -5.281  91.568 117.288  0.00  0.00     0.028 C 
ATOM      5  C   LIG d   1      -6.625  91.774 117.979  0.00  0.00    -0.047 C 
ATOM      6  C   LIG d   1      -6.548  93.044 118.857  0.00  0.00     0.091 C 
ENDROOT
BRANCH   1   7
ATOM      7  O   LIG d   1      -5.047  94.292 120.338  0.00  0.00    -0.368 OA
BRANCH   7   8
ATOM      8  C   LIG d   1      -4.764  95.285 119.322  0.00  0.00     0.119 C 
BRANCH   8   9
ATOM      9  C   LIG d   1      -3.382  95.890 119.637  0.00  0.00     0.028 C 
ATOM     10  C   LIG d   1      -2.290  95.392 118.676  0.00  0.00     0.006 C 
ENDBRANCH   8   9
BRANCH   8  11
ATOM     11  C   LIG d   1      -5.747  96.457 119.400  0.00  0.00     0.028 C 
ATOM     12  C   LIG d   1      -6.523  96.497 120.726  0.00  0.00     0.006 C 
ENDBRANCH   8  11
ENDBRANCH   7   8
ENDBRANCH   1   7
BRANCH   6  13
ATOM     13  N   LIG d   1      -7.794  93.272 119.634  0.00  0.00    -0.311 N 
ATOM     14  C   LIG d   1      -8.838  93.953 119.164  0.00  0.00     0.210 C 
ATOM     15  C   LIG d   1     -10.014  94.088 120.136  0.00  0.00     0.109 C 
ATOM     16  O   LIG d   1      -8.914  94.430 118.021  0.00  0.00    -0.276 OA
ATOM     17  H   LIG d   1      -7.830  92.892 120.560  0.00  0.00     0.149 HD
ENDBRANCH   6  13
BRANCH   5  18
ATOM     18  N   LIG d   1      -7.658  91.857 116.930  0.00  0.00     0.381 N 
ATOM     19  H   LIG d   1      -7.949  92.808 116.816  0.00  0.00    -0.090 HD
ATOM     20  H   LIG d   1      -8.455  91.315 117.214  0.00  0.00    -0.090 HD
ATOM     21  H   LIG d   1      -7.299  91.507 116.069  0.00  0.00    -0.090 HD
ENDBRANCH   5  18
BRANCH   3  22
ATOM     22  C   LIG d   1      -3.070  90.844 117.856  0.00  0.00     0.382 C 
ATOM     23  O   LIG d   1      -3.109  89.594 117.951  0.00  0.00    -0.241 OA
ATOM     24  O   LIG d   1      -2.007  91.401 117.523  0.00  0.00    -0.241 OA
ENDBRANCH   3  22
TORSDOF 7
ENDMDL
MODEL 9
REMARK VINA RESULT:      -4.5      2.005      4.950
REMARK  7 active torsions:
REMARK  status: ('A' for Active; 'I' for Inactive)
REMARK    1  A    between atoms: C_2  and  C_3 
REMARK    2  A    between atoms: C_3  and  O_6 
REMARK    3  A    between atoms: C_3  and  C_4 
REMARK    4  A    between atoms: C_7  and  O_6 
REMARK    5  A    between atoms: C_9  and  C_10 
REMARK    6  A    between atoms: N_15  and  C_14 
REMARK    7  A    between atoms: N_20  and  C_19 
REMARK       I    between atoms: C_22  and  N_20 
ROOT
ATOM      1  C   LIG d   1      -6.140  93.319 118.826  0.00  0.00     0.161 C 
ATOM      2  C   LIG d   1      -7.527  93.538 118.805  0.00  0.00     0.016 C 
ATOM      3  C   LIG d   1      -8.151  94.640 119.434  0.00  0.00     0.038 C 
ATOM      4  C   LIG d   1      -7.409  95.687 120.002  0.00  0.00     0.028 C 
ATOM      5  C   LIG d   1      -6.029  95.257 120.489  0.00  0.00    -0.047 C 
ATOM      6  C   LIG d   1      -5.305  94.508 119.346  0.00  0.00     0.091 C 
ENDROOT
BRANCH   1   7
ATOM      7  O   LIG d   1      -5.687  92.924 117.516  0.00  0.00    -0.368 OA
BRANCH   7   8
ATOM      8  C   LIG d   1      -6.372  91.796 116.918  0.00  0.00     0.119 C 
BRANCH   8   9
ATOM      9  C   LIG d   1      -5.306  90.738 116.572  0.00  0.00     0.028 C 
ATOM     10  C   LIG d   1      -3.953  91.027 117.243  0.00  0.00     0.006 C 
ENDBRANCH   8   9
BRANCH   8  11
ATOM     11  C   LIG d   1      -7.014  92.178 115.581  0.00  0.00     0.028 C 
ATOM     12  C   LIG d   1      -6.919  91.058 114.533  0.00  0.00     0.006 C 
ENDBRANCH   8  11
ENDBRANCH   7   8
ENDBRANCH   1   7
BRANCH   6  13
ATOM     13  N   LIG d   1      -3.981  93.980 119.765  0.00  0.00    -0.311 N 
ATOM     14  C   LIG d   1      -2.866  94.151 119.057  0.00  0.00     0.210 C 
ATOM     15  C   LIG d   1      -1.612  93.508 119.659  0.00  0.00     0.109 C 
ATOM     16  O   LIG d   1      -2.789  94.803 118.005  0.00  0.00    -0.276 OA
ATOM     17  H   LIG d   1      -3.946  93.465 120.623  0.00  0.00     0.149 HD
ENDBRANCH   6  13
BRANCH   5  18
ATOM     18  N   LIG d   1      -5.315  96.469 120.930  0.00  0.00     0.381 N 
ATOM     19  H   LIG d   1      -5.573  97.244 120.352  0.00  0.00    -0.090 HD
ATOM     20  H   LIG d   1      -4.326  96.318 120.832  0.00  0.00    -0.090 HD
ATOM     21  H   LIG d   1      -5.535  96.667 121.881  0.00  0.00    -0.090 HD
ENDBRANCH   5  18
BRANCH   3  22
ATOM     22  C   LIG d   1      -9.533  94.683 119.533  0.00  0.00     0.382 C 
ATOM     23  O   LIG d   1     -10.170  93.654 119.863  0.00  0.00    -0.241 OA
ATOM     24  O   LIG d   1     -10.155  95.726 119.253  0.00  0.00    -0.241 OA
ENDBRANCH   3  22
TORSDOF 7
ENDMDL
