MODEL 1
REMARK VINA RESULT:      -5.6      0.000      0.000
REMARK  7 active torsions:
REMARK  status: ('A' for Active; 'I' for Inactive)
REMARK    1  A    between atoms: C_2  and  C_3 
REMARK    2  A    between atoms: C_3  and  O_6 
REMARK    3  A    between atoms: C_3  and  C_4 
REMARK    4  A    between atoms: C_7  and  O_6 
REMARK    5  A    between atoms: C_9  and  C_10 
REMARK    6  A    between atoms: N_15  and  C_14 
REMARK    7  A    between atoms: N_20  and  C_19 
REMARK       I    between atoms: C_22  and  N_20 
ROOT
ATOM      1  C   LIG d   1      -4.845  91.978 117.538  0.00  0.00     0.161 C 
ATOM      2  C   LIG d   1      -4.508  92.738 118.671  0.00  0.00     0.016 C 
ATOM      3  C   LIG d   1      -5.422  93.582 119.342  0.00  0.00     0.038 C 
ATOM      4  C   LIG d   1      -6.785  93.608 119.013  0.00  0.00     0.028 C 
ATOM      5  C   LIG d   1      -7.065  93.243 117.559  0.00  0.00    -0.047 C 
ATOM      6  C   LIG d   1      -6.355  91.909 117.232  0.00  0.00     0.091 C 
ENDROOT
BRANCH   1   7
ATOM      7  O   LIG d   1      -4.296  90.651 117.659  0.00  0.00    -0.368 OA
BRANCH   7   8
ATOM      8  C   LIG d   1      -3.208  90.494 118.602  0.00  0.00     0.119 C 
BRANCH   8   9
ATOM      9  C   LIG d   1      -1.898  90.435 117.793  0.00  0.00     0.028 C 
ATOM     10  C   LIG d   1      -1.016  91.675 118.014  0.00  0.00     0.006 C 
ENDBRANCH   8   9
BRANCH   8  11
ATOM     11  C   LIG d   1      -3.294  89.151 119.333  0.00  0.00     0.028 C 
ATOM     12  C   LIG d   1      -2.005  88.322 119.209  0.00  0.00     0.006 C 
ENDBRANCH   8  11
ENDBRANCH   7   8
ENDBRANCH   1   7
BRANCH   6  13
ATOM     13  N   LIG d   1      -6.508  91.521 115.805  0.00  0.00    -0.311 N 
ATOM     14  C   LIG d   1      -7.449  90.684 115.370  0.00  0.00     0.210 C 
ATOM     15  C   LIG d   1      -7.417  90.403 113.864  0.00  0.00     0.109 C 
ATOM     16  O   LIG d   1      -8.326  90.174 116.082  0.00  0.00    -0.276 OA
ATOM     17  H   LIG d   1      -5.857  91.913 115.154  0.00  0.00     0.149 HD
ENDBRANCH   6  13
BRANCH   5  18
ATOM     18  N   LIG d   1      -8.529  93.175 117.390  0.00  0.00     0.381 N 
ATOM     19  H   LIG d   1      -8.881  94.073 117.125  0.00  0.00    -0.090 HD
ATOM     20  H   LIG d   1      -8.946  92.920 118.268  0.00  0.00    -0.090 HD
ATOM     21  H   LIG d   1      -8.761  92.501 116.695  0.00  0.00    -0.090 HD
ENDBRANCH   5  18
BRANCH   3  22
ATOM     22  C   LIG d   1      -4.965  94.442 120.329  0.00  0.00     0.382 C 
ATOM     23  O   LIG d   1      -3.835  94.264 120.842  0.00  0.00    -0.241 OA
ATOM     24  O   LIG d   1      -5.688  95.368 120.744  0.00  0.00    -0.241 OA
ENDBRANCH   3  22
TORSDOF 7
ENDMDL
MODEL 2
REMARK VINA RESULT:      -5.2      1.785      4.754
REMARK  7 active torsions:
REMARK  status: ('A' for Active; 'I' for Inactive)
REMARK    1  A    between atoms: C_2  and  C_3 
REMARK    2  A    between atoms: C_3  and  O_6 
REMARK    3  A    between atoms: C_3  and  C_4 
REMARK    4  A    between atoms: C_7  and  O_6 
REMARK    5  A    between atoms: C_9  and  C_10 
REMARK    6  A    between atoms: N_15  and  C_14 
REMARK    7  A    between atoms: N_20  and  C_19 
REMARK       I    between atoms: C_22  and  N_20 
ROOT
ATOM      1  C   LIG d   1      -5.501  92.184 117.790  0.00  0.00     0.161 C 
ATOM      2  C   LIG d   1      -5.891  91.261 116.806  0.00  0.00     0.016 C 
ATOM      3  C   LIG d   1      -7.126  91.328 116.121  0.00  0.00     0.038 C 
ATOM      4  C   LIG d   1      -7.997  92.418 116.269  0.00  0.00     0.028 C 
ATOM      5  C   LIG d   1      -7.876  93.111 117.622  0.00  0.00    -0.047 C 
ATOM      6  C   LIG d   1      -6.390  93.442 117.885  0.00  0.00     0.091 C 
ENDROOT
BRANCH   1   7
ATOM      7  O   LIG d   1      -4.123  92.557 117.592  0.00  0.00    -0.368 OA
BRANCH   7   8
ATOM      8  C   LIG d   1      -3.173  92.018 118.544  0.00  0.00     0.119 C 
BRANCH   8   9
ATOM      9  C   LIG d   1      -2.129  93.115 118.827  0.00  0.00     0.028 C 
ATOM     10  C   LIG d   1      -2.641  94.520 118.469  0.00  0.00     0.006 C 
ENDBRANCH   8   9
BRANCH   8  11
ATOM     11  C   LIG d   1      -2.384  90.851 117.944  0.00  0.00     0.028 C 
ATOM     12  C   LIG d   1      -2.973  89.481 118.313  0.00  0.00     0.006 C 
ENDBRANCH   8  11
ENDBRANCH   7   8
ENDBRANCH   1   7
BRANCH   6  13
ATOM     13  N   LIG d   1      -6.172  94.046 119.226  0.00  0.00    -0.311 N 
ATOM     14  C   LIG d   1      -6.316  95.346 119.476  0.00  0.00     0.210 C 
ATOM     15  C   LIG d   1      -6.024  95.763 120.921  0.00  0.00     0.109 C 
ATOM     16  O   LIG d   1      -6.689  96.189 118.646  0.00  0.00    -0.276 OA
ATOM     17  H   LIG d   1      -5.898  93.429 119.965  0.00  0.00     0.149 HD
ENDBRANCH   6  13
BRANCH   5  18
ATOM     18  N   LIG d   1      -8.738  94.307 117.588  0.00  0.00     0.381 N 
ATOM     19  H   LIG d   1      -9.635  94.069 117.214  0.00  0.00    -0.090 HD
ATOM     20  H   LIG d   1      -8.318  94.994 116.987  0.00  0.00    -0.090 HD
ATOM     21  H   LIG d   1      -8.842  94.679 118.507  0.00  0.00    -0.090 HD
ENDBRANCH   5  18
BRANCH   3  22
ATOM     22  C   LIG d   1      -7.519  90.276 115.307  0.00  0.00     0.382 C 
ATOM     23  O   LIG d   1      -8.529  89.595 115.606  0.00  0.00    -0.241 OA
ATOM     24  O   LIG d   1      -6.850  89.972 114.301  0.00  0.00    -0.241 OA
ENDBRANCH   3  22
TORSDOF 7
ENDMDL
MODEL 3
REMARK VINA RESULT:      -5.1      2.606      6.223
REMARK  7 active torsions:
REMARK  status: ('A' for Active; 'I' for Inactive)
REMARK    1  A    between atoms: C_2  and  C_3 
REMARK    2  A    between atoms: C_3  and  O_6 
REMARK    3  A    between atoms: C_3  and  C_4 
REMARK    4  A    between atoms: C_7  and  O_6 
REMARK    5  A    between atoms: C_9  and  C_10 
REMARK    6  A    between atoms: N_15  and  C_14 
REMARK    7  A    between atoms: N_20  and  C_19 
REMARK       I    between atoms: C_22  and  N_20 
ROOT
ATOM      1  C   LIG d   1      -6.122  93.220 118.361  0.00  0.00     0.161 C 
ATOM      2  C   LIG d   1      -6.967  92.808 117.317  0.00  0.00     0.016 C 
ATOM      3  C   LIG d   1      -6.601  91.836 116.357  0.00  0.00     0.038 C 
ATOM      4  C   LIG d   1      -5.414  91.097 116.466  0.00  0.00     0.028 C 
ATOM      5  C   LIG d   1      -4.308  91.834 117.213  0.00  0.00    -0.047 C 
ATOM      6  C   LIG d   1      -4.867  92.345 118.561  0.00  0.00     0.091 C 
ENDROOT
BRANCH   1   7
ATOM      7  O   LIG d   1      -6.870  93.310 119.589  0.00  0.00    -0.368 OA
BRANCH   7   8
ATOM      8  C   LIG d   1      -7.098  94.647 120.100  0.00  0.00     0.119 C 
BRANCH   8   9
ATOM      9  C   LIG d   1      -8.512  95.075 119.662  0.00  0.00     0.028 C 
ATOM     10  C   LIG d   1      -8.489  96.034 118.460  0.00  0.00     0.006 C 
ENDBRANCH   8   9
BRANCH   8  11
ATOM     11  C   LIG d   1      -6.149  95.660 119.453  0.00  0.00     0.028 C 
ATOM     12  C   LIG d   1      -5.209  96.328 120.469  0.00  0.00     0.006 C 
ENDBRANCH   8  11
ENDBRANCH   7   8
ENDBRANCH   1   7
BRANCH   6  13
ATOM     13  N   LIG d   1      -3.873  93.149 119.318  0.00  0.00    -0.311 N 
ATOM     14  C   LIG d   1      -3.077  92.638 120.256  0.00  0.00     0.210 C 
ATOM     15  C   LIG d   1      -2.140  93.646 120.929  0.00  0.00     0.109 C 
ATOM     16  O   LIG d   1      -3.036  91.440 120.572  0.00  0.00    -0.276 OA
ATOM     17  H   LIG d   1      -3.818  94.126 119.103  0.00  0.00     0.149 HD
ENDBRANCH   6  13
BRANCH   5  18
ATOM     18  N   LIG d   1      -3.178  90.899 117.373  0.00  0.00     0.381 N 
ATOM     19  H   LIG d   1      -2.383  91.387 117.733  0.00  0.00    -0.090 HD
ATOM     20  H   LIG d   1      -2.937  90.523 116.473  0.00  0.00    -0.090 HD
ATOM     21  H   LIG d   1      -3.432  90.160 117.992  0.00  0.00    -0.090 HD
ENDBRANCH   5  18
BRANCH   3  22
ATOM     22  C   LIG d   1      -7.410  91.625 115.251  0.00  0.00     0.382 C 
ATOM     23  O   LIG d   1      -8.355  90.803 115.313  0.00  0.00    -0.241 OA
ATOM     24  O   LIG d   1      -7.178  92.213 114.178  0.00  0.00    -0.241 OA
ENDBRANCH   3  22
TORSDOF 7
ENDMDL
MODEL 4
REMARK VINA RESULT:      -4.7      2.413      5.022
REMARK  7 active torsions:
REMARK  status: ('A' for Active; 'I' for Inactive)
REMARK    1  A    between atoms: C_2  and  C_3 
REMARK    2  A    between atoms: C_3  and  O_6 
REMARK    3  A    between atoms: C_3  and  C_4 
REMARK    4  A    between atoms: C_7  and  O_6 
REMARK    5  A    between atoms: C_9  and  C_10 
REMARK    6  A    between atoms: N_15  and  C_14 
REMARK    7  A    between atoms: N_20  and  C_19 
REMARK       I    between atoms: C_22  and  N_20 
ROOT
ATOM      1  C   LIG d   1      -5.780  93.552 119.173  0.00  0.00     0.161 C 
ATOM      2  C   LIG d   1      -5.171  92.576 118.366  0.00  0.00     0.016 C 
ATOM      3  C   LIG d   1      -5.813  91.966 117.264  0.00  0.00     0.038 C 
ATOM      4  C   LIG d   1      -7.063  92.403 116.799  0.00  0.00     0.028 C 
ATOM      5  C   LIG d   1      -7.926  93.036 117.885  0.00  0.00    -0.047 C 
ATOM      6  C   LIG d   1      -7.101  94.121 118.613  0.00  0.00     0.091 C 
ENDROOT
BRANCH   1   7
ATOM      7  O   LIG d   1      -4.847  94.619 119.437  0.00  0.00    -0.368 OA
BRANCH   7   8
ATOM      8  C   LIG d   1      -3.446  94.303 119.244  0.00  0.00     0.119 C 
BRANCH   8   9
ATOM      9  C   LIG d   1      -2.839  94.026 120.633  0.00  0.00     0.028 C 
ATOM     10  C   LIG d   1      -2.159  92.649 120.712  0.00  0.00     0.006 C 
ENDBRANCH   8   9
BRANCH   8  11
ATOM     11  C   LIG d   1      -2.674  95.507 118.696  0.00  0.00     0.028 C 
ATOM     12  C   LIG d   1      -1.277  95.132 118.176  0.00  0.00     0.006 C 
ENDBRANCH   8  11
ENDBRANCH   7   8
ENDBRANCH   1   7
BRANCH   6  13
ATOM     13  N   LIG d   1      -7.843  94.732 119.747  0.00  0.00    -0.311 N 
ATOM     14  C   LIG d   1      -8.570  95.843 119.634  0.00  0.00     0.210 C 
ATOM     15  C   LIG d   1      -9.237  96.313 120.930  0.00  0.00     0.109 C 
ATOM     16  O   LIG d   1      -8.751  96.464 118.576  0.00  0.00    -0.276 OA
ATOM     17  H   LIG d   1      -7.776  94.275 120.635  0.00  0.00     0.149 HD
ENDBRANCH   6  13
BRANCH   5  18
ATOM     18  N   LIG d   1      -9.138  93.569 117.237  0.00  0.00     0.381 N 
ATOM     19  H   LIG d   1      -9.323  94.494 117.571  0.00  0.00    -0.090 HD
ATOM     20  H   LIG d   1      -9.920  92.985 117.478  0.00  0.00    -0.090 HD
ATOM     21  H   LIG d   1      -9.018  93.584 116.248  0.00  0.00    -0.090 HD
ENDBRANCH   5  18
BRANCH   3  22
ATOM     22  C   LIG d   1      -5.221  90.879 116.639  0.00  0.00     0.382 C 
ATOM     23  O   LIG d   1      -5.730  90.402 115.597  0.00  0.00    -0.241 OA
ATOM     24  O   LIG d   1      -4.210  90.342 117.130  0.00  0.00    -0.241 OA
ENDBRANCH   3  22
TORSDOF 7
ENDMDL
MODEL 5
REMARK VINA RESULT:      -4.7      2.204      5.038
REMARK  7 active torsions:
REMARK  status: ('A' for Active; 'I' for Inactive)
REMARK    1  A    between atoms: C_2  and  C_3 
REMARK    2  A    between atoms: C_3  and  O_6 
REMARK    3  A    between atoms: C_3  and  C_4 
REMARK    4  A    between atoms: C_7  and  O_6 
REMARK    5  A    between atoms: C_9  and  C_10 
REMARK    6  A    between atoms: N_15  and  C_14 
REMARK    7  A    between atoms: N_20  and  C_19 
REMARK       I    between atoms: C_22  and  N_20 
ROOT
ATOM      1  C   LIG d   1      -6.655  93.118 118.515  0.00  0.00     0.161 C 
ATOM      2  C   LIG d   1      -5.725  93.643 119.428  0.00  0.00     0.016 C 
ATOM      3  C   LIG d   1      -4.346  93.333 119.399  0.00  0.00     0.038 C 
ATOM      4  C   LIG d   1      -3.775  92.589 118.355  0.00  0.00     0.028 C 
ATOM      5  C   LIG d   1      -4.752  91.623 117.695  0.00  0.00    -0.047 C 
ATOM      6  C   LIG d   1      -6.033  92.394 117.303  0.00  0.00     0.091 C 
ENDROOT
BRANCH   1   7
ATOM      7  O   LIG d   1      -7.547  94.160 118.073  0.00  0.00    -0.368 OA
BRANCH   7   8
ATOM      8  C   LIG d   1      -7.762  95.252 119.001  0.00  0.00     0.119 C 
BRANCH   8   9
ATOM      9  C   LIG d   1      -9.230  95.183 119.465  0.00  0.00     0.028 C 
ATOM     10  C   LIG d   1      -9.556  96.236 120.537  0.00  0.00     0.006 C 
ENDBRANCH   8   9
BRANCH   8  11
ATOM     11  C   LIG d   1      -7.619  96.610 118.307  0.00  0.00     0.028 C 
ATOM     12  C   LIG d   1      -6.419  97.420 118.822  0.00  0.00     0.006 C 
ENDBRANCH   8  11
ENDBRANCH   7   8
ENDBRANCH   1   7
BRANCH   6  13
ATOM     13  N   LIG d   1      -7.076  91.505 116.727  0.00  0.00    -0.311 N 
ATOM     14  C   LIG d   1      -7.258  91.341 115.418  0.00  0.00     0.210 C 
ATOM     15  C   LIG d   1      -8.401  90.395 115.037  0.00  0.00     0.109 C 
ATOM     16  O   LIG d   1      -6.559  91.863 114.536  0.00  0.00    -0.276 OA
ATOM     17  H   LIG d   1      -7.668  91.018 117.372  0.00  0.00     0.149 HD
ENDBRANCH   6  13
BRANCH   5  18
ATOM     18  N   LIG d   1      -4.067  91.015 116.539  0.00  0.00     0.381 N 
ATOM     19  H   LIG d   1      -3.090  90.923 116.735  0.00  0.00    -0.090 HD
ATOM     20  H   LIG d   1      -4.173  91.620 115.744  0.00  0.00    -0.090 HD
ATOM     21  H   LIG d   1      -4.459  90.121 116.341  0.00  0.00    -0.090 HD
ENDBRANCH   5  18
BRANCH   3  22
ATOM     22  C   LIG d   1      -3.528  93.735 120.444  0.00  0.00     0.382 C 
ATOM     23  O   LIG d   1      -3.600  94.909 120.880  0.00  0.00    -0.241 OA
ATOM     24  O   LIG d   1      -2.690  92.951 120.928  0.00  0.00    -0.241 OA
ENDBRANCH   3  22
TORSDOF 7
ENDMDL
MODEL 6
REMARK VINA RESULT:      -4.4      2.269      4.816
REMARK  7 active torsions:
REMARK  status: ('A' for Active; 'I' for Inactive)
REMARK    1  A    between atoms: C_2  and  C_3 
REMARK    2  A    between atoms: C_3  and  O_6 
REMARK    3  A    between atoms: C_3  and  C_4 
REMARK    4  A    between atoms: C_7  and  O_6 
REMARK    5  A    between atoms: C_9  and  C_10 
REMARK    6  A    between atoms: N_15  and  C_14 
REMARK    7  A    between atoms: N_20  and  C_19 
REMARK       I    between atoms: C_22  and  N_20 
ROOT
ATOM      1  C   LIG d   1      -4.423  91.680 118.560  0.00  0.00     0.161 C 
ATOM      2  C   LIG d   1      -4.991  92.743 119.283  0.00  0.00     0.016 C 
ATOM      3  C   LIG d   1      -4.385  94.014 119.403  0.00  0.00     0.038 C 
ATOM      4  C   LIG d   1      -3.235  94.358 118.678  0.00  0.00     0.028 C 
ATOM      5  C   LIG d   1      -2.354  93.162 118.336  0.00  0.00    -0.047 C 
ATOM      6  C   LIG d   1      -3.225  92.071 117.671  0.00  0.00     0.091 C 
ENDROOT
BRANCH   1   7
ATOM      7  O   LIG d   1      -5.439  91.027 117.773  0.00  0.00    -0.368 OA
BRANCH   7   8
ATOM      8  C   LIG d   1      -6.012  91.808 116.696  0.00  0.00     0.119 C 
BRANCH   8   9
ATOM      9  C   LIG d   1      -7.487  92.075 117.052  0.00  0.00     0.028 C 
ATOM     10  C   LIG d   1      -7.739  93.538 117.454  0.00  0.00     0.006 C 
ENDBRANCH   8   9
BRANCH   8  11
ATOM     11  C   LIG d   1      -6.047  91.012 115.388  0.00  0.00     0.028 C 
ATOM     12  C   LIG d   1      -6.989  91.628 114.341  0.00  0.00     0.006 C 
ENDBRANCH   8  11
ENDBRANCH   7   8
ENDBRANCH   1   7
BRANCH   6  13
ATOM     13  N   LIG d   1      -2.457  90.832 117.380  0.00  0.00    -0.311 N 
ATOM     14  C   LIG d   1      -1.778  90.156 118.306  0.00  0.00     0.210 C 
ATOM     15  C   LIG d   1      -1.040  88.917 117.790  0.00  0.00     0.109 C 
ATOM     16  O   LIG d   1      -1.743  90.448 119.511  0.00  0.00    -0.276 OA
ATOM     17  H   LIG d   1      -2.457  90.507 116.433  0.00  0.00     0.149 HD
ENDBRANCH   6  13
BRANCH   5  18
ATOM     18  N   LIG d   1      -1.266  93.644 117.464  0.00  0.00     0.381 N 
ATOM     19  H   LIG d   1      -1.497  93.470 116.506  0.00  0.00    -0.090 HD
ATOM     20  H   LIG d   1      -0.426  93.138 117.682  0.00  0.00    -0.090 HD
ATOM     21  H   LIG d   1      -1.122  94.619 117.606  0.00  0.00    -0.090 HD
ENDBRANCH   5  18
BRANCH   3  22
ATOM     22  C   LIG d   1      -4.909  94.944 120.288  0.00  0.00     0.382 C 
ATOM     23  O   LIG d   1      -4.200  95.901 120.684  0.00  0.00    -0.241 OA
ATOM     24  O   LIG d   1      -6.066  94.814 120.730  0.00  0.00    -0.241 OA
ENDBRANCH   3  22
TORSDOF 7
ENDMDL
MODEL 7
REMARK VINA RESULT:      -4.4      1.581      2.119
REMARK  7 active torsions:
REMARK  status: ('A' for Active; 'I' for Inactive)
REMARK    1  A    between atoms: C_2  and  C_3 
REMARK    2  A    between atoms: C_3  and  O_6 
REMARK    3  A    between atoms: C_3  and  C_4 
REMARK    4  A    between atoms: C_7  and  O_6 
REMARK    5  A    between atoms: C_9  and  C_10 
REMARK    6  A    between atoms: N_15  and  C_14 
REMARK    7  A    between atoms: N_20  and  C_19 
REMARK       I    between atoms: C_22  and  N_20 
ROOT
ATOM      1  C   LIG d   1      -5.301  93.127 118.721  0.00  0.00     0.161 C 
ATOM      2  C   LIG d   1      -5.497  94.176 119.634  0.00  0.00     0.016 C 
ATOM      3  C   LIG d   1      -6.699  94.915 119.725  0.00  0.00     0.038 C 
ATOM      4  C   LIG d   1      -7.848  94.553 119.006  0.00  0.00     0.028 C 
ATOM      5  C   LIG d   1      -7.542  93.817 117.706  0.00  0.00    -0.047 C 
ATOM      6  C   LIG d   1      -6.581  92.645 118.007  0.00  0.00     0.091 C 
ENDROOT
BRANCH   1   7
ATOM      7  O   LIG d   1      -4.648  92.022 119.378  0.00  0.00    -0.368 OA
BRANCH   7   8
ATOM      8  C   LIG d   1      -3.200  92.038 119.364  0.00  0.00     0.119 C 
BRANCH   8   9
ATOM      9  C   LIG d   1      -2.725  90.617 119.004  0.00  0.00     0.028 C 
ATOM     10  C   LIG d   1      -1.821  90.597 117.760  0.00  0.00     0.006 C 
ENDBRANCH   8   9
BRANCH   8  11
ATOM     11  C   LIG d   1      -2.631  92.315 120.758  0.00  0.00     0.028 C 
ATOM     12  C   LIG d   1      -1.282  93.050 120.717  0.00  0.00     0.006 C 
ENDBRANCH   8  11
ENDBRANCH   7   8
ENDBRANCH   1   7
BRANCH   6  13
ATOM     13  N   LIG d   1      -6.165  91.923 116.776  0.00  0.00    -0.311 N 
ATOM     14  C   LIG d   1      -6.936  91.037 116.149  0.00  0.00     0.210 C 
ATOM     15  C   LIG d   1      -6.307  90.394 114.909  0.00  0.00     0.109 C 
ATOM     16  O   LIG d   1      -8.095  90.747 116.483  0.00  0.00    -0.276 OA
ATOM     17  H   LIG d   1      -5.251  92.122 116.418  0.00  0.00     0.149 HD
ENDBRANCH   6  13
BRANCH   5  18
ATOM     18  N   LIG d   1      -8.827  93.379 117.130  0.00  0.00     0.381 N 
ATOM     19  H   LIG d   1      -9.315  94.166 116.750  0.00  0.00    -0.090 HD
ATOM     20  H   LIG d   1      -9.392  92.980 117.859  0.00  0.00    -0.090 HD
ATOM     21  H   LIG d   1      -8.668  92.702 116.416  0.00  0.00    -0.090 HD
ENDBRANCH   5  18
BRANCH   3  22
ATOM     22  C   LIG d   1      -6.746  96.056 120.512  0.00  0.00     0.382 C 
ATOM     23  O   LIG d   1      -5.682  96.592 120.905  0.00  0.00    -0.241 OA
ATOM     24  O   LIG d   1      -7.841  96.530 120.872  0.00  0.00    -0.241 OA
ENDBRANCH   3  22
TORSDOF 7
ENDMDL
MODEL 8
REMARK VINA RESULT:      -4.3      3.364      5.254
REMARK  7 active torsions:
REMARK  status: ('A' for Active; 'I' for Inactive)
REMARK    1  A    between atoms: C_2  and  C_3 
REMARK    2  A    between atoms: C_3  and  O_6 
REMARK    3  A    between atoms: C_3  and  C_4 
REMARK    4  A    between atoms: C_7  and  O_6 
REMARK    5  A    between atoms: C_9  and  C_10 
REMARK    6  A    between atoms: N_15  and  C_14 
REMARK    7  A    between atoms: N_20  and  C_19 
REMARK       I    between atoms: C_22  and  N_20 
ROOT
ATOM      1  C   LIG d   1      -0.746  91.494 118.057  0.00  0.00     0.161 C 
ATOM      2  C   LIG d   1       0.561  91.925 118.338  0.00  0.00     0.016 C 
ATOM      3  C   LIG d   1       0.916  93.286 118.491  0.00  0.00     0.038 C 
ATOM      4  C   LIG d   1      -0.049  94.304 118.523  0.00  0.00     0.028 C 
ATOM      5  C   LIG d   1      -1.314  93.965 117.742  0.00  0.00    -0.047 C 
ATOM      6  C   LIG d   1      -1.831  92.582 118.199  0.00  0.00     0.091 C 
ENDROOT
BRANCH   1   7
ATOM      7  O   LIG d   1      -1.070  90.353 118.876  0.00  0.00    -0.368 OA
BRANCH   7   8
ATOM      8  C   LIG d   1      -1.484  89.158 118.169  0.00  0.00     0.119 C 
BRANCH   8   9
ATOM      9  C   LIG d   1      -2.420  88.368 119.104  0.00  0.00     0.028 C 
ATOM     10  C   LIG d   1      -3.022  89.248 120.212  0.00  0.00     0.006 C 
ENDBRANCH   8   9
BRANCH   8  11
ATOM     11  C   LIG d   1      -0.296  88.228 117.904  0.00  0.00     0.028 C 
ATOM     12  C   LIG d   1       0.689  88.169 119.083  0.00  0.00     0.006 C 
ENDBRANCH   8  11
ENDBRANCH   7   8
ENDBRANCH   1   7
BRANCH   6  13
ATOM     13  N   LIG d   1      -3.019  92.137 117.425  0.00  0.00    -0.311 N 
ATOM     14  C   LIG d   1      -4.272  92.327 117.832  0.00  0.00     0.210 C 
ATOM     15  C   LIG d   1      -5.348  91.772 116.893  0.00  0.00     0.109 C 
ATOM     16  O   LIG d   1      -4.596  92.931 118.865  0.00  0.00    -0.276 OA
ATOM     17  H   LIG d   1      -2.848  91.665 116.559  0.00  0.00     0.149 HD
ENDBRANCH   6  13
BRANCH   5  18
ATOM     18  N   LIG d   1      -2.285  95.051 117.974  0.00  0.00     0.381 N 
ATOM     19  H   LIG d   1      -2.354  95.240 118.954  0.00  0.00    -0.090 HD
ATOM     20  H   LIG d   1      -3.188  94.755 117.646  0.00  0.00    -0.090 HD
ATOM     21  H   LIG d   1      -2.000  95.873 117.489  0.00  0.00    -0.090 HD
ENDBRANCH   5  18
BRANCH   3  22
ATOM     22  C   LIG d   1       2.253  93.642 118.574  0.00  0.00     0.382 C 
ATOM     23  O   LIG d   1       3.031  93.383 117.624  0.00  0.00    -0.241 OA
ATOM     24  O   LIG d   1       2.701  94.179 119.605  0.00  0.00    -0.241 OA
ENDBRANCH   3  22
TORSDOF 7
ENDMDL
MODEL 9
REMARK VINA RESULT:      -4.2      2.798      5.320
REMARK  7 active torsions:
REMARK  status: ('A' for Active; 'I' for Inactive)
REMARK    1  A    between atoms: C_2  and  C_3 
REMARK    2  A    between atoms: C_3  and  O_6 
REMARK    3  A    between atoms: C_3  and  C_4 
REMARK    4  A    between atoms: C_7  and  O_6 
REMARK    5  A    between atoms: C_9  and  C_10 
REMARK    6  A    between atoms: N_15  and  C_14 
REMARK    7  A    between atoms: N_20  and  C_19 
REMARK       I    between atoms: C_22  and  N_20 
ROOT
ATOM      1  C   LIG d   1      -3.270  92.995 119.767  0.00  0.00     0.161 C 
ATOM      2  C   LIG d   1      -3.071  94.364 119.524  0.00  0.00     0.016 C 
ATOM      3  C   LIG d   1      -2.146  94.859 118.576  0.00  0.00     0.038 C 
ATOM      4  C   LIG d   1      -1.462  94.010 117.694  0.00  0.00     0.028 C 
ATOM      5  C   LIG d   1      -1.255  92.603 118.246  0.00  0.00    -0.047 C 
ATOM      6  C   LIG d   1      -2.613  92.052 118.737  0.00  0.00     0.091 C 
ENDROOT
BRANCH   1   7
ATOM      7  O   LIG d   1      -4.681  92.717 119.872  0.00  0.00    -0.368 OA
BRANCH   7   8
ATOM      8  C   LIG d   1      -5.535  93.389 118.914  0.00  0.00     0.119 C 
BRANCH   8   9
ATOM      9  C   LIG d   1      -6.694  94.032 119.700  0.00  0.00     0.028 C 
ATOM     10  C   LIG d   1      -6.581  95.565 119.764  0.00  0.00     0.006 C 
ENDBRANCH   8   9
BRANCH   8  11
ATOM     11  C   LIG d   1      -6.197  92.390 117.961  0.00  0.00     0.028 C 
ATOM     12  C   LIG d   1      -7.418  92.977 117.235  0.00  0.00     0.006 C 
ENDBRANCH   8  11
ENDBRANCH   7   8
ENDBRANCH   1   7
BRANCH   6  13
ATOM     13  N   LIG d   1      -2.486  90.713 119.370  0.00  0.00    -0.311 N 
ATOM     14  C   LIG d   1      -3.152  89.639 118.951  0.00  0.00     0.210 C 
ATOM     15  C   LIG d   1      -2.891  88.362 119.756  0.00  0.00     0.109 C 
ATOM     16  O   LIG d   1      -3.910  89.615 117.969  0.00  0.00    -0.276 OA
ATOM     17  H   LIG d   1      -1.868  90.636 120.154  0.00  0.00     0.149 HD
ENDBRANCH   6  13
BRANCH   5  18
ATOM     18  N   LIG d   1      -0.654  91.788 117.174  0.00  0.00     0.381 N 
ATOM     19  H   LIG d   1      -0.932  90.833 117.278  0.00  0.00    -0.090 HD
ATOM     20  H   LIG d   1       0.347  91.835 117.253  0.00  0.00    -0.090 HD
ATOM     21  H   LIG d   1      -0.941  92.130 116.284  0.00  0.00    -0.090 HD
ENDBRANCH   5  18
BRANCH   3  22
ATOM     22  C   LIG d   1      -1.870  96.217 118.531  0.00  0.00     0.382 C 
ATOM     23  O   LIG d   1      -2.803  97.051 118.616  0.00  0.00    -0.241 OA
ATOM     24  O   LIG d   1      -0.703  96.619 118.361  0.00  0.00    -0.241 OA
ENDBRANCH   3  22
TORSDOF 7
ENDMDL
