MODEL 1
REMARK VINA RESULT:      -5.2      0.000      0.000
REMARK  7 active torsions:
REMARK  status: ('A' for Active; 'I' for Inactive)
REMARK    1  A    between atoms: C_2  and  C_3 
REMARK    2  A    between atoms: C_3  and  O_6 
REMARK    3  A    between atoms: C_3  and  C_4 
REMARK    4  A    between atoms: C_7  and  O_6 
REMARK    5  A    between atoms: C_9  and  C_10 
REMARK    6  A    between atoms: N_15  and  C_14 
REMARK    7  A    between atoms: N_20  and  C_19 
REMARK       I    between atoms: C_22  and  N_20 
ROOT
ATOM      1  C   LIG d   1      -3.966  90.945 117.485  0.00  0.00     0.161 C 
ATOM      2  C   LIG d   1      -4.592  90.284 116.415  0.00  0.00     0.016 C 
ATOM      3  C   LIG d   1      -5.737  90.785 115.753  0.00  0.00     0.038 C 
ATOM      4  C   LIG d   1      -6.247  92.064 116.020  0.00  0.00     0.028 C 
ATOM      5  C   LIG d   1      -5.954  92.550 117.435  0.00  0.00    -0.047 C 
ATOM      6  C   LIG d   1      -4.442  92.394 117.717  0.00  0.00     0.091 C 
ENDROOT
BRANCH   1   7
ATOM      7  O   LIG d   1      -2.536  90.908 117.312  0.00  0.00    -0.368 OA
BRANCH   7   8
ATOM      8  C   LIG d   1      -1.799  90.105 118.267  0.00  0.00     0.119 C 
BRANCH   8   9
ATOM      9  C   LIG d   1      -1.163  88.934 117.494  0.00  0.00     0.028 C 
ATOM     10  C   LIG d   1      -2.050  87.677 117.499  0.00  0.00     0.006 C 
ENDBRANCH   8   9
BRANCH   8  11
ATOM     11  C   LIG d   1      -2.736  89.455 119.289  0.00  0.00     0.028 C 
ATOM     12  C   LIG d   1      -2.418  89.867 120.735  0.00  0.00     0.006 C 
ENDBRANCH   8  11
ENDBRANCH   7   8
ENDBRANCH   1   7
BRANCH   6  13
ATOM     13  N   LIG d   1      -4.083  92.768 119.110  0.00  0.00    -0.311 N 
ATOM     14  C   LIG d   1      -3.024  93.513 119.419  0.00  0.00     0.210 C 
ATOM     15  C   LIG d   1      -2.825  93.764 120.917  0.00  0.00     0.109 C 
ATOM     16  O   LIG d   1      -2.248  94.017 118.593  0.00  0.00    -0.276 OA
ATOM     17  H   LIG d   1      -4.677  92.427 119.841  0.00  0.00     0.149 HD
ENDBRANCH   6  13
BRANCH   5  18
ATOM     18  N   LIG d   1      -6.420  93.946 117.533  0.00  0.00     0.381 N 
ATOM     19  H   LIG d   1      -5.658  94.570 117.358  0.00  0.00    -0.090 HD
ATOM     20  H   LIG d   1      -6.756  94.112 118.465  0.00  0.00    -0.090 HD
ATOM     21  H   LIG d   1      -7.150  94.109 116.875  0.00  0.00    -0.090 HD
ENDBRANCH   5  18
BRANCH   3  22
ATOM     22  C   LIG d   1      -6.407  89.986 114.839  0.00  0.00     0.382 C 
ATOM     23  O   LIG d   1      -7.630  90.168 114.626  0.00  0.00    -0.241 OA
ATOM     24  O   LIG d   1      -5.815  89.057 114.258  0.00  0.00    -0.241 OA
ENDBRANCH   3  22
TORSDOF 7
ENDMDL
MODEL 2
REMARK VINA RESULT:      -5.1      2.400      4.527
REMARK  7 active torsions:
REMARK  status: ('A' for Active; 'I' for Inactive)
REMARK    1  A    between atoms: C_2  and  C_3 
REMARK    2  A    between atoms: C_3  and  O_6 
REMARK    3  A    between atoms: C_3  and  C_4 
REMARK    4  A    between atoms: C_7  and  O_6 
REMARK    5  A    between atoms: C_9  and  C_10 
REMARK    6  A    between atoms: N_15  and  C_14 
REMARK    7  A    between atoms: N_20  and  C_19 
REMARK       I    between atoms: C_22  and  N_20 
ROOT
ATOM      1  C   LIG d   1      -5.236  92.600 117.612  0.00  0.00     0.161 C 
ATOM      2  C   LIG d   1      -6.223  91.706 117.166  0.00  0.00     0.016 C 
ATOM      3  C   LIG d   1      -5.936  90.410 116.678  0.00  0.00     0.038 C 
ATOM      4  C   LIG d   1      -4.646  89.862 116.744  0.00  0.00     0.028 C 
ATOM      5  C   LIG d   1      -3.540  90.912 116.718  0.00  0.00    -0.047 C 
ATOM      6  C   LIG d   1      -3.835  91.979 117.796  0.00  0.00     0.091 C 
ENDROOT
BRANCH   1   7
ATOM      7  O   LIG d   1      -5.667  93.234 118.833  0.00  0.00    -0.368 OA
BRANCH   7   8
ATOM      8  C   LIG d   1      -6.795  94.136 118.719  0.00  0.00     0.119 C 
BRANCH   8   9
ATOM      9  C   LIG d   1      -6.275  95.563 118.977  0.00  0.00     0.028 C 
ATOM     10  C   LIG d   1      -7.166  96.638 118.333  0.00  0.00     0.006 C 
ENDBRANCH   8   9
BRANCH   8  11
ATOM     11  C   LIG d   1      -7.829  93.876 119.819  0.00  0.00     0.028 C 
ATOM     12  C   LIG d   1      -7.543  92.592 120.614  0.00  0.00     0.006 C 
ENDBRANCH   8  11
ENDBRANCH   7   8
ENDBRANCH   1   7
BRANCH   6  13
ATOM     13  N   LIG d   1      -2.846  93.088 117.781  0.00  0.00    -0.311 N 
ATOM     14  C   LIG d   1      -1.765  93.116 118.558  0.00  0.00     0.210 C 
ATOM     15  C   LIG d   1      -0.887  94.362 118.400  0.00  0.00     0.109 C 
ATOM     16  O   LIG d   1      -1.432  92.213 119.341  0.00  0.00    -0.276 OA
ATOM     17  H   LIG d   1      -3.022  93.848 117.153  0.00  0.00     0.149 HD
ENDBRANCH   6  13
BRANCH   5  18
ATOM     18  N   LIG d   1      -2.258  90.213 116.931  0.00  0.00     0.381 N 
ATOM     19  H   LIG d   1      -2.228  89.382 116.376  0.00  0.00    -0.090 HD
ATOM     20  H   LIG d   1      -2.189  89.949 117.898  0.00  0.00    -0.090 HD
ATOM     21  H   LIG d   1      -1.499  90.811 116.688  0.00  0.00    -0.090 HD
ENDBRANCH   5  18
BRANCH   3  22
ATOM     22  C   LIG d   1      -6.939  89.664 116.079  0.00  0.00     0.382 C 
ATOM     23  O   LIG d   1      -7.262  89.890 114.887  0.00  0.00    -0.241 OA
ATOM     24  O   LIG d   1      -7.555  88.797 116.728  0.00  0.00    -0.241 OA
ENDBRANCH   3  22
TORSDOF 7
ENDMDL
MODEL 3
REMARK VINA RESULT:      -4.9      1.554      4.639
REMARK  7 active torsions:
REMARK  status: ('A' for Active; 'I' for Inactive)
REMARK    1  A    between atoms: C_2  and  C_3 
REMARK    2  A    between atoms: C_3  and  O_6 
REMARK    3  A    between atoms: C_3  and  C_4 
REMARK    4  A    between atoms: C_7  and  O_6 
REMARK    5  A    between atoms: C_9  and  C_10 
REMARK    6  A    between atoms: N_15  and  C_14 
REMARK    7  A    between atoms: N_20  and  C_19 
REMARK       I    between atoms: C_22  and  N_20 
ROOT
ATOM      1  C   LIG d   1      -3.916  91.853 117.105  0.00  0.00     0.161 C 
ATOM      2  C   LIG d   1      -3.082  92.629 117.927  0.00  0.00     0.016 C 
ATOM      3  C   LIG d   1      -3.565  93.455 118.968  0.00  0.00     0.038 C 
ATOM      4  C   LIG d   1      -4.912  93.445 119.358  0.00  0.00     0.028 C 
ATOM      5  C   LIG d   1      -5.866  93.061 118.231  0.00  0.00    -0.047 C 
ATOM      6  C   LIG d   1      -5.378  91.743 117.588  0.00  0.00     0.091 C 
ENDROOT
BRANCH   1   7
ATOM      7  O   LIG d   1      -3.346  90.540 116.931  0.00  0.00    -0.368 OA
BRANCH   7   8
ATOM      8  C   LIG d   1      -2.469  90.081 117.988  0.00  0.00     0.119 C 
BRANCH   8   9
ATOM      9  C   LIG d   1      -1.400  89.178 117.343  0.00  0.00     0.028 C 
ATOM     10  C   LIG d   1      -1.547  87.704 117.759  0.00  0.00     0.006 C 
ENDBRANCH   8   9
BRANCH   8  11
ATOM     11  C   LIG d   1      -3.214  89.182 118.980  0.00  0.00     0.028 C 
ATOM     12  C   LIG d   1      -3.433  89.855 120.344  0.00  0.00     0.006 C 
ENDBRANCH   8  11
ENDBRANCH   7   8
ENDBRANCH   1   7
BRANCH   6  13
ATOM     13  N   LIG d   1      -6.207  91.340 116.422  0.00  0.00    -0.311 N 
ATOM     14  C   LIG d   1      -6.613  90.090 116.208  0.00  0.00     0.210 C 
ATOM     15  C   LIG d   1      -7.442  89.888 114.935  0.00  0.00     0.109 C 
ATOM     16  O   LIG d   1      -6.392  89.135 116.968  0.00  0.00    -0.276 OA
ATOM     17  H   LIG d   1      -6.458  92.059 115.771  0.00  0.00     0.149 HD
ENDBRANCH   6  13
BRANCH   5  18
ATOM     18  N   LIG d   1      -7.219  92.955 118.809  0.00  0.00     0.381 N 
ATOM     19  H   LIG d   1      -7.649  93.858 118.831  0.00  0.00    -0.090 HD
ATOM     20  H   LIG d   1      -7.144  92.619 119.753  0.00  0.00    -0.090 HD
ATOM     21  H   LIG d   1      -7.773  92.329 118.269  0.00  0.00    -0.090 HD
ENDBRANCH   5  18
BRANCH   3  22
ATOM     22  C   LIG d   1      -2.701  94.334 119.604  0.00  0.00     0.382 C 
ATOM     23  O   LIG d   1      -2.819  94.547 120.835  0.00  0.00    -0.241 OA
ATOM     24  O   LIG d   1      -1.835  94.950 118.955  0.00  0.00    -0.241 OA
ENDBRANCH   3  22
TORSDOF 7
ENDMDL
MODEL 4
REMARK VINA RESULT:      -4.8      2.455      4.622
REMARK  7 active torsions:
REMARK  status: ('A' for Active; 'I' for Inactive)
REMARK    1  A    between atoms: C_2  and  C_3 
REMARK    2  A    between atoms: C_3  and  O_6 
REMARK    3  A    between atoms: C_3  and  C_4 
REMARK    4  A    between atoms: C_7  and  O_6 
REMARK    5  A    between atoms: C_9  and  C_10 
REMARK    6  A    between atoms: N_15  and  C_14 
REMARK    7  A    between atoms: N_20  and  C_19 
REMARK       I    between atoms: C_22  and  N_20 
ROOT
ATOM      1  C   LIG d   1      -5.483  92.664 118.264  0.00  0.00     0.161 C 
ATOM      2  C   LIG d   1      -6.140  91.573 117.670  0.00  0.00     0.016 C 
ATOM      3  C   LIG d   1      -5.461  90.516 117.021  0.00  0.00     0.038 C 
ATOM      4  C   LIG d   1      -4.063  90.402 117.054  0.00  0.00     0.028 C 
ATOM      5  C   LIG d   1      -3.349  91.741 117.204  0.00  0.00    -0.047 C 
ATOM      6  C   LIG d   1      -3.956  92.501 118.406  0.00  0.00     0.091 C 
ENDROOT
BRANCH   1   7
ATOM      7  O   LIG d   1      -6.077  92.954 119.544  0.00  0.00    -0.368 OA
BRANCH   7   8
ATOM      8  C   LIG d   1      -6.525  94.318 119.745  0.00  0.00     0.119 C 
BRANCH   8   9
ATOM      9  C   LIG d   1      -7.744  94.271 120.687  0.00  0.00     0.028 C 
ATOM     10  C   LIG d   1      -8.446  92.903 120.670  0.00  0.00     0.006 C 
ENDBRANCH   8   9
BRANCH   8  11
ATOM     11  C   LIG d   1      -7.042  94.932 118.441  0.00  0.00     0.028 C 
ATOM     12  C   LIG d   1      -6.928  96.465 118.419  0.00  0.00     0.006 C 
ENDBRANCH   8  11
ENDBRANCH   7   8
ENDBRANCH   1   7
BRANCH   6  13
ATOM     13  N   LIG d   1      -3.371  93.857 118.572  0.00  0.00    -0.311 N 
ATOM     14  C   LIG d   1      -2.742  94.254 119.676  0.00  0.00     0.210 C 
ATOM     15  C   LIG d   1      -2.233  95.699 119.647  0.00  0.00     0.109 C 
ATOM     16  O   LIG d   1      -2.528  93.537 120.665  0.00  0.00    -0.276 OA
ATOM     17  H   LIG d   1      -3.472  94.494 117.806  0.00  0.00     0.149 HD
ENDBRANCH   6  13
BRANCH   5  18
ATOM     18  N   LIG d   1      -1.909  91.463 117.362  0.00  0.00     0.381 N 
ATOM     19  H   LIG d   1      -1.492  91.317 116.464  0.00  0.00    -0.090 HD
ATOM     20  H   LIG d   1      -1.798  90.623 117.902  0.00  0.00    -0.090 HD
ATOM     21  H   LIG d   1      -1.464  92.225 117.823  0.00  0.00    -0.090 HD
ENDBRANCH   5  18
BRANCH   3  22
ATOM     22  C   LIG d   1      -6.182  89.579 116.296  0.00  0.00     0.382 C 
ATOM     23  O   LIG d   1      -5.826  89.280 115.131  0.00  0.00    -0.241 OA
ATOM     24  O   LIG d   1      -7.209  89.063 116.775  0.00  0.00    -0.241 OA
ENDBRANCH   3  22
TORSDOF 7
ENDMDL
MODEL 5
REMARK VINA RESULT:      -4.8      2.460      3.379
REMARK  7 active torsions:
REMARK  status: ('A' for Active; 'I' for Inactive)
REMARK    1  A    between atoms: C_2  and  C_3 
REMARK    2  A    between atoms: C_3  and  O_6 
REMARK    3  A    between atoms: C_3  and  C_4 
REMARK    4  A    between atoms: C_7  and  O_6 
REMARK    5  A    between atoms: C_9  and  C_10 
REMARK    6  A    between atoms: N_15  and  C_14 
REMARK    7  A    between atoms: N_20  and  C_19 
REMARK       I    between atoms: C_22  and  N_20 
ROOT
ATOM      1  C   LIG d   1      -2.263  90.056 119.146  0.00  0.00     0.161 C 
ATOM      2  C   LIG d   1      -3.521  89.681 118.647  0.00  0.00     0.016 C 
ATOM      3  C   LIG d   1      -4.276  90.480 117.758  0.00  0.00     0.038 C 
ATOM      4  C   LIG d   1      -3.751  91.648 117.184  0.00  0.00     0.028 C 
ATOM      5  C   LIG d   1      -2.690  92.322 118.047  0.00  0.00    -0.047 C 
ATOM      6  C   LIG d   1      -1.626  91.274 118.445  0.00  0.00     0.091 C 
ENDROOT
BRANCH   1   7
ATOM      7  O   LIG d   1      -1.365  88.929 119.105  0.00  0.00    -0.368 OA
BRANCH   7   8
ATOM      8  C   LIG d   1      -1.882  87.725 118.486  0.00  0.00     0.119 C 
BRANCH   8   9
ATOM      9  C   LIG d   1      -1.472  86.535 119.376  0.00  0.00     0.028 C 
ATOM     10  C   LIG d   1      -2.298  86.458 120.671  0.00  0.00     0.006 C 
ENDBRANCH   8   9
BRANCH   8  11
ATOM     11  C   LIG d   1      -1.218  87.465 117.131  0.00  0.00     0.028 C 
ATOM     12  C   LIG d   1       0.135  88.180 116.984  0.00  0.00     0.006 C 
ENDBRANCH   8  11
ENDBRANCH   7   8
ENDBRANCH   1   7
BRANCH   6  13
ATOM     13  N   LIG d   1      -0.596  91.831 119.359  0.00  0.00    -0.311 N 
ATOM     14  C   LIG d   1       0.527  92.408 118.934  0.00  0.00     0.210 C 
ATOM     15  C   LIG d   1       1.463  92.897 120.043  0.00  0.00     0.109 C 
ATOM     16  O   LIG d   1       0.821  92.590 117.743  0.00  0.00    -0.276 OA
ATOM     17  H   LIG d   1      -0.768  91.754 120.342  0.00  0.00     0.149 HD
ENDBRANCH   6  13
BRANCH   5  18
ATOM     18  N   LIG d   1      -2.132  93.446 117.270  0.00  0.00     0.381 N 
ATOM     19  H   LIG d   1      -1.639  94.067 117.880  0.00  0.00    -0.090 HD
ATOM     20  H   LIG d   1      -2.888  93.954 116.846  0.00  0.00    -0.090 HD
ATOM     21  H   LIG d   1      -1.517  93.101 116.566  0.00  0.00    -0.090 HD
ENDBRANCH   5  18
BRANCH   3  22
ATOM     22  C   LIG d   1      -5.586  90.133 117.465  0.00  0.00     0.382 C 
ATOM     23  O   LIG d   1      -5.822  89.191 116.670  0.00  0.00    -0.241 OA
ATOM     24  O   LIG d   1      -6.534  90.778 117.950  0.00  0.00    -0.241 OA
ENDBRANCH   3  22
TORSDOF 7
ENDMDL
MODEL 6
REMARK VINA RESULT:      -4.5      2.697      6.191
REMARK  7 active torsions:
REMARK  status: ('A' for Active; 'I' for Inactive)
REMARK    1  A    between atoms: C_2  and  C_3 
REMARK    2  A    between atoms: C_3  and  O_6 
REMARK    3  A    between atoms: C_3  and  C_4 
REMARK    4  A    between atoms: C_7  and  O_6 
REMARK    5  A    between atoms: C_9  and  C_10 
REMARK    6  A    between atoms: N_15  and  C_14 
REMARK    7  A    between atoms: N_20  and  C_19 
REMARK       I    between atoms: C_22  and  N_20 
ROOT
ATOM      1  C   LIG d   1      -2.730  92.178 118.230  0.00  0.00     0.161 C 
ATOM      2  C   LIG d   1      -2.593  93.512 118.648  0.00  0.00     0.016 C 
ATOM      3  C   LIG d   1      -1.357  94.086 119.024  0.00  0.00     0.038 C 
ATOM      4  C   LIG d   1      -0.142  93.403 118.864  0.00  0.00     0.028 C 
ATOM      5  C   LIG d   1      -0.288  91.886 118.924  0.00  0.00    -0.047 C 
ATOM      6  C   LIG d   1      -1.400  91.450 117.943  0.00  0.00     0.091 C 
ENDROOT
BRANCH   1   7
ATOM      7  O   LIG d   1      -3.596  92.113 117.080  0.00  0.00    -0.368 OA
BRANCH   7   8
ATOM      8  C   LIG d   1      -5.019  92.137 117.351  0.00  0.00     0.119 C 
BRANCH   8   9
ATOM      9  C   LIG d   1      -5.380  90.811 118.050  0.00  0.00     0.028 C 
ATOM     10  C   LIG d   1      -6.122  91.031 119.379  0.00  0.00     0.006 C 
ENDBRANCH   8   9
BRANCH   8  11
ATOM     11  C   LIG d   1      -5.834  92.147 116.054  0.00  0.00     0.028 C 
ATOM     12  C   LIG d   1      -5.614  90.886 115.203  0.00  0.00     0.006 C 
ENDBRANCH   8  11
ENDBRANCH   7   8
ENDBRANCH   1   7
BRANCH   6  13
ATOM     13  N   LIG d   1      -1.666  89.989 118.000  0.00  0.00    -0.311 N 
ATOM     14  C   LIG d   1      -1.009  89.095 117.263  0.00  0.00     0.210 C 
ATOM     15  C   LIG d   1      -1.453  87.642 117.461  0.00  0.00     0.109 C 
ATOM     16  O   LIG d   1      -0.080  89.364 116.487  0.00  0.00    -0.276 OA
ATOM     17  H   LIG d   1      -2.383  89.680 118.627  0.00  0.00     0.149 HD
ENDBRANCH   6  13
BRANCH   5  18
ATOM     18  N   LIG d   1       1.027  91.299 118.605  0.00  0.00     0.381 N 
ATOM     19  H   LIG d   1       1.022  90.321 118.817  0.00  0.00    -0.090 HD
ATOM     20  H   LIG d   1       1.727  91.742 119.173  0.00  0.00    -0.090 HD
ATOM     21  H   LIG d   1       1.237  91.436 117.640  0.00  0.00    -0.090 HD
ENDBRANCH   5  18
BRANCH   3  22
ATOM     22  C   LIG d   1      -1.332  95.345 119.606  0.00  0.00     0.382 C 
ATOM     23  O   LIG d   1      -0.486  95.609 120.494  0.00  0.00    -0.241 OA
ATOM     24  O   LIG d   1      -2.174  96.205 119.286  0.00  0.00    -0.241 OA
ENDBRANCH   3  22
TORSDOF 7
ENDMDL
MODEL 7
REMARK VINA RESULT:      -4.4      2.697      4.754
REMARK  7 active torsions:
REMARK  status: ('A' for Active; 'I' for Inactive)
REMARK    1  A    between atoms: C_2  and  C_3 
REMARK    2  A    between atoms: C_3  and  O_6 
REMARK    3  A    between atoms: C_3  and  C_4 
REMARK    4  A    between atoms: C_7  and  O_6 
REMARK    5  A    between atoms: C_9  and  C_10 
REMARK    6  A    between atoms: N_15  and  C_14 
REMARK    7  A    between atoms: N_20  and  C_19 
REMARK       I    between atoms: C_22  and  N_20 
ROOT
ATOM      1  C   LIG d   1      -2.758  92.390 117.563  0.00  0.00     0.161 C 
ATOM      2  C   LIG d   1      -2.480  91.029 117.357  0.00  0.00     0.016 C 
ATOM      3  C   LIG d   1      -1.231  90.436 117.650  0.00  0.00     0.038 C 
ATOM      4  C   LIG d   1      -0.215  91.139 118.315  0.00  0.00     0.028 C 
ATOM      5  C   LIG d   1      -0.270  92.645 118.086  0.00  0.00    -0.047 C 
ATOM      6  C   LIG d   1      -1.699  93.148 118.392  0.00  0.00     0.091 C 
ENDROOT
BRANCH   1   7
ATOM      7  O   LIG d   1      -4.061  92.538 118.161  0.00  0.00    -0.368 OA
BRANCH   7   8
ATOM      8  C   LIG d   1      -5.100  91.667 117.649  0.00  0.00     0.119 C 
BRANCH   8   9
ATOM      9  C   LIG d   1      -6.073  92.539 116.832  0.00  0.00     0.028 C 
ATOM     10  C   LIG d   1      -6.193  92.073 115.371  0.00  0.00     0.006 C 
ENDBRANCH   8   9
BRANCH   8  11
ATOM     11  C   LIG d   1      -5.940  91.075 118.784  0.00  0.00     0.028 C 
ATOM     12  C   LIG d   1      -5.119  90.805 120.055  0.00  0.00     0.006 C 
ENDBRANCH   8  11
ENDBRANCH   7   8
ENDBRANCH   1   7
BRANCH   6  13
ATOM     13  N   LIG d   1      -1.862  94.598 118.112  0.00  0.00    -0.311 N 
ATOM     14  C   LIG d   1      -1.603  95.551 119.006  0.00  0.00     0.210 C 
ATOM     15  C   LIG d   1      -1.857  96.981 118.518  0.00  0.00     0.109 C 
ATOM     16  O   LIG d   1      -1.156  95.349 120.145  0.00  0.00    -0.276 OA
ATOM     17  H   LIG d   1      -2.191  94.853 117.201  0.00  0.00     0.149 HD
ENDBRANCH   6  13
BRANCH   5  18
ATOM     18  N   LIG d   1       0.758  93.264 118.944  0.00  0.00     0.381 N 
ATOM     19  H   LIG d   1       1.426  92.574 119.224  0.00  0.00    -0.090 HD
ATOM     20  H   LIG d   1       0.315  93.628 119.770  0.00  0.00    -0.090 HD
ATOM     21  H   LIG d   1       1.215  94.000 118.452  0.00  0.00    -0.090 HD
ENDBRANCH   5  18
BRANCH   3  22
ATOM     22  C   LIG d   1      -0.973  89.137 117.239  0.00  0.00     0.382 C 
ATOM     23  O   LIG d   1      -1.716  88.200 117.621  0.00  0.00    -0.241 OA
ATOM     24  O   LIG d   1       0.018  88.883 116.529  0.00  0.00    -0.241 OA
ENDBRANCH   3  22
TORSDOF 7
ENDMDL
MODEL 8
REMARK VINA RESULT:      -4.4      1.894      4.501
REMARK  7 active torsions:
REMARK  status: ('A' for Active; 'I' for Inactive)
REMARK    1  A    between atoms: C_2  and  C_3 
REMARK    2  A    between atoms: C_3  and  O_6 
REMARK    3  A    between atoms: C_3  and  C_4 
REMARK    4  A    between atoms: C_7  and  O_6 
REMARK    5  A    between atoms: C_9  and  C_10 
REMARK    6  A    between atoms: N_15  and  C_14 
REMARK    7  A    between atoms: N_20  and  C_19 
REMARK       I    between atoms: C_22  and  N_20 
ROOT
ATOM      1  C   LIG d   1      -3.460  90.065 117.331  0.00  0.00     0.161 C 
ATOM      2  C   LIG d   1      -2.249  90.708 117.638  0.00  0.00     0.016 C 
ATOM      3  C   LIG d   1      -2.162  92.072 118.001  0.00  0.00     0.038 C 
ATOM      4  C   LIG d   1      -3.306  92.852 118.228  0.00  0.00     0.028 C 
ATOM      5  C   LIG d   1      -4.525  92.385 117.441  0.00  0.00    -0.047 C 
ATOM      6  C   LIG d   1      -4.727  90.871 117.682  0.00  0.00     0.091 C 
ENDROOT
BRANCH   1   7
ATOM      7  O   LIG d   1      -3.499  88.770 117.962  0.00  0.00    -0.368 OA
BRANCH   7   8
ATOM      8  C   LIG d   1      -2.242  88.279 118.489  0.00  0.00     0.119 C 
BRANCH   8   9
ATOM      9  C   LIG d   1      -1.671  87.276 117.468  0.00  0.00     0.028 C 
ATOM     10  C   LIG d   1      -0.336  87.747 116.866  0.00  0.00     0.006 C 
ENDBRANCH   8   9
BRANCH   8  11
ATOM     11  C   LIG d   1      -2.453  87.473 119.774  0.00  0.00     0.028 C 
ATOM     12  C   LIG d   1      -1.346  86.434 120.015  0.00  0.00     0.006 C 
ENDBRANCH   8  11
ENDBRANCH   7   8
ENDBRANCH   1   7
BRANCH   6  13
ATOM     13  N   LIG d   1      -5.850  90.315 116.882  0.00  0.00    -0.311 N 
ATOM     14  C   LIG d   1      -6.149  90.730 115.652  0.00  0.00     0.210 C 
ATOM     15  C   LIG d   1      -7.357  90.038 115.012  0.00  0.00     0.109 C 
ATOM     16  O   LIG d   1      -5.509  91.582 115.017  0.00  0.00    -0.276 OA
ATOM     17  H   LIG d   1      -6.402  89.597 117.308  0.00  0.00     0.149 HD
ENDBRANCH   6  13
BRANCH   5  18
ATOM     18  N   LIG d   1      -5.676  93.198 117.877  0.00  0.00     0.381 N 
ATOM     19  H   LIG d   1      -5.429  93.725 118.691  0.00  0.00    -0.090 HD
ATOM     20  H   LIG d   1      -6.435  92.585 118.116  0.00  0.00    -0.090 HD
ATOM     21  H   LIG d   1      -5.954  93.815 117.145  0.00  0.00    -0.090 HD
ENDBRANCH   5  18
BRANCH   3  22
ATOM     22  C   LIG d   1      -0.920  92.679 118.100  0.00  0.00     0.382 C 
ATOM     23  O   LIG d   1      -0.799  93.760 118.725  0.00  0.00    -0.241 OA
ATOM     24  O   LIG d   1       0.073  92.182 117.535  0.00  0.00    -0.241 OA
ENDBRANCH   3  22
TORSDOF 7
ENDMDL
MODEL 9
REMARK VINA RESULT:      -4.3      2.348      4.534
REMARK  7 active torsions:
REMARK  status: ('A' for Active; 'I' for Inactive)
REMARK    1  A    between atoms: C_2  and  C_3 
REMARK    2  A    between atoms: C_3  and  O_6 
REMARK    3  A    between atoms: C_3  and  C_4 
REMARK    4  A    between atoms: C_7  and  O_6 
REMARK    5  A    between atoms: C_9  and  C_10 
REMARK    6  A    between atoms: N_15  and  C_14 
REMARK    7  A    between atoms: N_20  and  C_19 
REMARK       I    between atoms: C_22  and  N_20 
ROOT
ATOM      1  C   LIG d   1      -5.186  92.973 118.444  0.00  0.00     0.161 C 
ATOM      2  C   LIG d   1      -6.046  92.040 117.841  0.00  0.00     0.016 C 
ATOM      3  C   LIG d   1      -5.590  90.927 117.099  0.00  0.00     0.038 C 
ATOM      4  C   LIG d   1      -4.231  90.585 117.036  0.00  0.00     0.028 C 
ATOM      5  C   LIG d   1      -3.297  91.779 117.205  0.00  0.00    -0.047 C 
ATOM      6  C   LIG d   1      -3.701  92.555 118.479  0.00  0.00     0.091 C 
ENDROOT
BRANCH   1   7
ATOM      7  O   LIG d   1      -5.652  93.280 119.773  0.00  0.00    -0.368 OA
BRANCH   7   8
ATOM      8  C   LIG d   1      -6.175  94.616 119.972  0.00  0.00     0.119 C 
BRANCH   8   9
ATOM      9  C   LIG d   1      -6.093  95.352 118.620  0.00  0.00     0.028 C 
ATOM     10  C   LIG d   1      -7.338  96.212 118.344  0.00  0.00     0.006 C 
ENDBRANCH   8   9
BRANCH   8  11
ATOM     11  C   LIG d   1      -5.292  95.424 120.928  0.00  0.00     0.028 C 
ATOM     12  C   LIG d   1      -4.481  96.515 120.211  0.00  0.00     0.006 C 
ENDBRANCH   8  11
ENDBRANCH   7   8
ENDBRANCH   1   7
BRANCH   6  13
ATOM     13  N   LIG d   1      -2.892  93.786 118.674  0.00  0.00    -0.311 N 
ATOM     14  C   LIG d   1      -1.784  93.826 119.413  0.00  0.00     0.210 C 
ATOM     15  C   LIG d   1      -1.113  95.200 119.498  0.00  0.00     0.109 C 
ATOM     16  O   LIG d   1      -1.277  92.847 119.980  0.00  0.00    -0.276 OA
ATOM     17  H   LIG d   1      -3.214  94.620 118.224  0.00  0.00     0.149 HD
ENDBRANCH   6  13
BRANCH   5  18
ATOM     18  N   LIG d   1      -1.917  91.261 117.257  0.00  0.00     0.381 N 
ATOM     19  H   LIG d   1      -1.725  90.898 118.169  0.00  0.00    -0.090 HD
ATOM     20  H   LIG d   1      -1.279  92.017 117.078  0.00  0.00    -0.090 HD
ATOM     21  H   LIG d   1      -1.795  90.546 116.574  0.00  0.00    -0.090 HD
ENDBRANCH   5  18
BRANCH   3  22
ATOM     22  C   LIG d   1      -6.495  90.165 116.376  0.00  0.00     0.382 C 
ATOM     23  O   LIG d   1      -7.059  90.652 115.367  0.00  0.00    -0.241 OA
ATOM     24  O   LIG d   1      -6.788  89.012 116.746  0.00  0.00    -0.241 OA
ENDBRANCH   3  22
TORSDOF 7
ENDMDL
