MODEL 1
REMARK VINA RESULT:      -5.5      0.000      0.000
REMARK  7 active torsions:
REMARK  status: ('A' for Active; 'I' for Inactive)
REMARK    1  A    between atoms: C_2  and  C_3 
REMARK    2  A    between atoms: C_3  and  O_6 
REMARK    3  A    between atoms: C_3  and  C_4 
REMARK    4  A    between atoms: C_7  and  O_6 
REMARK    5  A    between atoms: C_9  and  C_10 
REMARK    6  A    between atoms: N_15  and  C_14 
REMARK    7  A    between atoms: N_20  and  C_19 
REMARK       I    between atoms: C_22  and  N_20 
ROOT
ATOM      1  C   LIG d   1      -6.217  93.238 118.715  0.00  0.00     0.161 C 
ATOM      2  C   LIG d   1      -7.110  92.499 117.920  0.00  0.00     0.016 C 
ATOM      3  C   LIG d   1      -6.709  91.424 117.094  0.00  0.00     0.038 C 
ATOM      4  C   LIG d   1      -5.402  90.915 117.122  0.00  0.00     0.028 C 
ATOM      5  C   LIG d   1      -4.357  91.948 117.529  0.00  0.00    -0.047 C 
ATOM      6  C   LIG d   1      -4.807  92.625 118.844  0.00  0.00     0.091 C 
ENDROOT
BRANCH   1   7
ATOM      7  O   LIG d   1      -6.790  93.454 120.020  0.00  0.00    -0.368 OA
BRANCH   7   8
ATOM      8  C   LIG d   1      -7.219  94.807 120.311  0.00  0.00     0.119 C 
BRANCH   8   9
ATOM      9  C   LIG d   1      -8.760  94.824 120.269  0.00  0.00     0.028 C 
ATOM     10  C   LIG d   1      -9.305  95.415 118.959  0.00  0.00     0.006 C 
ENDBRANCH   8   9
BRANCH   8  11
ATOM     11  C   LIG d   1      -6.774  95.781 119.215  0.00  0.00     0.028 C 
ATOM     12  C   LIG d   1      -5.743  96.806 119.713  0.00  0.00     0.006 C 
ENDBRANCH   8  11
ENDBRANCH   7   8
ENDBRANCH   1   7
BRANCH   6  13
ATOM     13  N   LIG d   1      -3.883  93.709 119.268  0.00  0.00    -0.311 N 
ATOM     14  C   LIG d   1      -2.884  93.526 120.130  0.00  0.00     0.210 C 
ATOM     15  C   LIG d   1      -2.064  94.781 120.446  0.00  0.00     0.109 C 
ATOM     16  O   LIG d   1      -2.579  92.436 120.637  0.00  0.00    -0.276 OA
ATOM     17  H   LIG d   1      -4.039  94.619 118.881  0.00  0.00     0.149 HD
ENDBRANCH   6  13
BRANCH   5  18
ATOM     18  N   LIG d   1      -3.064  91.250 117.651  0.00  0.00     0.381 N 
ATOM     19  H   LIG d   1      -3.218  90.268 117.759  0.00  0.00    -0.090 HD
ATOM     20  H   LIG d   1      -2.589  91.587 118.470  0.00  0.00    -0.090 HD
ATOM     21  H   LIG d   1      -2.507  91.420 116.842  0.00  0.00    -0.090 HD
ENDBRANCH   5  18
BRANCH   3  22
ATOM     22  C   LIG d   1      -7.611  90.873 116.197  0.00  0.00     0.382 C 
ATOM     23  O   LIG d   1      -8.519  91.585 115.703  0.00  0.00    -0.241 OA
ATOM     24  O   LIG d   1      -7.556  89.663 115.908  0.00  0.00    -0.241 OA
ENDBRANCH   3  22
TORSDOF 7
ENDMDL
MODEL 2
REMARK VINA RESULT:      -4.4      2.501      4.614
REMARK  7 active torsions:
REMARK  status: ('A' for Active; 'I' for Inactive)
REMARK    1  A    between atoms: C_2  and  C_3 
REMARK    2  A    between atoms: C_3  and  O_6 
REMARK    3  A    between atoms: C_3  and  C_4 
REMARK    4  A    between atoms: C_7  and  O_6 
REMARK    5  A    between atoms: C_9  and  C_10 
REMARK    6  A    between atoms: N_15  and  C_14 
REMARK    7  A    between atoms: N_20  and  C_19 
REMARK       I    between atoms: C_22  and  N_20 
ROOT
ATOM      1  C   LIG d   1      -5.852  93.554 120.234  0.00  0.00     0.161 C 
ATOM      2  C   LIG d   1      -4.729  92.845 119.778  0.00  0.00     0.016 C 
ATOM      3  C   LIG d   1      -4.703  92.129 118.559  0.00  0.00     0.038 C 
ATOM      4  C   LIG d   1      -5.755  92.201 117.634  0.00  0.00     0.028 C 
ATOM      5  C   LIG d   1      -7.107  92.493 118.277  0.00  0.00    -0.047 C 
ATOM      6  C   LIG d   1      -6.972  93.735 119.187  0.00  0.00     0.091 C 
ENDROOT
BRANCH   1   7
ATOM      7  O   LIG d   1      -5.443  94.834 120.756  0.00  0.00    -0.368 OA
BRANCH   7   8
ATOM      8  C   LIG d   1      -4.875  95.761 119.798  0.00  0.00     0.119 C 
BRANCH   8   9
ATOM      9  C   LIG d   1      -3.488  96.177 120.324  0.00  0.00     0.028 C 
ATOM     10  C   LIG d   1      -2.349  95.730 119.392  0.00  0.00     0.006 C 
ENDBRANCH   8   9
BRANCH   8  11
ATOM     11  C   LIG d   1      -5.688  97.057 119.728  0.00  0.00     0.028 C 
ATOM     12  C   LIG d   1      -6.653  97.221 120.913  0.00  0.00     0.006 C 
ENDBRANCH   8  11
ENDBRANCH   7   8
ENDBRANCH   1   7
BRANCH   6  13
ATOM     13  N   LIG d   1      -8.228  94.041 119.920  0.00  0.00    -0.311 N 
ATOM     14  C   LIG d   1      -9.143  94.903 119.480  0.00  0.00     0.210 C 
ATOM     15  C   LIG d   1     -10.354  95.086 120.399  0.00  0.00     0.109 C 
ATOM     16  O   LIG d   1      -9.081  95.510 118.400  0.00  0.00    -0.276 OA
ATOM     17  H   LIG d   1      -8.374  93.569 120.791  0.00  0.00     0.149 HD
ENDBRANCH   6  13
BRANCH   5  18
ATOM     18  N   LIG d   1      -8.087  92.677 117.190  0.00  0.00     0.381 N 
ATOM     19  H   LIG d   1      -8.992  92.859 117.576  0.00  0.00    -0.090 HD
ATOM     20  H   LIG d   1      -8.139  91.830 116.652  0.00  0.00    -0.090 HD
ATOM     21  H   LIG d   1      -7.809  93.434 116.605  0.00  0.00    -0.090 HD
ENDBRANCH   5  18
BRANCH   3  22
ATOM     22  C   LIG d   1      -3.630  91.299 118.272  0.00  0.00     0.382 C 
ATOM     23  O   LIG d   1      -2.460  91.751 118.311  0.00  0.00    -0.241 OA
ATOM     24  O   LIG d   1      -3.819  90.116 117.932  0.00  0.00    -0.241 OA
ENDBRANCH   3  22
TORSDOF 7
ENDMDL
MODEL 3
REMARK VINA RESULT:      -4.2      2.344      4.833
REMARK  7 active torsions:
REMARK  status: ('A' for Active; 'I' for Inactive)
REMARK    1  A    between atoms: C_2  and  C_3 
REMARK    2  A    between atoms: C_3  and  O_6 
REMARK    3  A    between atoms: C_3  and  C_4 
REMARK    4  A    between atoms: C_7  and  O_6 
REMARK    5  A    between atoms: C_9  and  C_10 
REMARK    6  A    between atoms: N_15  and  C_14 
REMARK    7  A    between atoms: N_20  and  C_19 
REMARK       I    between atoms: C_22  and  N_20 
ROOT
ATOM      1  C   LIG d   1      -4.196  91.411 118.032  0.00  0.00     0.161 C 
ATOM      2  C   LIG d   1      -5.066  90.706 117.184  0.00  0.00     0.016 C 
ATOM      3  C   LIG d   1      -6.336  91.192 116.793  0.00  0.00     0.038 C 
ATOM      4  C   LIG d   1      -6.761  92.492 117.106  0.00  0.00     0.028 C 
ATOM      5  C   LIG d   1      -6.130  93.045 118.379  0.00  0.00    -0.047 C 
ATOM      6  C   LIG d   1      -4.596  92.879 118.293  0.00  0.00     0.091 C 
ENDROOT
BRANCH   1   7
ATOM      7  O   LIG d   1      -2.851  91.342 117.519  0.00  0.00    -0.368 OA
BRANCH   7   8
ATOM      8  C   LIG d   1      -1.857  90.781 118.411  0.00  0.00     0.119 C 
BRANCH   8   9
ATOM      9  C   LIG d   1      -0.479  90.973 117.749  0.00  0.00     0.028 C 
ATOM     10  C   LIG d   1       0.177  92.309 118.138  0.00  0.00     0.006 C 
ENDBRANCH   8   9
BRANCH   8  11
ATOM     11  C   LIG d   1      -2.029  89.266 118.555  0.00  0.00     0.028 C 
ATOM     12  C   LIG d   1      -2.531  88.853 119.948  0.00  0.00     0.006 C 
ENDBRANCH   8  11
ENDBRANCH   7   8
ENDBRANCH   1   7
BRANCH   6  13
ATOM     13  N   LIG d   1      -3.907  93.318 119.534  0.00  0.00    -0.311 N 
ATOM     14  C   LIG d   1      -2.866  94.150 119.540  0.00  0.00     0.210 C 
ATOM     15  C   LIG d   1      -2.293  94.458 120.927  0.00  0.00     0.109 C 
ATOM     16  O   LIG d   1      -2.384  94.686 118.531  0.00  0.00    -0.276 OA
ATOM     17  H   LIG d   1      -4.253  92.955 120.401  0.00  0.00     0.149 HD
ENDBRANCH   6  13
BRANCH   5  18
ATOM     18  N   LIG d   1      -6.552  94.452 118.511  0.00  0.00     0.381 N 
ATOM     19  H   LIG d   1      -6.927  94.610 119.425  0.00  0.00    -0.090 HD
ATOM     20  H   LIG d   1      -7.275  94.639 117.837  0.00  0.00    -0.090 HD
ATOM     21  H   LIG d   1      -5.777  95.057 118.353  0.00  0.00    -0.090 HD
ENDBRANCH   5  18
BRANCH   3  22
ATOM     22  C   LIG d   1      -7.212  90.358 116.115  0.00  0.00     0.382 C 
ATOM     23  O   LIG d   1      -8.440  90.397 116.371  0.00  0.00    -0.241 OA
ATOM     24  O   LIG d   1      -6.785  89.535 115.283  0.00  0.00    -0.241 OA
ENDBRANCH   3  22
TORSDOF 7
ENDMDL
MODEL 4
REMARK VINA RESULT:      -4.2      5.251      8.481
REMARK  7 active torsions:
REMARK  status: ('A' for Active; 'I' for Inactive)
REMARK    1  A    between atoms: C_2  and  C_3 
REMARK    2  A    between atoms: C_3  and  O_6 
REMARK    3  A    between atoms: C_3  and  C_4 
REMARK    4  A    between atoms: C_7  and  O_6 
REMARK    5  A    between atoms: C_9  and  C_10 
REMARK    6  A    between atoms: N_15  and  C_14 
REMARK    7  A    between atoms: N_20  and  C_19 
REMARK       I    between atoms: C_22  and  N_20 
ROOT
ATOM      1  C   LIG d   1       0.189  90.230 117.799  0.00  0.00     0.161 C 
ATOM      2  C   LIG d   1       1.588  90.207 117.676  0.00  0.00     0.016 C 
ATOM      3  C   LIG d   1       2.388  91.373 117.668  0.00  0.00     0.038 C 
ATOM      4  C   LIG d   1       1.852  92.642 117.936  0.00  0.00     0.028 C 
ATOM      5  C   LIG d   1       0.378  92.767 117.564  0.00  0.00    -0.047 C 
ATOM      6  C   LIG d   1      -0.402  91.597 118.203  0.00  0.00     0.091 C 
ENDROOT
BRANCH   1   7
ATOM      7  O   LIG d   1      -0.237  89.207 118.720  0.00  0.00    -0.368 OA
BRANCH   7   8
ATOM      8  C   LIG d   1      -0.871  88.044 118.133  0.00  0.00     0.119 C 
BRANCH   8   9
ATOM      9  C   LIG d   1      -2.124  87.727 118.972  0.00  0.00     0.028 C 
ATOM     10  C   LIG d   1      -2.390  88.786 120.055  0.00  0.00     0.006 C 
ENDBRANCH   8   9
BRANCH   8  11
ATOM     11  C   LIG d   1       0.021  86.804 118.252  0.00  0.00     0.028 C 
ATOM     12  C   LIG d   1      -0.656  85.654 119.013  0.00  0.00     0.006 C 
ENDBRANCH   8  11
ENDBRANCH   7   8
ENDBRANCH   1   7
BRANCH   6  13
ATOM     13  N   LIG d   1      -1.838  91.597 117.820  0.00  0.00    -0.311 N 
ATOM     14  C   LIG d   1      -2.791  92.176 118.548  0.00  0.00     0.210 C 
ATOM     15  C   LIG d   1      -4.209  92.041 117.983  0.00  0.00     0.109 C 
ATOM     16  O   LIG d   1      -2.594  92.815 119.592  0.00  0.00    -0.276 OA
ATOM     17  H   LIG d   1      -2.084  91.127 116.971  0.00  0.00     0.149 HD
ENDBRANCH   6  13
BRANCH   5  18
ATOM     18  N   LIG d   1      -0.085  94.091 118.022  0.00  0.00     0.381 N 
ATOM     19  H   LIG d   1       0.297  94.805 117.435  0.00  0.00    -0.090 HD
ATOM     20  H   LIG d   1       0.242  94.243 118.959  0.00  0.00    -0.090 HD
ATOM     21  H   LIG d   1      -1.081  94.130 117.999  0.00  0.00    -0.090 HD
ENDBRANCH   5  18
BRANCH   3  22
ATOM     22  C   LIG d   1       3.734  91.281 117.350  0.00  0.00     0.382 C 
ATOM     23  O   LIG d   1       4.348  90.201 117.529  0.00  0.00    -0.241 OA
ATOM     24  O   LIG d   1       4.354  92.276 116.928  0.00  0.00    -0.241 OA
ENDBRANCH   3  22
TORSDOF 7
ENDMDL
MODEL 5
REMARK VINA RESULT:      -4.1      2.832      5.166
REMARK  7 active torsions:
REMARK  status: ('A' for Active; 'I' for Inactive)
REMARK    1  A    between atoms: C_2  and  C_3 
REMARK    2  A    between atoms: C_3  and  O_6 
REMARK    3  A    between atoms: C_3  and  C_4 
REMARK    4  A    between atoms: C_7  and  O_6 
REMARK    5  A    between atoms: C_9  and  C_10 
REMARK    6  A    between atoms: N_15  and  C_14 
REMARK    7  A    between atoms: N_20  and  C_19 
REMARK       I    between atoms: C_22  and  N_20 
ROOT
ATOM      1  C   LIG d   1      -2.980  92.738 119.674  0.00  0.00     0.161 C 
ATOM      2  C   LIG d   1      -2.828  94.093 119.339  0.00  0.00     0.016 C 
ATOM      3  C   LIG d   1      -1.883  94.561 118.397  0.00  0.00     0.038 C 
ATOM      4  C   LIG d   1      -1.123  93.683 117.611  0.00  0.00     0.028 C 
ATOM      5  C   LIG d   1      -0.882  92.331 118.274  0.00  0.00    -0.047 C 
ATOM      6  C   LIG d   1      -2.236  91.755 118.746  0.00  0.00     0.091 C 
ENDROOT
BRANCH   1   7
ATOM      7  O   LIG d   1      -4.380  92.404 119.739  0.00  0.00    -0.368 OA
BRANCH   7   8
ATOM      8  C   LIG d   1      -5.229  93.021 118.740  0.00  0.00     0.119 C 
BRANCH   8   9
ATOM      9  C   LIG d   1      -6.509  93.499 119.453  0.00  0.00     0.028 C 
ATOM     10  C   LIG d   1      -6.551  95.028 119.620  0.00  0.00     0.006 C 
ENDBRANCH   8   9
BRANCH   8  11
ATOM     11  C   LIG d   1      -5.701  91.999 117.702  0.00  0.00     0.028 C 
ATOM     12  C   LIG d   1      -7.110  92.301 117.166  0.00  0.00     0.006 C 
ENDBRANCH   8  11
ENDBRANCH   7   8
ENDBRANCH   1   7
BRANCH   6  13
ATOM     13  N   LIG d   1      -2.081  90.472 119.480  0.00  0.00    -0.311 N 
ATOM     14  C   LIG d   1      -2.767  89.370 119.182  0.00  0.00     0.210 C 
ATOM     15  C   LIG d   1      -2.470  88.162 120.077  0.00  0.00     0.109 C 
ATOM     16  O   LIG d   1      -3.568  89.268 118.242  0.00  0.00    -0.276 OA
ATOM     17  H   LIG d   1      -1.428  90.457 120.239  0.00  0.00     0.149 HD
ENDBRANCH   6  13
BRANCH   5  18
ATOM     18  N   LIG d   1      -0.198  91.469 117.291  0.00  0.00     0.381 N 
ATOM     19  H   LIG d   1      -0.832  91.221 116.558  0.00  0.00    -0.090 HD
ATOM     20  H   LIG d   1       0.099  90.625 117.750  0.00  0.00    -0.090 HD
ATOM     21  H   LIG d   1       0.591  91.944 116.911  0.00  0.00    -0.090 HD
ENDBRANCH   5  18
BRANCH   3  22
ATOM     22  C   LIG d   1      -1.662  95.924 118.264  0.00  0.00     0.382 C 
ATOM     23  O   LIG d   1      -0.646  96.338 117.655  0.00  0.00    -0.241 OA
ATOM     24  O   LIG d   1      -2.443  96.744 118.782  0.00  0.00    -0.241 OA
ENDBRANCH   3  22
TORSDOF 7
ENDMDL
MODEL 6
REMARK VINA RESULT:      -3.8      3.381      6.263
REMARK  7 active torsions:
REMARK  status: ('A' for Active; 'I' for Inactive)
REMARK    1  A    between atoms: C_2  and  C_3 
REMARK    2  A    between atoms: C_3  and  O_6 
REMARK    3  A    between atoms: C_3  and  C_4 
REMARK    4  A    between atoms: C_7  and  O_6 
REMARK    5  A    between atoms: C_9  and  C_10 
REMARK    6  A    between atoms: N_15  and  C_14 
REMARK    7  A    between atoms: N_20  and  C_19 
REMARK       I    between atoms: C_22  and  N_20 
ROOT
ATOM      1  C   LIG d   1      -1.962  93.168 118.788  0.00  0.00     0.161 C 
ATOM      2  C   LIG d   1      -1.825  94.554 118.968  0.00  0.00     0.016 C 
ATOM      3  C   LIG d   1      -0.582  95.227 118.917  0.00  0.00     0.038 C 
ATOM      4  C   LIG d   1       0.598  94.575 118.530  0.00  0.00     0.028 C 
ATOM      5  C   LIG d   1       0.592  93.080 118.832  0.00  0.00    -0.047 C 
ATOM      6  C   LIG d   1      -0.700  92.457 118.255  0.00  0.00     0.091 C 
ENDROOT
BRANCH   1   7
ATOM      7  O   LIG d   1      -3.090  92.895 117.933  0.00  0.00    -0.368 OA
BRANCH   7   8
ATOM      8  C   LIG d   1      -4.202  92.199 118.547  0.00  0.00     0.119 C 
BRANCH   8   9
ATOM      9  C   LIG d   1      -5.053  91.595 117.414  0.00  0.00     0.028 C 
ATOM     10  C   LIG d   1      -6.500  92.116 117.424  0.00  0.00     0.006 C 
ENDBRANCH   8   9
BRANCH   8  11
ATOM     11  C   LIG d   1      -5.132  93.172 119.278  0.00  0.00     0.028 C 
ATOM     12  C   LIG d   1      -5.033  93.057 120.807  0.00  0.00     0.006 C 
ENDBRANCH   8  11
ENDBRANCH   7   8
ENDBRANCH   1   7
BRANCH   6  13
ATOM     13  N   LIG d   1      -0.827  91.012 118.579  0.00  0.00    -0.311 N 
ATOM     14  C   LIG d   1      -0.307  90.044 117.826  0.00  0.00     0.210 C 
ATOM     15  C   LIG d   1      -0.571  88.621 118.331  0.00  0.00     0.109 C 
ATOM     16  O   LIG d   1       0.375  90.229 116.807  0.00  0.00    -0.276 OA
ATOM     17  H   LIG d   1      -1.338  90.774 119.406  0.00  0.00     0.149 HD
ENDBRANCH   6  13
BRANCH   5  18
ATOM     18  N   LIG d   1       1.820  92.503 118.253  0.00  0.00     0.381 N 
ATOM     19  H   LIG d   1       2.280  91.934 118.935  0.00  0.00    -0.090 HD
ATOM     20  H   LIG d   1       2.440  93.251 117.996  0.00  0.00    -0.090 HD
ATOM     21  H   LIG d   1       1.595  91.957 117.451  0.00  0.00    -0.090 HD
ENDBRANCH   5  18
BRANCH   3  22
ATOM     22  C   LIG d   1      -0.506  96.559 119.295  0.00  0.00     0.382 C 
ATOM     23  O   LIG d   1       0.537  97.216 119.065  0.00  0.00    -0.241 OA
ATOM     24  O   LIG d   1      -1.450  97.098 119.902  0.00  0.00    -0.241 OA
ENDBRANCH   3  22
TORSDOF 7
ENDMDL
MODEL 7
REMARK VINA RESULT:      -3.8      1.434      2.155
REMARK  7 active torsions:
REMARK  status: ('A' for Active; 'I' for Inactive)
REMARK    1  A    between atoms: C_2  and  C_3 
REMARK    2  A    between atoms: C_3  and  O_6 
REMARK    3  A    between atoms: C_3  and  C_4 
REMARK    4  A    between atoms: C_7  and  O_6 
REMARK    5  A    between atoms: C_9  and  C_10 
REMARK    6  A    between atoms: N_15  and  C_14 
REMARK    7  A    between atoms: N_20  and  C_19 
REMARK       I    between atoms: C_22  and  N_20 
ROOT
ATOM      1  C   LIG d   1      -4.855  93.007 118.970  0.00  0.00     0.161 C 
ATOM      2  C   LIG d   1      -5.585  92.494 117.884  0.00  0.00     0.016 C 
ATOM      3  C   LIG d   1      -5.218  91.322 117.184  0.00  0.00     0.038 C 
ATOM      4  C   LIG d   1      -4.173  90.493 117.621  0.00  0.00     0.028 C 
ATOM      5  C   LIG d   1      -3.099  91.237 118.408  0.00  0.00    -0.047 C 
ATOM      6  C   LIG d   1      -3.776  92.057 119.530  0.00  0.00     0.091 C 
ENDROOT
BRANCH   1   7
ATOM      7  O   LIG d   1      -5.757  93.414 120.017  0.00  0.00    -0.368 OA
BRANCH   7   8
ATOM      8  C   LIG d   1      -6.388  94.707 119.848  0.00  0.00     0.119 C 
BRANCH   8   9
ATOM      9  C   LIG d   1      -5.817  95.645 120.930  0.00  0.00     0.028 C 
ATOM     10  C   LIG d   1      -4.592  96.432 120.437  0.00  0.00     0.006 C 
ENDBRANCH   8   9
BRANCH   8  11
ATOM     11  C   LIG d   1      -7.892  94.635 120.127  0.00  0.00     0.028 C 
ATOM     12  C   LIG d   1      -8.743  95.059 118.919  0.00  0.00     0.006 C 
ENDBRANCH   8  11
ENDBRANCH   7   8
ENDBRANCH   1   7
BRANCH   6  13
ATOM     13  N   LIG d   1      -2.804  92.881 120.295  0.00  0.00    -0.311 N 
ATOM     14  C   LIG d   1      -2.053  93.831 119.741  0.00  0.00     0.210 C 
ATOM     15  C   LIG d   1      -1.102  94.548 120.705  0.00  0.00     0.109 C 
ATOM     16  O   LIG d   1      -2.106  94.170 118.550  0.00  0.00    -0.276 OA
ATOM     17  H   LIG d   1      -2.719  92.694 121.275  0.00  0.00     0.149 HD
ENDBRANCH   6  13
BRANCH   5  18
ATOM     18  N   LIG d   1      -2.146  90.234 118.919  0.00  0.00     0.381 N 
ATOM     19  H   LIG d   1      -2.467  89.878 119.796  0.00  0.00    -0.090 HD
ATOM     20  H   LIG d   1      -1.256  90.677 119.065  0.00  0.00    -0.090 HD
ATOM     21  H   LIG d   1      -2.051  89.489 118.264  0.00  0.00    -0.090 HD
ENDBRANCH   5  18
BRANCH   3  22
ATOM     22  C   LIG d   1      -5.875  90.989 116.010  0.00  0.00     0.382 C 
ATOM     23  O   LIG d   1      -6.333  91.892 115.270  0.00  0.00    -0.241 OA
ATOM     24  O   LIG d   1      -6.054  89.795 115.703  0.00  0.00    -0.241 OA
ENDBRANCH   3  22
TORSDOF 7
ENDMDL
MODEL 8
REMARK VINA RESULT:      -3.7      2.824      4.238
REMARK  7 active torsions:
REMARK  status: ('A' for Active; 'I' for Inactive)
REMARK    1  A    between atoms: C_2  and  C_3 
REMARK    2  A    between atoms: C_3  and  O_6 
REMARK    3  A    between atoms: C_3  and  C_4 
REMARK    4  A    between atoms: C_7  and  O_6 
REMARK    5  A    between atoms: C_9  and  C_10 
REMARK    6  A    between atoms: N_15  and  C_14 
REMARK    7  A    between atoms: N_20  and  C_19 
REMARK       I    between atoms: C_22  and  N_20 
ROOT
ATOM      1  C   LIG d   1      -2.309  93.047 118.775  0.00  0.00     0.161 C 
ATOM      2  C   LIG d   1      -3.565  92.771 118.209  0.00  0.00     0.016 C 
ATOM      3  C   LIG d   1      -4.008  91.465 117.898  0.00  0.00     0.038 C 
ATOM      4  C   LIG d   1      -3.280  90.326 118.273  0.00  0.00     0.028 C 
ATOM      5  C   LIG d   1      -1.780  90.577 118.390  0.00  0.00    -0.047 C 
ATOM      6  C   LIG d   1      -1.547  91.810 119.293  0.00  0.00     0.091 C 
ENDROOT
BRANCH   1   7
ATOM      7  O   LIG d   1      -2.451  94.025 119.825  0.00  0.00    -0.368 OA
BRANCH   7   8
ATOM      8  C   LIG d   1      -1.737  95.271 119.636  0.00  0.00     0.119 C 
BRANCH   8   9
ATOM      9  C   LIG d   1      -2.578  96.389 120.281  0.00  0.00     0.028 C 
ATOM     10  C   LIG d   1      -4.052  96.340 119.846  0.00  0.00     0.006 C 
ENDBRANCH   8   9
BRANCH   8  11
ATOM     11  C   LIG d   1      -1.643  95.640 118.152  0.00  0.00     0.028 C 
ATOM     12  C   LIG d   1      -0.274  96.222 117.768  0.00  0.00     0.006 C 
ENDBRANCH   8  11
ENDBRANCH   7   8
ENDBRANCH   1   7
BRANCH   6  13
ATOM     13  N   LIG d   1      -0.110  92.176 119.393  0.00  0.00    -0.311 N 
ATOM     14  C   LIG d   1       0.619  92.572 118.352  0.00  0.00     0.210 C 
ATOM     15  C   LIG d   1       2.085  92.882 118.670  0.00  0.00     0.109 C 
ATOM     16  O   LIG d   1       0.184  92.728 117.201  0.00  0.00    -0.276 OA
ATOM     17  H   LIG d   1       0.316  92.108 120.297  0.00  0.00     0.149 HD
ENDBRANCH   6  13
BRANCH   5  18
ATOM     18  N   LIG d   1      -1.163  89.347 118.920  0.00  0.00     0.381 N 
ATOM     19  H   LIG d   1      -0.171  89.466 118.985  0.00  0.00    -0.090 HD
ATOM     20  H   LIG d   1      -1.348  88.590 118.285  0.00  0.00    -0.090 HD
ATOM     21  H   LIG d   1      -1.538  89.136 119.818  0.00  0.00    -0.090 HD
ENDBRANCH   5  18
BRANCH   3  22
ATOM     22  C   LIG d   1      -5.174  91.290 117.167  0.00  0.00     0.382 C 
ATOM     23  O   LIG d   1      -5.339  90.247 116.490  0.00  0.00    -0.241 OA
ATOM     24  O   LIG d   1      -6.042  92.183 117.142  0.00  0.00    -0.241 OA
ENDBRANCH   3  22
TORSDOF 7
ENDMDL
MODEL 9
REMARK VINA RESULT:      -3.7      4.529      8.037
REMARK  7 active torsions:
REMARK  status: ('A' for Active; 'I' for Inactive)
REMARK    1  A    between atoms: C_2  and  C_3 
REMARK    2  A    between atoms: C_3  and  O_6 
REMARK    3  A    between atoms: C_3  and  C_4 
REMARK    4  A    between atoms: C_7  and  O_6 
REMARK    5  A    between atoms: C_9  and  C_10 
REMARK    6  A    between atoms: N_15  and  C_14 
REMARK    7  A    between atoms: N_20  and  C_19 
REMARK       I    between atoms: C_22  and  N_20 
ROOT
ATOM      1  C   LIG d   1      -0.098  92.964 118.080  0.00  0.00     0.161 C 
ATOM      2  C   LIG d   1       0.182  94.341 118.073  0.00  0.00     0.016 C 
ATOM      3  C   LIG d   1      -0.779  95.332 118.376  0.00  0.00     0.038 C 
ATOM      4  C   LIG d   1      -2.055  95.005 118.858  0.00  0.00     0.028 C 
ATOM      5  C   LIG d   1      -2.543  93.635 118.399  0.00  0.00    -0.047 C 
ATOM      6  C   LIG d   1      -1.454  92.584 118.712  0.00  0.00     0.091 C 
ENDROOT
BRANCH   1   7
ATOM      7  O   LIG d   1       0.974  92.251 118.728  0.00  0.00    -0.368 OA
BRANCH   7   8
ATOM      8  C   LIG d   1       2.315  92.722 118.446  0.00  0.00     0.119 C 
BRANCH   8   9
ATOM      9  C   LIG d   1       3.013  91.648 117.590  0.00  0.00     0.028 C 
ATOM     10  C   LIG d   1       4.515  91.926 117.410  0.00  0.00     0.006 C 
ENDBRANCH   8   9
BRANCH   8  11
ATOM     11  C   LIG d   1       3.149  92.826 119.727  0.00  0.00     0.028 C 
ATOM     12  C   LIG d   1       2.336  93.332 120.929  0.00  0.00     0.006 C 
ENDBRANCH   8  11
ENDBRANCH   7   8
ENDBRANCH   1   7
BRANCH   6  13
ATOM     13  N   LIG d   1      -1.815  91.229 118.218  0.00  0.00    -0.311 N 
ATOM     14  C   LIG d   1      -2.408  90.307 118.975  0.00  0.00     0.210 C 
ATOM     15  C   LIG d   1      -2.675  88.971 118.277  0.00  0.00     0.109 C 
ATOM     16  O   LIG d   1      -2.768  90.481 120.150  0.00  0.00    -0.276 OA
ATOM     17  H   LIG d   1      -1.588  91.014 117.267  0.00  0.00     0.149 HD
ENDBRANCH   6  13
BRANCH   5  18
ATOM     18  N   LIG d   1      -3.821  93.365 119.084  0.00  0.00     0.381 N 
ATOM     19  H   LIG d   1      -3.647  93.100 120.033  0.00  0.00    -0.090 HD
ATOM     20  H   LIG d   1      -4.282  92.600 118.623  0.00  0.00    -0.090 HD
ATOM     21  H   LIG d   1      -4.400  94.175 119.059  0.00  0.00    -0.090 HD
ENDBRANCH   5  18
BRANCH   3  22
ATOM     22  C   LIG d   1      -0.479  96.669 118.159  0.00  0.00     0.382 C 
ATOM     23  O   LIG d   1       0.630  97.129 118.520  0.00  0.00    -0.241 OA
ATOM     24  O   LIG d   1      -1.322  97.430 117.647  0.00  0.00    -0.241 OA
ENDBRANCH   3  22
TORSDOF 7
ENDMDL
