MODEL 1
REMARK VINA RESULT:      -5.3      0.000      0.000
REMARK  7 active torsions:
REMARK  status: ('A' for Active; 'I' for Inactive)
REMARK    1  A    between atoms: C_2  and  C_3 
REMARK    2  A    between atoms: C_3  and  O_6 
REMARK    3  A    between atoms: C_3  and  C_4 
REMARK    4  A    between atoms: C_7  and  O_6 
REMARK    5  A    between atoms: C_9  and  C_10 
REMARK    6  A    between atoms: N_15  and  C_14 
REMARK    7  A    between atoms: N_20  and  C_19 
REMARK       I    between atoms: C_22  and  N_20 
ROOT
ATOM      1  C   LIG d   1      -4.179  91.139 117.511  0.00  0.00     0.161 C 
ATOM      2  C   LIG d   1      -5.033  90.628 116.520  0.00  0.00     0.016 C 
ATOM      3  C   LIG d   1      -6.240  91.255 116.134  0.00  0.00     0.038 C 
ATOM      4  C   LIG d   1      -6.601  92.525 116.609  0.00  0.00     0.028 C 
ATOM      5  C   LIG d   1      -6.023  92.843 117.984  0.00  0.00    -0.047 C 
ATOM      6  C   LIG d   1      -4.500  92.579 117.962  0.00  0.00     0.091 C 
ENDROOT
BRANCH   1   7
ATOM      7  O   LIG d   1      -2.809  91.046 117.072  0.00  0.00    -0.368 OA
BRANCH   7   8
ATOM      8  C   LIG d   1      -1.903  90.342 117.956  0.00  0.00     0.119 C 
BRANCH   8   9
ATOM      9  C   LIG d   1      -0.479  90.517 117.394  0.00  0.00     0.028 C 
ATOM     10  C   LIG d   1       0.188  91.816 117.877  0.00  0.00     0.006 C 
ENDBRANCH   8   9
BRANCH   8  11
ATOM     11  C   LIG d   1      -2.164  88.833 117.936  0.00  0.00     0.028 C 
ATOM     12  C   LIG d   1      -2.288  88.231 119.345  0.00  0.00     0.006 C 
ENDBRANCH   8  11
ENDBRANCH   7   8
ENDBRANCH   1   7
BRANCH   6  13
ATOM     13  N   LIG d   1      -3.870  92.786 119.292  0.00  0.00    -0.311 N 
ATOM     14  C   LIG d   1      -2.795  93.549 119.483  0.00  0.00     0.210 C 
ATOM     15  C   LIG d   1      -2.295  93.610 120.930  0.00  0.00     0.109 C 
ATOM     16  O   LIG d   1      -2.228  94.207 118.598  0.00  0.00    -0.276 OA
ATOM     17  H   LIG d   1      -4.285  92.314 120.072  0.00  0.00     0.149 HD
ENDBRANCH   6  13
BRANCH   5  18
ATOM     18  N   LIG d   1      -6.363  94.244 118.297  0.00  0.00     0.381 N 
ATOM     19  H   LIG d   1      -7.219  94.495 117.843  0.00  0.00    -0.090 HD
ATOM     20  H   LIG d   1      -5.634  94.841 117.947  0.00  0.00    -0.090 HD
ATOM     21  H   LIG d   1      -6.455  94.361 119.282  0.00  0.00    -0.090 HD
ENDBRANCH   5  18
BRANCH   3  22
ATOM     22  C   LIG d   1      -7.120  90.593 115.291  0.00  0.00     0.382 C 
ATOM     23  O   LIG d   1      -7.385  91.070 114.162  0.00  0.00    -0.241 OA
ATOM     24  O   LIG d   1      -7.685  89.547 115.664  0.00  0.00    -0.241 OA
ENDBRANCH   3  22
TORSDOF 7
ENDMDL
MODEL 2
REMARK VINA RESULT:      -5.2      0.427      1.830
REMARK  7 active torsions:
REMARK  status: ('A' for Active; 'I' for Inactive)
REMARK    1  A    between atoms: C_2  and  C_3 
REMARK    2  A    between atoms: C_3  and  O_6 
REMARK    3  A    between atoms: C_3  and  C_4 
REMARK    4  A    between atoms: C_7  and  O_6 
REMARK    5  A    between atoms: C_9  and  C_10 
REMARK    6  A    between atoms: N_15  and  C_14 
REMARK    7  A    between atoms: N_20  and  C_19 
REMARK       I    between atoms: C_22  and  N_20 
ROOT
ATOM      1  C   LIG d   1      -4.021  91.291 117.564  0.00  0.00     0.161 C 
ATOM      2  C   LIG d   1      -4.863  90.722 116.594  0.00  0.00     0.016 C 
ATOM      3  C   LIG d   1      -6.104  91.284 116.214  0.00  0.00     0.038 C 
ATOM      4  C   LIG d   1      -6.519  92.543 116.673  0.00  0.00     0.028 C 
ATOM      5  C   LIG d   1      -5.939  92.913 118.033  0.00  0.00    -0.047 C 
ATOM      6  C   LIG d   1      -4.406  92.722 117.994  0.00  0.00     0.091 C 
ENDROOT
BRANCH   1   7
ATOM      7  O   LIG d   1      -2.655  91.256 117.106  0.00  0.00    -0.368 OA
BRANCH   7   8
ATOM      8  C   LIG d   1      -1.849  90.153 117.590  0.00  0.00     0.119 C 
BRANCH   8   9
ATOM      9  C   LIG d   1      -2.399  89.750 118.973  0.00  0.00     0.028 C 
ATOM     10  C   LIG d   1      -2.344  88.231 119.206  0.00  0.00     0.006 C 
ENDBRANCH   8   9
BRANCH   8  11
ATOM     11  C   LIG d   1      -0.402  90.588 117.840  0.00  0.00     0.028 C 
ATOM     12  C   LIG d   1      -0.169  92.078 117.546  0.00  0.00     0.006 C 
ENDBRANCH   8  11
ENDBRANCH   7   8
ENDBRANCH   1   7
BRANCH   6  13
ATOM     13  N   LIG d   1      -3.768  92.982 119.311  0.00  0.00    -0.311 N 
ATOM     14  C   LIG d   1      -2.818  93.897 119.498  0.00  0.00     0.210 C 
ATOM     15  C   LIG d   1      -2.282  93.990 120.930  0.00  0.00     0.109 C 
ATOM     16  O   LIG d   1      -2.392  94.663 118.621  0.00  0.00    -0.276 OA
ATOM     17  H   LIG d   1      -4.077  92.427 120.085  0.00  0.00     0.149 HD
ENDBRANCH   6  13
BRANCH   5  18
ATOM     18  N   LIG d   1      -6.342  94.302 118.326  0.00  0.00     0.381 N 
ATOM     19  H   LIG d   1      -5.643  94.935 117.991  0.00  0.00    -0.090 HD
ATOM     20  H   LIG d   1      -6.418  94.415 119.322  0.00  0.00    -0.090 HD
ATOM     21  H   LIG d   1      -7.217  94.502 117.894  0.00  0.00    -0.090 HD
ENDBRANCH   5  18
BRANCH   3  22
ATOM     22  C   LIG d   1      -6.962  90.565 115.396  0.00  0.00     0.382 C 
ATOM     23  O   LIG d   1      -7.535  89.539 115.835  0.00  0.00    -0.241 OA
ATOM     24  O   LIG d   1      -7.137  90.904 114.210  0.00  0.00    -0.241 OA
ENDBRANCH   3  22
TORSDOF 7
ENDMDL
MODEL 3
REMARK VINA RESULT:      -4.9      2.351      4.594
REMARK  7 active torsions:
REMARK  status: ('A' for Active; 'I' for Inactive)
REMARK    1  A    between atoms: C_2  and  C_3 
REMARK    2  A    between atoms: C_3  and  O_6 
REMARK    3  A    between atoms: C_3  and  C_4 
REMARK    4  A    between atoms: C_7  and  O_6 
REMARK    5  A    between atoms: C_9  and  C_10 
REMARK    6  A    between atoms: N_15  and  C_14 
REMARK    7  A    between atoms: N_20  and  C_19 
REMARK       I    between atoms: C_22  and  N_20 
ROOT
ATOM      1  C   LIG d   1      -4.950  92.953 118.688  0.00  0.00     0.161 C 
ATOM      2  C   LIG d   1      -5.891  92.644 117.691  0.00  0.00     0.016 C 
ATOM      3  C   LIG d   1      -5.637  91.740 116.634  0.00  0.00     0.038 C 
ATOM      4  C   LIG d   1      -4.469  90.965 116.586  0.00  0.00     0.028 C 
ATOM      5  C   LIG d   1      -3.282  91.613 117.291  0.00  0.00    -0.047 C 
ATOM      6  C   LIG d   1      -3.711  92.033 118.715  0.00  0.00     0.091 C 
ENDROOT
BRANCH   1   7
ATOM      7  O   LIG d   1      -5.591  92.968 119.978  0.00  0.00    -0.368 OA
BRANCH   7   8
ATOM      8  C   LIG d   1      -5.768  94.271 120.587  0.00  0.00     0.119 C 
BRANCH   8   9
ATOM      9  C   LIG d   1      -7.254  94.650 120.445  0.00  0.00     0.028 C 
ATOM     10  C   LIG d   1      -7.496  95.661 119.311  0.00  0.00     0.006 C 
ENDBRANCH   8   9
BRANCH   8  11
ATOM     11  C   LIG d   1      -4.998  95.352 119.823  0.00  0.00     0.028 C 
ATOM     12  C   LIG d   1      -3.855  95.965 120.647  0.00  0.00     0.006 C 
ENDBRANCH   8  11
ENDBRANCH   7   8
ENDBRANCH   1   7
BRANCH   6  13
ATOM     13  N   LIG d   1      -2.633  92.751 119.443  0.00  0.00    -0.311 N 
ATOM     14  C   LIG d   1      -1.776  92.148 120.265  0.00  0.00     0.210 C 
ATOM     15  C   LIG d   1      -0.755  93.077 120.930  0.00  0.00     0.109 C 
ATOM     16  O   LIG d   1      -1.743  90.927 120.481  0.00  0.00    -0.276 OA
ATOM     17  H   LIG d   1      -2.568  93.740 119.302  0.00  0.00     0.149 HD
ENDBRANCH   6  13
BRANCH   5  18
ATOM     18  N   LIG d   1      -2.174  90.639 117.284  0.00  0.00     0.381 N 
ATOM     19  H   LIG d   1      -1.309  91.111 117.110  0.00  0.00    -0.090 HD
ATOM     20  H   LIG d   1      -2.327  89.977 116.544  0.00  0.00    -0.090 HD
ATOM     21  H   LIG d   1      -2.131  90.165 118.160  0.00  0.00    -0.090 HD
ENDBRANCH   5  18
BRANCH   3  22
ATOM     22  C   LIG d   1      -6.540  91.636 115.588  0.00  0.00     0.382 C 
ATOM     23  O   LIG d   1      -7.328  90.661 115.535  0.00  0.00    -0.241 OA
ATOM     24  O   LIG d   1      -6.547  92.480 114.672  0.00  0.00    -0.241 OA
ENDBRANCH   3  22
TORSDOF 7
ENDMDL
MODEL 4
REMARK VINA RESULT:      -4.5      2.285      4.913
REMARK  7 active torsions:
REMARK  status: ('A' for Active; 'I' for Inactive)
REMARK    1  A    between atoms: C_2  and  C_3 
REMARK    2  A    between atoms: C_3  and  O_6 
REMARK    3  A    between atoms: C_3  and  C_4 
REMARK    4  A    between atoms: C_7  and  O_6 
REMARK    5  A    between atoms: C_9  and  C_10 
REMARK    6  A    between atoms: N_15  and  C_14 
REMARK    7  A    between atoms: N_20  and  C_19 
REMARK       I    between atoms: C_22  and  N_20 
ROOT
ATOM      1  C   LIG d   1      -3.977  93.088 119.079  0.00  0.00     0.161 C 
ATOM      2  C   LIG d   1      -2.949  92.217 118.680  0.00  0.00     0.016 C 
ATOM      3  C   LIG d   1      -3.144  91.144 117.780  0.00  0.00     0.038 C 
ATOM      4  C   LIG d   1      -4.356  90.960 117.098  0.00  0.00     0.028 C 
ATOM      5  C   LIG d   1      -5.564  91.508 117.849  0.00  0.00    -0.047 C 
ATOM      6  C   LIG d   1      -5.279  92.971 118.260  0.00  0.00     0.091 C 
ENDROOT
BRANCH   1   7
ATOM      7  O   LIG d   1      -3.498  94.448 119.067  0.00  0.00    -0.368 OA
BRANCH   7   8
ATOM      8  C   LIG d   1      -2.062  94.616 118.971  0.00  0.00     0.119 C 
BRANCH   8   9
ATOM      9  C   LIG d   1      -1.583  95.265 120.284  0.00  0.00     0.028 C 
ATOM     10  C   LIG d   1      -1.995  96.742 120.393  0.00  0.00     0.006 C 
ENDBRANCH   8   9
BRANCH   8  11
ATOM     11  C   LIG d   1      -1.691  95.612 117.868  0.00  0.00     0.028 C 
ATOM     12  C   LIG d   1      -0.267  95.401 117.329  0.00  0.00     0.006 C 
ENDBRANCH   8  11
ENDBRANCH   7   8
ENDBRANCH   1   7
BRANCH   6  13
ATOM     13  N   LIG d   1      -6.377  93.556 119.073  0.00  0.00    -0.311 N 
ATOM     14  C   LIG d   1      -7.427  94.182 118.545  0.00  0.00     0.210 C 
ATOM     15  C   LIG d   1      -8.433  94.728 119.562  0.00  0.00     0.109 C 
ATOM     16  O   LIG d   1      -7.637  94.308 117.329  0.00  0.00    -0.276 OA
ATOM     17  H   LIG d   1      -6.302  93.472 120.068  0.00  0.00     0.149 HD
ENDBRANCH   6  13
BRANCH   5  18
ATOM     18  N   LIG d   1      -6.737  91.374 116.965  0.00  0.00     0.381 N 
ATOM     19  H   LIG d   1      -7.066  90.430 116.979  0.00  0.00    -0.090 HD
ATOM     20  H   LIG d   1      -6.463  91.599 116.025  0.00  0.00    -0.090 HD
ATOM     21  H   LIG d   1      -7.462  91.990 117.264  0.00  0.00    -0.090 HD
ENDBRANCH   5  18
BRANCH   3  22
ATOM     22  C   LIG d   1      -2.132  90.217 117.587  0.00  0.00     0.382 C 
ATOM     23  O   LIG d   1      -2.285  89.032 117.969  0.00  0.00    -0.241 OA
ATOM     24  O   LIG d   1      -1.050  90.561 117.075  0.00  0.00    -0.241 OA
ENDBRANCH   3  22
TORSDOF 7
ENDMDL
MODEL 5
REMARK VINA RESULT:      -4.4      2.790      6.141
REMARK  7 active torsions:
REMARK  status: ('A' for Active; 'I' for Inactive)
REMARK    1  A    between atoms: C_2  and  C_3 
REMARK    2  A    between atoms: C_3  and  O_6 
REMARK    3  A    between atoms: C_3  and  C_4 
REMARK    4  A    between atoms: C_7  and  O_6 
REMARK    5  A    between atoms: C_9  and  C_10 
REMARK    6  A    between atoms: N_15  and  C_14 
REMARK    7  A    between atoms: N_20  and  C_19 
REMARK       I    between atoms: C_22  and  N_20 
ROOT
ATOM      1  C   LIG d   1      -0.359  91.264 117.744  0.00  0.00     0.161 C 
ATOM      2  C   LIG d   1       1.014  91.494 117.932  0.00  0.00     0.016 C 
ATOM      3  C   LIG d   1       1.579  92.785 118.042  0.00  0.00     0.038 C 
ATOM      4  C   LIG d   1       0.784  93.938 118.124  0.00  0.00     0.028 C 
ATOM      5  C   LIG d   1      -0.567  93.792 117.432  0.00  0.00    -0.047 C 
ATOM      6  C   LIG d   1      -1.255  92.505 117.942  0.00  0.00     0.091 C 
ENDROOT
BRANCH   1   7
ATOM      7  O   LIG d   1      -0.797  90.189 118.599  0.00  0.00    -0.368 OA
BRANCH   7   8
ATOM      8  C   LIG d   1      -1.221  88.976 117.931  0.00  0.00     0.119 C 
BRANCH   8   9
ATOM      9  C   LIG d   1      -2.565  88.550 118.554  0.00  0.00     0.028 C 
ATOM     10  C   LIG d   1      -2.381  87.728 119.841  0.00  0.00     0.006 C 
ENDBRANCH   8   9
BRANCH   8  11
ATOM     11  C   LIG d   1      -0.258  87.819 118.213  0.00  0.00     0.028 C 
ATOM     12  C   LIG d   1       0.707  87.549 117.048  0.00  0.00     0.006 C 
ENDBRANCH   8  11
ENDBRANCH   7   8
ENDBRANCH   1   7
BRANCH   6  13
ATOM     13  N   LIG d   1      -2.546  92.242 117.254  0.00  0.00    -0.311 N 
ATOM     14  C   LIG d   1      -3.701  92.085 117.898  0.00  0.00     0.210 C 
ATOM     15  C   LIG d   1      -4.909  91.802 117.000  0.00  0.00     0.109 C 
ATOM     16  O   LIG d   1      -3.846  92.185 119.126  0.00  0.00    -0.276 OA
ATOM     17  H   LIG d   1      -2.526  92.176 116.256  0.00  0.00     0.149 HD
ENDBRANCH   6  13
BRANCH   5  18
ATOM     18  N   LIG d   1      -1.345  95.013 117.712  0.00  0.00     0.381 N 
ATOM     19  H   LIG d   1      -0.853  95.586 118.368  0.00  0.00    -0.090 HD
ATOM     20  H   LIG d   1      -2.225  94.752 118.120  0.00  0.00    -0.090 HD
ATOM     21  H   LIG d   1      -1.500  95.520 116.869  0.00  0.00    -0.090 HD
ENDBRANCH   5  18
BRANCH   3  22
ATOM     22  C   LIG d   1       2.958  92.935 118.032  0.00  0.00     0.382 C 
ATOM     23  O   LIG d   1       3.576  92.975 116.941  0.00  0.00    -0.241 OA
ATOM     24  O   LIG d   1       3.596  92.985 119.100  0.00  0.00    -0.241 OA
ENDBRANCH   3  22
TORSDOF 7
ENDMDL
MODEL 6
REMARK VINA RESULT:      -4.4      2.366      4.437
REMARK  7 active torsions:
REMARK  status: ('A' for Active; 'I' for Inactive)
REMARK    1  A    between atoms: C_2  and  C_3 
REMARK    2  A    between atoms: C_3  and  O_6 
REMARK    3  A    between atoms: C_3  and  C_4 
REMARK    4  A    between atoms: C_7  and  O_6 
REMARK    5  A    between atoms: C_9  and  C_10 
REMARK    6  A    between atoms: N_15  and  C_14 
REMARK    7  A    between atoms: N_20  and  C_19 
REMARK       I    between atoms: C_22  and  N_20 
ROOT
ATOM      1  C   LIG d   1      -2.859  93.064 118.084  0.00  0.00     0.161 C 
ATOM      2  C   LIG d   1      -4.157  92.906 117.569  0.00  0.00     0.016 C 
ATOM      3  C   LIG d   1      -4.676  91.664 117.135  0.00  0.00     0.038 C 
ATOM      4  C   LIG d   1      -3.979  90.462 117.328  0.00  0.00     0.028 C 
ATOM      5  C   LIG d   1      -2.466  90.640 117.380  0.00  0.00    -0.047 C 
ATOM      6  C   LIG d   1      -2.125  91.746 118.405  0.00  0.00     0.091 C 
ENDROOT
BRANCH   1   7
ATOM      7  O   LIG d   1      -2.896  93.914 119.247  0.00  0.00    -0.368 OA
BRANCH   7   8
ATOM      8  C   LIG d   1      -2.035  95.079 119.213  0.00  0.00     0.119 C 
BRANCH   8   9
ATOM      9  C   LIG d   1      -2.851  96.272 119.747  0.00  0.00     0.028 C 
ATOM     10  C   LIG d   1      -4.362  95.988 119.769  0.00  0.00     0.006 C 
ENDBRANCH   8   9
BRANCH   8  11
ATOM     11  C   LIG d   1      -1.662  95.454 117.776  0.00  0.00     0.028 C 
ATOM     12  C   LIG d   1      -0.144  95.577 117.568  0.00  0.00     0.006 C 
ENDBRANCH   8  11
ENDBRANCH   7   8
ENDBRANCH   1   7
BRANCH   6  13
ATOM     13  N   LIG d   1      -0.670  92.042 118.457  0.00  0.00    -0.311 N 
ATOM     14  C   LIG d   1       0.048  91.994 119.577  0.00  0.00     0.210 C 
ATOM     15  C   LIG d   1       1.528  92.355 119.413  0.00  0.00     0.109 C 
ATOM     16  O   LIG d   1      -0.392  91.655 120.686  0.00  0.00    -0.276 OA
ATOM     17  H   LIG d   1      -0.225  92.295 117.596  0.00  0.00     0.149 HD
ENDBRANCH   6  13
BRANCH   5  18
ATOM     18  N   LIG d   1      -1.875  89.332 117.722  0.00  0.00     0.381 N 
ATOM     19  H   LIG d   1      -1.306  89.009 116.965  0.00  0.00    -0.090 HD
ATOM     20  H   LIG d   1      -2.615  88.668 117.865  0.00  0.00    -0.090 HD
ATOM     21  H   LIG d   1      -1.326  89.412 118.549  0.00  0.00    -0.090 HD
ENDBRANCH   5  18
BRANCH   3  22
ATOM     22  C   LIG d   1      -5.888  91.623 116.463  0.00  0.00     0.382 C 
ATOM     23  O   LIG d   1      -6.132  92.457 115.558  0.00  0.00    -0.241 OA
ATOM     24  O   LIG d   1      -6.758  90.790 116.781  0.00  0.00    -0.241 OA
ENDBRANCH   3  22
TORSDOF 7
ENDMDL
MODEL 7
REMARK VINA RESULT:      -4.3      2.877      4.942
REMARK  7 active torsions:
REMARK  status: ('A' for Active; 'I' for Inactive)
REMARK    1  A    between atoms: C_2  and  C_3 
REMARK    2  A    between atoms: C_3  and  O_6 
REMARK    3  A    between atoms: C_3  and  C_4 
REMARK    4  A    between atoms: C_7  and  O_6 
REMARK    5  A    between atoms: C_9  and  C_10 
REMARK    6  A    between atoms: N_15  and  C_14 
REMARK    7  A    between atoms: N_20  and  C_19 
REMARK       I    between atoms: C_22  and  N_20 
ROOT
ATOM      1  C   LIG d   1      -1.768  93.083 117.562  0.00  0.00     0.161 C 
ATOM      2  C   LIG d   1      -3.149  92.831 117.511  0.00  0.00     0.016 C 
ATOM      3  C   LIG d   1      -3.707  91.535 117.593  0.00  0.00     0.038 C 
ATOM      4  C   LIG d   1      -2.925  90.408 117.885  0.00  0.00     0.028 C 
ATOM      5  C   LIG d   1      -1.472  90.547 117.443  0.00  0.00    -0.047 C 
ATOM      6  C   LIG d   1      -0.906  91.877 117.992  0.00  0.00     0.091 C 
ENDROOT
BRANCH   1   7
ATOM      7  O   LIG d   1      -1.508  94.214 118.416  0.00  0.00    -0.368 OA
BRANCH   7   8
ATOM      8  C   LIG d   1      -1.485  95.510 117.769  0.00  0.00     0.119 C 
BRANCH   8   9
ATOM      9  C   LIG d   1      -0.008  95.897 117.560  0.00  0.00     0.028 C 
ATOM     10  C   LIG d   1       0.564  96.690 118.747  0.00  0.00     0.006 C 
ENDBRANCH   8   9
BRANCH   8  11
ATOM     11  C   LIG d   1      -2.065  96.597 118.678  0.00  0.00     0.028 C 
ATOM     12  C   LIG d   1      -3.125  96.058 119.651  0.00  0.00     0.006 C 
ENDBRANCH   8  11
ENDBRANCH   7   8
ENDBRANCH   1   7
BRANCH   6  13
ATOM     13  N   LIG d   1       0.485  92.132 117.535  0.00  0.00    -0.311 N 
ATOM     14  C   LIG d   1       1.461  92.532 118.347  0.00  0.00     0.210 C 
ATOM     15  C   LIG d   1       2.816  92.757 117.668  0.00  0.00     0.109 C 
ATOM     16  O   LIG d   1       1.342  92.692 119.571  0.00  0.00    -0.276 OA
ATOM     17  H   LIG d   1       0.677  91.997 116.562  0.00  0.00     0.149 HD
ENDBRANCH   6  13
BRANCH   5  18
ATOM     18  N   LIG d   1      -0.742  89.362 117.931  0.00  0.00     0.381 N 
ATOM     19  H   LIG d   1       0.241  89.489 117.792  0.00  0.00    -0.090 HD
ATOM     20  H   LIG d   1      -1.034  88.560 117.402  0.00  0.00    -0.090 HD
ATOM     21  H   LIG d   1      -0.932  89.219 118.898  0.00  0.00    -0.090 HD
ENDBRANCH   5  18
BRANCH   3  22
ATOM     22  C   LIG d   1      -5.059  91.352 117.341  0.00  0.00     0.382 C 
ATOM     23  O   LIG d   1      -5.899  92.150 117.820  0.00  0.00    -0.241 OA
ATOM     24  O   LIG d   1      -5.451  90.372 116.679  0.00  0.00    -0.241 OA
ENDBRANCH   3  22
TORSDOF 7
ENDMDL
MODEL 8
REMARK VINA RESULT:      -4.3      3.179      4.816
REMARK  7 active torsions:
REMARK  status: ('A' for Active; 'I' for Inactive)
REMARK    1  A    between atoms: C_2  and  C_3 
REMARK    2  A    between atoms: C_3  and  O_6 
REMARK    3  A    between atoms: C_3  and  C_4 
REMARK    4  A    between atoms: C_7  and  O_6 
REMARK    5  A    between atoms: C_9  and  C_10 
REMARK    6  A    between atoms: N_15  and  C_14 
REMARK    7  A    between atoms: N_20  and  C_19 
REMARK       I    between atoms: C_22  and  N_20 
ROOT
ATOM      1  C   LIG d   1       0.074  90.631 117.658  0.00  0.00     0.161 C 
ATOM      2  C   LIG d   1      -1.298  90.500 117.388  0.00  0.00     0.016 C 
ATOM      3  C   LIG d   1      -2.228  91.553 117.547  0.00  0.00     0.038 C 
ATOM      4  C   LIG d   1      -1.820  92.862 117.844  0.00  0.00     0.028 C 
ATOM      5  C   LIG d   1      -0.507  92.927 118.617  0.00  0.00    -0.047 C 
ATOM      6  C   LIG d   1       0.554  92.082 117.877  0.00  0.00     0.091 C 
ENDROOT
BRANCH   1   7
ATOM      7  O   LIG d   1       0.840  90.002 116.612  0.00  0.00    -0.368 OA
BRANCH   7   8
ATOM      8  C   LIG d   1       1.685  88.897 117.018  0.00  0.00     0.119 C 
BRANCH   8   9
ATOM      9  C   LIG d   1       2.865  88.830 116.029  0.00  0.00     0.028 C 
ATOM     10  C   LIG d   1       2.981  90.097 115.165  0.00  0.00     0.006 C 
ENDBRANCH   8   9
BRANCH   8  11
ATOM     11  C   LIG d   1       0.958  87.557 116.873  0.00  0.00     0.028 C 
ATOM     12  C   LIG d   1       0.544  86.955 118.225  0.00  0.00     0.006 C 
ENDBRANCH   8  11
ENDBRANCH   7   8
ENDBRANCH   1   7
BRANCH   6  13
ATOM     13  N   LIG d   1       1.845  92.023 118.611  0.00  0.00    -0.311 N 
ATOM     14  C   LIG d   1       2.991  92.485 118.115  0.00  0.00     0.210 C 
ATOM     15  C   LIG d   1       4.208  92.307 119.028  0.00  0.00     0.109 C 
ATOM     16  O   LIG d   1       3.110  93.054 117.020  0.00  0.00    -0.276 OA
ATOM     17  H   LIG d   1       1.834  91.605 119.520  0.00  0.00     0.149 HD
ENDBRANCH   6  13
BRANCH   5  18
ATOM     18  N   LIG d   1      -0.132  94.349 118.739  0.00  0.00     0.381 N 
ATOM     19  H   LIG d   1       0.822  94.472 118.465  0.00  0.00    -0.090 HD
ATOM     20  H   LIG d   1      -0.222  94.628 119.700  0.00  0.00    -0.090 HD
ATOM     21  H   LIG d   1      -0.724  94.908 118.166  0.00  0.00    -0.090 HD
ENDBRANCH   5  18
BRANCH   3  22
ATOM     22  C   LIG d   1      -3.586  91.293 117.447  0.00  0.00     0.382 C 
ATOM     23  O   LIG d   1      -4.369  92.191 117.055  0.00  0.00    -0.241 OA
ATOM     24  O   LIG d   1      -4.043  90.185 117.785  0.00  0.00    -0.241 OA
ENDBRANCH   3  22
TORSDOF 7
ENDMDL
MODEL 9
REMARK VINA RESULT:      -4.3      2.724      4.276
REMARK  7 active torsions:
REMARK  status: ('A' for Active; 'I' for Inactive)
REMARK    1  A    between atoms: C_2  and  C_3 
REMARK    2  A    between atoms: C_3  and  O_6 
REMARK    3  A    between atoms: C_3  and  C_4 
REMARK    4  A    between atoms: C_7  and  O_6 
REMARK    5  A    between atoms: C_9  and  C_10 
REMARK    6  A    between atoms: N_15  and  C_14 
REMARK    7  A    between atoms: N_20  and  C_19 
REMARK       I    between atoms: C_22  and  N_20 
ROOT
ATOM      1  C   LIG d   1      -0.593  91.991 119.195  0.00  0.00     0.161 C 
ATOM      2  C   LIG d   1      -1.477  91.030 118.680  0.00  0.00     0.016 C 
ATOM      3  C   LIG d   1      -2.684  91.357 118.020  0.00  0.00     0.038 C 
ATOM      4  C   LIG d   1      -3.016  92.681 117.694  0.00  0.00     0.028 C 
ATOM      5  C   LIG d   1      -2.401  93.709 118.638  0.00  0.00    -0.047 C 
ATOM      6  C   LIG d   1      -0.883  93.441 118.751  0.00  0.00     0.091 C 
ENDROOT
BRANCH   1   7
ATOM      7  O   LIG d   1       0.765  91.630 118.871  0.00  0.00    -0.368 OA
BRANCH   7   8
ATOM      8  C   LIG d   1       1.245  92.058 117.572  0.00  0.00     0.119 C 
BRANCH   8   9
ATOM      9  C   LIG d   1       1.459  90.794 116.718  0.00  0.00     0.028 C 
ATOM     10  C   LIG d   1       2.857  90.747 116.079  0.00  0.00     0.006 C 
ENDBRANCH   8   9
BRANCH   8  11
ATOM     11  C   LIG d   1       2.624  92.715 117.677  0.00  0.00     0.028 C 
ATOM     12  C   LIG d   1       3.102  92.868 119.130  0.00  0.00     0.006 C 
ENDBRANCH   8  11
ENDBRANCH   7   8
ENDBRANCH   1   7
BRANCH   6  13
ATOM     13  N   LIG d   1      -0.218  94.350 119.721  0.00  0.00    -0.311 N 
ATOM     14  C   LIG d   1       0.455  95.441 119.361  0.00  0.00     0.210 C 
ATOM     15  C   LIG d   1       1.080  96.227 120.517  0.00  0.00     0.109 C 
ATOM     16  O   LIG d   1       0.566  95.851 118.195  0.00  0.00    -0.276 OA
ATOM     17  H   LIG d   1      -0.284  94.109 120.691  0.00  0.00     0.149 HD
ENDBRANCH   6  13
BRANCH   5  18
ATOM     18  N   LIG d   1      -2.713  95.047 118.103  0.00  0.00     0.381 N 
ATOM     19  H   LIG d   1      -2.605  95.048 117.108  0.00  0.00    -0.090 HD
ATOM     20  H   LIG d   1      -2.066  95.711 118.491  0.00  0.00    -0.090 HD
ATOM     21  H   LIG d   1      -3.646  95.302 118.343  0.00  0.00    -0.090 HD
ENDBRANCH   5  18
BRANCH   3  22
ATOM     22  C   LIG d   1      -3.593  90.356 117.713  0.00  0.00     0.382 C 
ATOM     23  O   LIG d   1      -3.340  89.165 118.016  0.00  0.00    -0.241 OA
ATOM     24  O   LIG d   1      -4.643  90.622 117.098  0.00  0.00    -0.241 OA
ENDBRANCH   3  22
TORSDOF 7
ENDMDL
