MODEL 1
REMARK VINA RESULT:      -5.8      0.000      0.000
REMARK  7 active torsions:
REMARK  status: ('A' for Active; 'I' for Inactive)
REMARK    1  A    between atoms: C_2  and  C_3 
REMARK    2  A    between atoms: C_3  and  O_6 
REMARK    3  A    between atoms: C_3  and  C_4 
REMARK    4  A    between atoms: C_7  and  O_6 
REMARK    5  A    between atoms: C_9  and  C_10 
REMARK    6  A    between atoms: N_15  and  C_14 
REMARK    7  A    between atoms: N_20  and  C_19 
REMARK       I    between atoms: C_22  and  N_20 
ROOT
ATOM      1  C   LIG d   1      -6.475  92.079 117.593  0.00  0.00     0.161 C 
ATOM      2  C   LIG d   1      -7.330  93.186 117.464  0.00  0.00     0.016 C 
ATOM      3  C   LIG d   1      -7.140  94.401 118.161  0.00  0.00     0.038 C 
ATOM      4  C   LIG d   1      -5.988  94.646 118.923  0.00  0.00     0.028 C 
ATOM      5  C   LIG d   1      -5.352  93.379 119.485  0.00  0.00    -0.047 C 
ATOM      6  C   LIG d   1      -5.153  92.366 118.334  0.00  0.00     0.091 C 
ENDROOT
BRANCH   1   7
ATOM      7  O   LIG d   1      -6.209  91.513 116.294  0.00  0.00    -0.368 OA
BRANCH   7   8
ATOM      8  C   LIG d   1      -6.888  90.270 115.989  0.00  0.00     0.119 C 
BRANCH   8   9
ATOM      9  C   LIG d   1      -7.244  90.293 114.490  0.00  0.00     0.028 C 
ATOM     10  C   LIG d   1      -7.343  91.723 113.932  0.00  0.00     0.006 C 
ENDBRANCH   8   9
BRANCH   8  11
ATOM     11  C   LIG d   1      -8.229  90.172 116.723  0.00  0.00     0.028 C 
ATOM     12  C   LIG d   1      -9.139  89.072 116.156  0.00  0.00     0.006 C 
ENDBRANCH   8  11
ENDBRANCH   7   8
ENDBRANCH   1   7
BRANCH   6  13
ATOM     13  N   LIG d   1      -4.613  91.066 118.811  0.00  0.00    -0.311 N 
ATOM     14  C   LIG d   1      -3.317  90.757 118.790  0.00  0.00     0.210 C 
ATOM     15  C   LIG d   1      -2.977  89.357 119.309  0.00  0.00     0.109 C 
ATOM     16  O   LIG d   1      -2.414  91.523 118.420  0.00  0.00    -0.276 OA
ATOM     17  H   LIG d   1      -5.273  90.397 119.157  0.00  0.00     0.149 HD
ENDBRANCH   6  13
BRANCH   5  18
ATOM     18  N   LIG d   1      -4.089  93.766 120.140  0.00  0.00     0.381 N 
ATOM     19  H   LIG d   1      -4.284  94.242 120.998  0.00  0.00    -0.090 HD
ATOM     20  H   LIG d   1      -3.590  94.396 119.536  0.00  0.00    -0.090 HD
ATOM     21  H   LIG d   1      -3.535  92.958 120.319  0.00  0.00    -0.090 HD
ENDBRANCH   5  18
BRANCH   3  22
ATOM     22  C   LIG d   1      -8.128  95.373 118.130  0.00  0.00     0.382 C 
ATOM     23  O   LIG d   1      -9.252  95.109 117.638  0.00  0.00    -0.241 OA
ATOM     24  O   LIG d   1      -7.896  96.523 118.548  0.00  0.00    -0.241 OA
ENDBRANCH   3  22
TORSDOF 7
ENDMDL
MODEL 2
REMARK VINA RESULT:      -5.7      2.182      5.620
REMARK  7 active torsions:
REMARK  status: ('A' for Active; 'I' for Inactive)
REMARK    1  A    between atoms: C_2  and  C_3 
REMARK    2  A    between atoms: C_3  and  O_6 
REMARK    3  A    between atoms: C_3  and  C_4 
REMARK    4  A    between atoms: C_7  and  O_6 
REMARK    5  A    between atoms: C_9  and  C_10 
REMARK    6  A    between atoms: N_15  and  C_14 
REMARK    7  A    between atoms: N_20  and  C_19 
REMARK       I    between atoms: C_22  and  N_20 
ROOT
ATOM      1  C   LIG d   1      -5.314  92.308 118.002  0.00  0.00     0.161 C 
ATOM      2  C   LIG d   1      -5.477  91.271 117.068  0.00  0.00     0.016 C 
ATOM      3  C   LIG d   1      -6.612  91.147 116.235  0.00  0.00     0.038 C 
ATOM      4  C   LIG d   1      -7.599  92.142 116.172  0.00  0.00     0.028 C 
ATOM      5  C   LIG d   1      -7.726  92.951 117.458  0.00  0.00    -0.047 C 
ATOM      6  C   LIG d   1      -6.327  93.464 117.869  0.00  0.00     0.091 C 
ENDROOT
BRANCH   1   7
ATOM      7  O   LIG d   1      -3.965  92.814 117.939  0.00  0.00    -0.368 OA
BRANCH   7   8
ATOM      8  C   LIG d   1      -3.108  92.485 119.060  0.00  0.00     0.119 C 
BRANCH   8   9
ATOM      9  C   LIG d   1      -2.656  93.811 119.702  0.00  0.00     0.028 C 
ATOM     10  C   LIG d   1      -2.588  94.962 118.684  0.00  0.00     0.006 C 
ENDBRANCH   8   9
BRANCH   8  11
ATOM     11  C   LIG d   1      -1.821  91.799 118.594  0.00  0.00     0.028 C 
ATOM     12  C   LIG d   1      -2.030  90.320 118.233  0.00  0.00     0.006 C 
ENDBRANCH   8  11
ENDBRANCH   7   8
ENDBRANCH   1   7
BRANCH   6  13
ATOM     13  N   LIG d   1      -6.349  94.195 119.163  0.00  0.00    -0.311 N 
ATOM     14  C   LIG d   1      -6.569  95.505 119.262  0.00  0.00     0.210 C 
ATOM     15  C   LIG d   1      -6.528  96.061 120.688  0.00  0.00     0.109 C 
ATOM     16  O   LIG d   1      -6.825  96.253 118.306  0.00  0.00    -0.276 OA
ATOM     17  H   LIG d   1      -6.181  93.659 119.992  0.00  0.00     0.149 HD
ENDBRANCH   6  13
BRANCH   5  18
ATOM     18  N   LIG d   1      -8.690  94.039 117.207  0.00  0.00     0.381 N 
ATOM     19  H   LIG d   1      -8.717  94.656 117.994  0.00  0.00    -0.090 HD
ATOM     20  H   LIG d   1      -9.605  93.641 117.086  0.00  0.00    -0.090 HD
ATOM     21  H   LIG d   1      -8.429  94.544 116.389  0.00  0.00    -0.090 HD
ENDBRANCH   5  18
BRANCH   3  22
ATOM     22  C   LIG d   1      -6.789  89.996 115.481  0.00  0.00     0.382 C 
ATOM     23  O   LIG d   1      -7.933  89.496 115.359  0.00  0.00    -0.241 OA
ATOM     24  O   LIG d   1      -5.811  89.427 114.960  0.00  0.00    -0.241 OA
ENDBRANCH   3  22
TORSDOF 7
ENDMDL
MODEL 3
REMARK VINA RESULT:      -5.7      2.278      5.820
REMARK  7 active torsions:
REMARK  status: ('A' for Active; 'I' for Inactive)
REMARK    1  A    between atoms: C_2  and  C_3 
REMARK    2  A    between atoms: C_3  and  O_6 
REMARK    3  A    between atoms: C_3  and  C_4 
REMARK    4  A    between atoms: C_7  and  O_6 
REMARK    5  A    between atoms: C_9  and  C_10 
REMARK    6  A    between atoms: N_15  and  C_14 
REMARK    7  A    between atoms: N_20  and  C_19 
REMARK       I    between atoms: C_22  and  N_20 
ROOT
ATOM      1  C   LIG d   1      -5.297  92.467 117.899  0.00  0.00     0.161 C 
ATOM      2  C   LIG d   1      -5.459  91.391 117.010  0.00  0.00     0.016 C 
ATOM      3  C   LIG d   1      -6.627  91.187 116.240  0.00  0.00     0.038 C 
ATOM      4  C   LIG d   1      -7.660  92.135 116.194  0.00  0.00     0.028 C 
ATOM      5  C   LIG d   1      -7.760  92.983 117.457  0.00  0.00    -0.047 C 
ATOM      6  C   LIG d   1      -6.367  93.572 117.778  0.00  0.00     0.091 C 
ENDROOT
BRANCH   1   7
ATOM      7  O   LIG d   1      -3.978  93.029 117.750  0.00  0.00    -0.368 OA
BRANCH   7   8
ATOM      8  C   LIG d   1      -2.933  92.421 118.549  0.00  0.00     0.119 C 
BRANCH   8   9
ATOM      9  C   LIG d   1      -3.482  92.250 119.978  0.00  0.00     0.028 C 
ATOM     10  C   LIG d   1      -3.116  90.887 120.589  0.00  0.00     0.006 C 
ENDBRANCH   8   9
BRANCH   8  11
ATOM     11  C   LIG d   1      -1.725  93.352 118.687  0.00  0.00     0.028 C 
ATOM     12  C   LIG d   1      -2.012  94.779 118.194  0.00  0.00     0.006 C 
ENDBRANCH   8  11
ENDBRANCH   7   8
ENDBRANCH   1   7
BRANCH   6  13
ATOM     13  N   LIG d   1      -6.358  94.347 119.047  0.00  0.00    -0.311 N 
ATOM     14  C   LIG d   1      -6.670  95.640 119.118  0.00  0.00     0.210 C 
ATOM     15  C   LIG d   1      -6.577  96.251 120.520  0.00  0.00     0.109 C 
ATOM     16  O   LIG d   1      -7.045  96.331 118.159  0.00  0.00    -0.276 OA
ATOM     17  H   LIG d   1      -6.096  93.856 119.879  0.00  0.00     0.149 HD
ENDBRANCH   6  13
BRANCH   5  18
ATOM     18  N   LIG d   1      -8.784  94.018 117.219  0.00  0.00     0.381 N 
ATOM     19  H   LIG d   1      -8.464  94.899 117.570  0.00  0.00    -0.090 HD
ATOM     20  H   LIG d   1      -9.622  93.767 117.713  0.00  0.00    -0.090 HD
ATOM     21  H   LIG d   1      -8.975  94.091 116.243  0.00  0.00    -0.090 HD
ENDBRANCH   5  18
BRANCH   3  22
ATOM     22  C   LIG d   1      -6.788  90.003 115.535  0.00  0.00     0.382 C 
ATOM     23  O   LIG d   1      -5.801  89.469 114.974  0.00  0.00    -0.241 OA
ATOM     24  O   LIG d   1      -7.915  89.486 115.418  0.00  0.00    -0.241 OA
ENDBRANCH   3  22
TORSDOF 7
ENDMDL
MODEL 4
REMARK VINA RESULT:      -5.4      2.015      4.810
REMARK  7 active torsions:
REMARK  status: ('A' for Active; 'I' for Inactive)
REMARK    1  A    between atoms: C_2  and  C_3 
REMARK    2  A    between atoms: C_3  and  O_6 
REMARK    3  A    between atoms: C_3  and  C_4 
REMARK    4  A    between atoms: C_7  and  O_6 
REMARK    5  A    between atoms: C_9  and  C_10 
REMARK    6  A    between atoms: N_15  and  C_14 
REMARK    7  A    between atoms: N_20  and  C_19 
REMARK       I    between atoms: C_22  and  N_20 
ROOT
ATOM      1  C   LIG d   1      -6.338  93.265 117.447  0.00  0.00     0.161 C 
ATOM      2  C   LIG d   1      -7.295  92.407 116.880  0.00  0.00     0.016 C 
ATOM      3  C   LIG d   1      -7.030  91.061 116.540  0.00  0.00     0.038 C 
ATOM      4  C   LIG d   1      -5.824  90.432 116.887  0.00  0.00     0.028 C 
ATOM      5  C   LIG d   1      -4.650  91.398 117.005  0.00  0.00    -0.047 C 
ATOM      6  C   LIG d   1      -5.052  92.566 117.935  0.00  0.00     0.091 C 
ENDROOT
BRANCH   1   7
ATOM      7  O   LIG d   1      -6.934  94.022 118.519  0.00  0.00    -0.368 OA
BRANCH   7   8
ATOM      8  C   LIG d   1      -8.069  94.848 118.161  0.00  0.00     0.119 C 
BRANCH   8   9
ATOM      9  C   LIG d   1      -7.727  96.299 118.553  0.00  0.00     0.028 C 
ATOM     10  C   LIG d   1      -6.308  96.432 119.131  0.00  0.00     0.006 C 
ENDBRANCH   8   9
BRANCH   8  11
ATOM     11  C   LIG d   1      -9.305  94.485 118.990  0.00  0.00     0.028 C 
ATOM     12  C   LIG d   1      -9.181  94.907 120.462  0.00  0.00     0.006 C 
ENDBRANCH   8  11
ENDBRANCH   7   8
ENDBRANCH   1   7
BRANCH   6  13
ATOM     13  N   LIG d   1      -3.989  93.600 118.037  0.00  0.00    -0.311 N 
ATOM     14  C   LIG d   1      -3.475  94.011 119.196  0.00  0.00     0.210 C 
ATOM     15  C   LIG d   1      -2.404  95.099 119.078  0.00  0.00     0.109 C 
ATOM     16  O   LIG d   1      -3.782  93.554 120.307  0.00  0.00    -0.276 OA
ATOM     17  H   LIG d   1      -3.659  94.001 117.182  0.00  0.00     0.149 HD
ENDBRANCH   6  13
BRANCH   5  18
ATOM     18  N   LIG d   1      -3.492  90.633 117.505  0.00  0.00     0.381 N 
ATOM     19  H   LIG d   1      -3.420  90.737 118.497  0.00  0.00    -0.090 HD
ATOM     20  H   LIG d   1      -2.655  91.000 117.087  0.00  0.00    -0.090 HD
ATOM     21  H   LIG d   1      -3.593  89.669 117.271  0.00  0.00    -0.090 HD
ENDBRANCH   5  18
BRANCH   3  22
ATOM     22  C   LIG d   1      -7.962  90.339 115.811  0.00  0.00     0.382 C 
ATOM     23  O   LIG d   1      -8.275  89.178 116.167  0.00  0.00    -0.241 OA
ATOM     24  O   LIG d   1      -8.461  90.818 114.775  0.00  0.00    -0.241 OA
ENDBRANCH   3  22
TORSDOF 7
ENDMDL
MODEL 5
REMARK VINA RESULT:      -5.3      2.212      4.769
REMARK  7 active torsions:
REMARK  status: ('A' for Active; 'I' for Inactive)
REMARK    1  A    between atoms: C_2  and  C_3 
REMARK    2  A    between atoms: C_3  and  O_6 
REMARK    3  A    between atoms: C_3  and  C_4 
REMARK    4  A    between atoms: C_7  and  O_6 
REMARK    5  A    between atoms: C_9  and  C_10 
REMARK    6  A    between atoms: N_15  and  C_14 
REMARK    7  A    between atoms: N_20  and  C_19 
REMARK       I    between atoms: C_22  and  N_20 
ROOT
ATOM      1  C   LIG d   1      -4.809  92.395 117.778  0.00  0.00     0.161 C 
ATOM      2  C   LIG d   1      -4.505  93.415 118.694  0.00  0.00     0.016 C 
ATOM      3  C   LIG d   1      -5.430  94.409 119.089  0.00  0.00     0.038 C 
ATOM      4  C   LIG d   1      -6.778  94.361 118.705  0.00  0.00     0.028 C 
ATOM      5  C   LIG d   1      -7.005  93.640 117.380  0.00  0.00    -0.047 C 
ATOM      6  C   LIG d   1      -6.308  92.262 117.433  0.00  0.00     0.091 C 
ENDROOT
BRANCH   1   7
ATOM      7  O   LIG d   1      -4.291  91.138 118.255  0.00  0.00    -0.368 OA
BRANCH   7   8
ATOM      8  C   LIG d   1      -3.093  91.210 119.066  0.00  0.00     0.119 C 
BRANCH   8   9
ATOM      9  C   LIG d   1      -1.945  90.581 118.253  0.00  0.00     0.028 C 
ATOM     10  C   LIG d   1      -0.680  91.456 118.250  0.00  0.00     0.006 C 
ENDBRANCH   8   9
BRANCH   8  11
ATOM     11  C   LIG d   1      -3.219  90.345 120.324  0.00  0.00     0.028 C 
ATOM     12  C   LIG d   1      -2.879  88.868 120.069  0.00  0.00     0.006 C 
ENDBRANCH   8  11
ENDBRANCH   7   8
ENDBRANCH   1   7
BRANCH   6  13
ATOM     13  N   LIG d   1      -6.409  91.525 116.147  0.00  0.00    -0.311 N 
ATOM     14  C   LIG d   1      -7.381  90.655 115.875  0.00  0.00     0.210 C 
ATOM     15  C   LIG d   1      -7.287  89.991 114.498  0.00  0.00     0.109 C 
ATOM     16  O   LIG d   1      -8.329  90.395 116.631  0.00  0.00    -0.276 OA
ATOM     17  H   LIG d   1      -5.699  91.700 115.463  0.00  0.00     0.149 HD
ENDBRANCH   6  13
BRANCH   5  18
ATOM     18  N   LIG d   1      -8.462  93.543 117.170  0.00  0.00     0.381 N 
ATOM     19  H   LIG d   1      -8.918  93.359 118.041  0.00  0.00    -0.090 HD
ATOM     20  H   LIG d   1      -8.650  92.777 116.547  0.00  0.00    -0.090 HD
ATOM     21  H   LIG d   1      -8.807  94.392 116.779  0.00  0.00    -0.090 HD
ENDBRANCH   5  18
BRANCH   3  22
ATOM     22  C   LIG d   1      -4.998  95.489 119.844  0.00  0.00     0.382 C 
ATOM     23  O   LIG d   1      -5.717  95.932 120.772  0.00  0.00    -0.241 OA
ATOM     24  O   LIG d   1      -3.919  96.052 119.582  0.00  0.00    -0.241 OA
ENDBRANCH   3  22
TORSDOF 7
ENDMDL
MODEL 6
REMARK VINA RESULT:      -5.0      2.186      4.927
REMARK  7 active torsions:
REMARK  status: ('A' for Active; 'I' for Inactive)
REMARK    1  A    between atoms: C_2  and  C_3 
REMARK    2  A    between atoms: C_3  and  O_6 
REMARK    3  A    between atoms: C_3  and  C_4 
REMARK    4  A    between atoms: C_7  and  O_6 
REMARK    5  A    between atoms: C_9  and  C_10 
REMARK    6  A    between atoms: N_15  and  C_14 
REMARK    7  A    between atoms: N_20  and  C_19 
REMARK       I    between atoms: C_22  and  N_20 
ROOT
ATOM      1  C   LIG d   1      -4.537  91.620 117.977  0.00  0.00     0.161 C 
ATOM      2  C   LIG d   1      -5.342  90.927 117.058  0.00  0.00     0.016 C 
ATOM      3  C   LIG d   1      -6.487  91.489 116.448  0.00  0.00     0.038 C 
ATOM      4  C   LIG d   1      -6.820  92.843 116.602  0.00  0.00     0.028 C 
ATOM      5  C   LIG d   1      -6.327  93.443 117.914  0.00  0.00    -0.047 C 
ATOM      6  C   LIG d   1      -4.821  93.134 118.073  0.00  0.00     0.091 C 
ENDROOT
BRANCH   1   7
ATOM      7  O   LIG d   1      -3.146  91.389 117.680  0.00  0.00    -0.368 OA
BRANCH   7   8
ATOM      8  C   LIG d   1      -2.372  90.738 118.718  0.00  0.00     0.119 C 
BRANCH   8   9
ATOM      9  C   LIG d   1      -1.571  89.602 118.054  0.00  0.00     0.028 C 
ATOM     10  C   LIG d   1      -0.054  89.759 118.254  0.00  0.00     0.006 C 
ENDBRANCH   8   9
BRANCH   8  11
ATOM     11  C   LIG d   1      -3.280  90.050 119.742  0.00  0.00     0.028 C 
ATOM     12  C   LIG d   1      -2.738  88.686 120.196  0.00  0.00     0.006 C 
ENDBRANCH   8  11
ENDBRANCH   7   8
ENDBRANCH   1   7
BRANCH   6  13
ATOM     13  N   LIG d   1      -4.278  93.613 119.371  0.00  0.00    -0.311 N 
ATOM     14  C   LIG d   1      -3.485  94.677 119.486  0.00  0.00     0.210 C 
ATOM     15  C   LIG d   1      -3.020  94.985 120.913  0.00  0.00     0.109 C 
ATOM     16  O   LIG d   1      -3.148  95.413 118.546  0.00  0.00    -0.276 OA
ATOM     17  H   LIG d   1      -4.526  93.092 120.189  0.00  0.00     0.149 HD
ENDBRANCH   6  13
BRANCH   5  18
ATOM     18  N   LIG d   1      -6.621  94.888 117.882  0.00  0.00     0.381 N 
ATOM     19  H   LIG d   1      -6.355  95.268 116.996  0.00  0.00    -0.090 HD
ATOM     20  H   LIG d   1      -6.082  95.345 118.596  0.00  0.00    -0.090 HD
ATOM     21  H   LIG d   1      -7.593  95.042 118.040  0.00  0.00    -0.090 HD
ENDBRANCH   5  18
BRANCH   3  22
ATOM     22  C   LIG d   1      -7.335  90.683 115.704  0.00  0.00     0.382 C 
ATOM     23  O   LIG d   1      -7.273  89.435 115.818  0.00  0.00    -0.241 OA
ATOM     24  O   LIG d   1      -8.132  91.185 114.889  0.00  0.00    -0.241 OA
ENDBRANCH   3  22
TORSDOF 7
ENDMDL
MODEL 7
REMARK VINA RESULT:      -4.8      1.610      2.808
REMARK  7 active torsions:
REMARK  status: ('A' for Active; 'I' for Inactive)
REMARK    1  A    between atoms: C_2  and  C_3 
REMARK    2  A    between atoms: C_3  and  O_6 
REMARK    3  A    between atoms: C_3  and  C_4 
REMARK    4  A    between atoms: C_7  and  O_6 
REMARK    5  A    between atoms: C_9  and  C_10 
REMARK    6  A    between atoms: N_15  and  C_14 
REMARK    7  A    between atoms: N_20  and  C_19 
REMARK       I    between atoms: C_22  and  N_20 
ROOT
ATOM      1  C   LIG d   1      -5.332  93.198 118.695  0.00  0.00     0.161 C 
ATOM      2  C   LIG d   1      -6.542  93.792 118.298  0.00  0.00     0.016 C 
ATOM      3  C   LIG d   1      -6.901  95.119 118.625  0.00  0.00     0.038 C 
ATOM      4  C   LIG d   1      -6.002  95.999 119.247  0.00  0.00     0.028 C 
ATOM      5  C   LIG d   1      -4.964  95.292 120.111  0.00  0.00    -0.047 C 
ATOM      6  C   LIG d   1      -4.292  94.177 119.278  0.00  0.00     0.091 C 
ENDROOT
BRANCH   1   7
ATOM      7  O   LIG d   1      -4.765  92.462 117.593  0.00  0.00    -0.368 OA
BRANCH   7   8
ATOM      8  C   LIG d   1      -4.976  91.029 117.607  0.00  0.00     0.119 C 
BRANCH   8   9
ATOM      9  C   LIG d   1      -3.599  90.359 117.778  0.00  0.00     0.028 C 
ATOM     10  C   LIG d   1      -3.429  89.711 119.162  0.00  0.00     0.006 C 
ENDBRANCH   8   9
BRANCH   8  11
ATOM     11  C   LIG d   1      -5.506  90.530 116.260  0.00  0.00     0.028 C 
ATOM     12  C   LIG d   1      -7.035  90.638 116.143  0.00  0.00     0.006 C 
ENDBRANCH   8  11
ENDBRANCH   7   8
ENDBRANCH   1   7
BRANCH   6  13
ATOM     13  N   LIG d   1      -3.322  93.381 120.074  0.00  0.00    -0.311 N 
ATOM     14  C   LIG d   1      -2.058  93.183 119.703  0.00  0.00     0.210 C 
ATOM     15  C   LIG d   1      -1.232  92.315 120.659  0.00  0.00     0.109 C 
ATOM     16  O   LIG d   1      -1.533  93.670 118.691  0.00  0.00    -0.276 OA
ATOM     17  H   LIG d   1      -3.655  92.975 120.926  0.00  0.00     0.149 HD
ENDBRANCH   6  13
BRANCH   5  18
ATOM     18  N   LIG d   1      -4.010  96.313 120.586  0.00  0.00     0.381 N 
ATOM     19  H   LIG d   1      -3.202  96.322 119.997  0.00  0.00    -0.090 HD
ATOM     20  H   LIG d   1      -3.718  96.077 121.518  0.00  0.00    -0.090 HD
ATOM     21  H   LIG d   1      -4.442  97.211 120.583  0.00  0.00    -0.090 HD
ENDBRANCH   5  18
BRANCH   3  22
ATOM     22  C   LIG d   1      -8.187  95.567 118.365  0.00  0.00     0.382 C 
ATOM     23  O   LIG d   1      -9.032  94.790 117.858  0.00  0.00    -0.241 OA
ATOM     24  O   LIG d   1      -8.502  96.751 118.590  0.00  0.00    -0.241 OA
ENDBRANCH   3  22
TORSDOF 7
ENDMDL
MODEL 8
REMARK VINA RESULT:      -4.8      2.236      4.947
REMARK  7 active torsions:
REMARK  status: ('A' for Active; 'I' for Inactive)
REMARK    1  A    between atoms: C_2  and  C_3 
REMARK    2  A    between atoms: C_3  and  O_6 
REMARK    3  A    between atoms: C_3  and  C_4 
REMARK    4  A    between atoms: C_7  and  O_6 
REMARK    5  A    between atoms: C_9  and  C_10 
REMARK    6  A    between atoms: N_15  and  C_14 
REMARK    7  A    between atoms: N_20  and  C_19 
REMARK       I    between atoms: C_22  and  N_20 
ROOT
ATOM      1  C   LIG d   1      -5.283  93.191 118.718  0.00  0.00     0.161 C 
ATOM      2  C   LIG d   1      -6.200  93.027 117.667  0.00  0.00     0.016 C 
ATOM      3  C   LIG d   1      -6.121  91.978 116.722  0.00  0.00     0.038 C 
ATOM      4  C   LIG d   1      -5.199  90.929 116.855  0.00  0.00     0.028 C 
ATOM      5  C   LIG d   1      -3.935  91.325 117.610  0.00  0.00    -0.047 C 
ATOM      6  C   LIG d   1      -4.337  91.994 118.945  0.00  0.00     0.091 C 
ENDROOT
BRANCH   1   7
ATOM      7  O   LIG d   1      -5.986  93.511 119.935  0.00  0.00    -0.368 OA
BRANCH   7   8
ATOM      8  C   LIG d   1      -5.896  94.887 120.381  0.00  0.00     0.119 C 
BRANCH   8   9
ATOM      9  C   LIG d   1      -7.248  95.561 120.076  0.00  0.00     0.028 C 
ATOM     10  C   LIG d   1      -7.192  96.447 118.821  0.00  0.00     0.006 C 
ENDBRANCH   8   9
BRANCH   8  11
ATOM     11  C   LIG d   1      -4.861  95.669 119.568  0.00  0.00     0.028 C 
ATOM     12  C   LIG d   1      -3.806  96.355 120.450  0.00  0.00     0.006 C 
ENDBRANCH   8  11
ENDBRANCH   7   8
ENDBRANCH   1   7
BRANCH   6  13
ATOM     13  N   LIG d   1      -3.161  92.487 119.708  0.00  0.00    -0.311 N 
ATOM     14  C   LIG d   1      -2.216  93.263 119.179  0.00  0.00     0.210 C 
ATOM     15  C   LIG d   1      -1.081  93.642 120.134  0.00  0.00     0.109 C 
ATOM     16  O   LIG d   1      -2.228  93.700 118.018  0.00  0.00    -0.276 OA
ATOM     17  H   LIG d   1      -3.088  92.206 120.666  0.00  0.00     0.149 HD
ENDBRANCH   6  13
BRANCH   5  18
ATOM     18  N   LIG d   1      -3.126  90.105 117.795  0.00  0.00     0.381 N 
ATOM     19  H   LIG d   1      -3.544  89.525 118.495  0.00  0.00    -0.090 HD
ATOM     20  H   LIG d   1      -2.209  90.368 118.110  0.00  0.00    -0.090 HD
ATOM     21  H   LIG d   1      -3.060  89.606 116.936  0.00  0.00    -0.090 HD
ENDBRANCH   5  18
BRANCH   3  22
ATOM     22  C   LIG d   1      -6.944  91.994 115.607  0.00  0.00     0.382 C 
ATOM     23  O   LIG d   1      -8.100  91.511 115.674  0.00  0.00    -0.241 OA
ATOM     24  O   LIG d   1      -6.530  92.447 114.523  0.00  0.00    -0.241 OA
ENDBRANCH   3  22
TORSDOF 7
ENDMDL
MODEL 9
REMARK VINA RESULT:      -4.7      2.364      4.847
REMARK  7 active torsions:
REMARK  status: ('A' for Active; 'I' for Inactive)
REMARK    1  A    between atoms: C_2  and  C_3 
REMARK    2  A    between atoms: C_3  and  O_6 
REMARK    3  A    between atoms: C_3  and  C_4 
REMARK    4  A    between atoms: C_7  and  O_6 
REMARK    5  A    between atoms: C_9  and  C_10 
REMARK    6  A    between atoms: N_15  and  C_14 
REMARK    7  A    between atoms: N_20  and  C_19 
REMARK       I    between atoms: C_22  and  N_20 
ROOT
ATOM      1  C   LIG d   1      -4.274  93.041 118.434  0.00  0.00     0.161 C 
ATOM      2  C   LIG d   1      -5.512  93.701 118.361  0.00  0.00     0.016 C 
ATOM      3  C   LIG d   1      -6.645  93.160 117.711  0.00  0.00     0.038 C 
ATOM      4  C   LIG d   1      -6.660  91.846 117.218  0.00  0.00     0.028 C 
ATOM      5  C   LIG d   1      -5.280  91.332 116.822  0.00  0.00    -0.047 C 
ATOM      6  C   LIG d   1      -4.303  91.561 117.999  0.00  0.00     0.091 C 
ENDROOT
BRANCH   1   7
ATOM      7  O   LIG d   1      -3.734  93.161 119.765  0.00  0.00    -0.368 OA
BRANCH   7   8
ATOM      8  C   LIG d   1      -2.802  94.249 119.979  0.00  0.00     0.119 C 
BRANCH   8   9
ATOM      9  C   LIG d   1      -2.114  94.541 118.632  0.00  0.00     0.028 C 
ATOM     10  C   LIG d   1      -1.809  96.036 118.440  0.00  0.00     0.006 C 
ENDBRANCH   8   9
BRANCH   8  11
ATOM     11  C   LIG d   1      -1.674  93.837 120.930  0.00  0.00     0.028 C 
ATOM     12  C   LIG d   1      -1.414  92.322 120.925  0.00  0.00     0.006 C 
ENDBRANCH   8  11
ENDBRANCH   7   8
ENDBRANCH   1   7
BRANCH   6  13
ATOM     13  N   LIG d   1      -2.911  91.163 117.665  0.00  0.00    -0.311 N 
ATOM     14  C   LIG d   1      -2.256  90.189 118.295  0.00  0.00     0.210 C 
ATOM     15  C   LIG d   1      -0.822  89.954 117.808  0.00  0.00     0.109 C 
ATOM     16  O   LIG d   1      -2.736  89.477 119.189  0.00  0.00    -0.276 OA
ATOM     17  H   LIG d   1      -2.455  91.668 116.930  0.00  0.00     0.149 HD
ENDBRANCH   6  13
BRANCH   5  18
ATOM     18  N   LIG d   1      -5.422  89.910 116.457  0.00  0.00     0.381 N 
ATOM     19  H   LIG d   1      -5.216  89.788 115.486  0.00  0.00    -0.090 HD
ATOM     20  H   LIG d   1      -6.373  89.627 116.616  0.00  0.00    -0.090 HD
ATOM     21  H   LIG d   1      -4.805  89.353 117.007  0.00  0.00    -0.090 HD
ENDBRANCH   5  18
BRANCH   3  22
ATOM     22  C   LIG d   1      -7.767  93.950 117.514  0.00  0.00     0.382 C 
ATOM     23  O   LIG d   1      -7.718  95.180 117.757  0.00  0.00    -0.241 OA
ATOM     24  O   LIG d   1      -8.840  93.441 117.140  0.00  0.00    -0.241 OA
ENDBRANCH   3  22
TORSDOF 7
ENDMDL
