MODEL 1
REMARK VINA RESULT:      -4.9      0.000      0.000
REMARK  7 active torsions:
REMARK  status: ('A' for Active; 'I' for Inactive)
REMARK    1  A    between atoms: C_2  and  C_3 
REMARK    2  A    between atoms: C_3  and  O_6 
REMARK    3  A    between atoms: C_3  and  C_4 
REMARK    4  A    between atoms: C_7  and  O_6 
REMARK    5  A    between atoms: C_9  and  C_10 
REMARK    6  A    between atoms: N_15  and  C_14 
REMARK    7  A    between atoms: N_20  and  C_19 
REMARK       I    between atoms: C_22  and  N_20 
ROOT
ATOM      1  C   LIG d   1       0.779  90.232 117.072  0.00  0.00     0.161 C 
ATOM      2  C   LIG d   1      -0.625  90.184 117.067  0.00  0.00     0.016 C 
ATOM      3  C   LIG d   1      -1.439  91.142 117.715  0.00  0.00     0.038 C 
ATOM      4  C   LIG d   1      -0.902  92.304 118.290  0.00  0.00     0.028 C 
ATOM      5  C   LIG d   1       0.540  92.137 118.758  0.00  0.00    -0.047 C 
ATOM      6  C   LIG d   1       1.379  91.552 117.599  0.00  0.00     0.091 C 
ENDROOT
BRANCH   1   7
ATOM      7  O   LIG d   1       1.282  89.944 115.753  0.00  0.00    -0.368 OA
BRANCH   7   8
ATOM      8  C   LIG d   1       2.261  88.879 115.662  0.00  0.00     0.119 C 
BRANCH   8   9
ATOM      9  C   LIG d   1       3.341  89.327 114.659  0.00  0.00     0.028 C 
ATOM     10  C   LIG d   1       4.737  89.412 115.299  0.00  0.00     0.006 C 
ENDBRANCH   8   9
BRANCH   8  11
ATOM     11  C   LIG d   1       1.650  87.610 115.060  0.00  0.00     0.028 C 
ATOM     12  C   LIG d   1       2.390  86.332 115.486  0.00  0.00     0.006 C 
ENDBRANCH   8  11
ENDBRANCH   7   8
ENDBRANCH   1   7
BRANCH   6  13
ATOM     13  N   LIG d   1       2.785  91.279 117.999  0.00  0.00    -0.311 N 
ATOM     14  C   LIG d   1       3.774  92.158 117.847  0.00  0.00     0.210 C 
ATOM     15  C   LIG d   1       5.151  91.667 118.306  0.00  0.00     0.109 C 
ATOM     16  O   LIG d   1       3.636  93.309 117.405  0.00  0.00    -0.276 OA
ATOM     17  H   LIG d   1       2.980  90.380 118.395  0.00  0.00     0.149 HD
ENDBRANCH   6  13
BRANCH   5  18
ATOM     18  N   LIG d   1       1.018  93.458 119.208  0.00  0.00     0.381 N 
ATOM     19  H   LIG d   1       1.858  93.699 118.720  0.00  0.00    -0.090 HD
ATOM     20  H   LIG d   1       1.225  93.412 120.190  0.00  0.00    -0.090 HD
ATOM     21  H   LIG d   1       0.319  94.149 119.041  0.00  0.00    -0.090 HD
ENDBRANCH   5  18
BRANCH   3  22
ATOM     22  C   LIG d   1      -2.803  90.921 117.828  0.00  0.00     0.382 C 
ATOM     23  O   LIG d   1      -3.226  89.821 118.259  0.00  0.00    -0.241 OA
ATOM     24  O   LIG d   1      -3.616  91.791 117.463  0.00  0.00    -0.241 OA
ENDBRANCH   3  22
TORSDOF 7
ENDMDL
MODEL 2
REMARK VINA RESULT:      -4.7      1.631      4.621
REMARK  7 active torsions:
REMARK  status: ('A' for Active; 'I' for Inactive)
REMARK    1  A    between atoms: C_2  and  C_3 
REMARK    2  A    between atoms: C_3  and  O_6 
REMARK    3  A    between atoms: C_3  and  C_4 
REMARK    4  A    between atoms: C_7  and  O_6 
REMARK    5  A    between atoms: C_9  and  C_10 
REMARK    6  A    between atoms: N_15  and  C_14 
REMARK    7  A    between atoms: N_20  and  C_19 
REMARK       I    between atoms: C_22  and  N_20 
ROOT
ATOM      1  C   LIG d   1       0.963  91.023 116.748  0.00  0.00     0.161 C 
ATOM      2  C   LIG d   1       2.172  91.631 117.122  0.00  0.00     0.016 C 
ATOM      3  C   LIG d   1       2.296  92.499 118.231  0.00  0.00     0.038 C 
ATOM      4  C   LIG d   1       1.244  92.702 119.135  0.00  0.00     0.028 C 
ATOM      5  C   LIG d   1      -0.135  92.508 118.514  0.00  0.00    -0.047 C 
ATOM      6  C   LIG d   1      -0.171  91.143 117.788  0.00  0.00     0.091 C 
ENDROOT
BRANCH   1   7
ATOM      7  O   LIG d   1       1.193  89.639 116.416  0.00  0.00    -0.368 OA
BRANCH   7   8
ATOM      8  C   LIG d   1       2.579  89.224 116.339  0.00  0.00     0.119 C 
BRANCH   8   9
ATOM      9  C   LIG d   1       2.828  88.706 114.910  0.00  0.00     0.028 C 
ATOM     10  C   LIG d   1       3.956  89.470 114.196  0.00  0.00     0.006 C 
ENDBRANCH   8   9
BRANCH   8  11
ATOM     11  C   LIG d   1       2.856  88.031 117.258  0.00  0.00     0.028 C 
ATOM     12  C   LIG d   1       2.699  86.679 116.542  0.00  0.00     0.006 C 
ENDBRANCH   8  11
ENDBRANCH   7   8
ENDBRANCH   1   7
BRANCH   6  13
ATOM     13  N   LIG d   1      -1.457  90.911 117.080  0.00  0.00    -0.311 N 
ATOM     14  C   LIG d   1      -2.500  90.299 117.638  0.00  0.00     0.210 C 
ATOM     15  C   LIG d   1      -3.722  90.145 116.727  0.00  0.00     0.109 C 
ATOM     16  O   LIG d   1      -2.541  89.898 118.811  0.00  0.00    -0.276 OA
ATOM     17  H   LIG d   1      -1.522  91.233 116.134  0.00  0.00     0.149 HD
ENDBRANCH   6  13
BRANCH   5  18
ATOM     18  N   LIG d   1      -1.131  92.612 119.597  0.00  0.00     0.381 N 
ATOM     19  H   LIG d   1      -1.035  91.837 120.222  0.00  0.00    -0.090 HD
ATOM     20  H   LIG d   1      -2.052  92.582 119.196  0.00  0.00    -0.090 HD
ATOM     21  H   LIG d   1      -1.006  93.466 120.094  0.00  0.00    -0.090 HD
ENDBRANCH   5  18
BRANCH   3  22
ATOM     22  C   LIG d   1       3.473  93.208 118.420  0.00  0.00     0.382 C 
ATOM     23  O   LIG d   1       4.181  93.524 117.433  0.00  0.00    -0.241 OA
ATOM     24  O   LIG d   1       3.858  93.498 119.568  0.00  0.00    -0.241 OA
ENDBRANCH   3  22
TORSDOF 7
ENDMDL
MODEL 3
REMARK VINA RESULT:      -4.6      4.084      8.027
REMARK  7 active torsions:
REMARK  status: ('A' for Active; 'I' for Inactive)
REMARK    1  A    between atoms: C_2  and  C_3 
REMARK    2  A    between atoms: C_3  and  O_6 
REMARK    3  A    between atoms: C_3  and  C_4 
REMARK    4  A    between atoms: C_7  and  O_6 
REMARK    5  A    between atoms: C_9  and  C_10 
REMARK    6  A    between atoms: N_15  and  C_14 
REMARK    7  A    between atoms: N_20  and  C_19 
REMARK       I    between atoms: C_22  and  N_20 
ROOT
ATOM      1  C   LIG d   1      -3.299  92.168 118.938  0.00  0.00     0.161 C 
ATOM      2  C   LIG d   1      -1.949  92.051 119.308  0.00  0.00     0.016 C 
ATOM      3  C   LIG d   1      -1.032  91.202 118.646  0.00  0.00     0.038 C 
ATOM      4  C   LIG d   1      -1.370  90.521 117.467  0.00  0.00     0.028 C 
ATOM      5  C   LIG d   1      -2.859  90.217 117.348  0.00  0.00    -0.047 C 
ATOM      6  C   LIG d   1      -3.658  91.519 117.585  0.00  0.00     0.091 C 
ENDROOT
BRANCH   1   7
ATOM      7  O   LIG d   1      -3.689  93.556 118.946  0.00  0.00    -0.368 OA
BRANCH   7   8
ATOM      8  C   LIG d   1      -4.112  94.092 120.224  0.00  0.00     0.119 C 
BRANCH   8   9
ATOM      9  C   LIG d   1      -5.653  94.110 120.231  0.00  0.00     0.028 C 
ATOM     10  C   LIG d   1      -6.223  95.537 120.177  0.00  0.00     0.006 C 
ENDBRANCH   8   9
BRANCH   8  11
ATOM     11  C   LIG d   1      -3.688  95.555 120.383  0.00  0.00     0.028 C 
ATOM     12  C   LIG d   1      -2.289  95.835 119.812  0.00  0.00     0.006 C 
ENDBRANCH   8  11
ENDBRANCH   7   8
ENDBRANCH   1   7
BRANCH   6  13
ATOM     13  N   LIG d   1      -5.127  91.293 117.570  0.00  0.00    -0.311 N 
ATOM     14  C   LIG d   1      -5.835  91.148 116.451  0.00  0.00     0.210 C 
ATOM     15  C   LIG d   1      -7.339  90.945 116.659  0.00  0.00     0.109 C 
ATOM     16  O   LIG d   1      -5.356  91.136 115.307  0.00  0.00    -0.276 OA
ATOM     17  H   LIG d   1      -5.592  91.258 118.456  0.00  0.00     0.149 HD
ENDBRANCH   6  13
BRANCH   5  18
ATOM     18  N   LIG d   1      -3.089  89.631 116.014  0.00  0.00     0.381 N 
ATOM     19  H   LIG d   1      -2.430  88.898 115.847  0.00  0.00    -0.090 HD
ATOM     20  H   LIG d   1      -2.952  90.344 115.318  0.00  0.00    -0.090 HD
ATOM     21  H   LIG d   1      -4.017  89.273 115.954  0.00  0.00    -0.090 HD
ENDBRANCH   5  18
BRANCH   3  22
ATOM     22  C   LIG d   1       0.227  90.995 119.188  0.00  0.00     0.382 C 
ATOM     23  O   LIG d   1       0.975  90.105 118.716  0.00  0.00    -0.241 OA
ATOM     24  O   LIG d   1       0.608  91.658 120.172  0.00  0.00    -0.241 OA
ENDBRANCH   3  22
TORSDOF 7
ENDMDL
MODEL 4
REMARK VINA RESULT:      -4.6      2.125      5.336
REMARK  7 active torsions:
REMARK  status: ('A' for Active; 'I' for Inactive)
REMARK    1  A    between atoms: C_2  and  C_3 
REMARK    2  A    between atoms: C_3  and  O_6 
REMARK    3  A    between atoms: C_3  and  C_4 
REMARK    4  A    between atoms: C_7  and  O_6 
REMARK    5  A    between atoms: C_9  and  C_10 
REMARK    6  A    between atoms: N_15  and  C_14 
REMARK    7  A    between atoms: N_20  and  C_19 
REMARK       I    between atoms: C_22  and  N_20 
ROOT
ATOM      1  C   LIG d   1       2.078  90.761 117.512  0.00  0.00     0.161 C 
ATOM      2  C   LIG d   1       2.066  90.066 116.291  0.00  0.00     0.016 C 
ATOM      3  C   LIG d   1       3.233  89.560 115.673  0.00  0.00     0.038 C 
ATOM      4  C   LIG d   1       4.481  89.585 116.313  0.00  0.00     0.028 C 
ATOM      5  C   LIG d   1       4.625  90.723 117.317  0.00  0.00    -0.047 C 
ATOM      6  C   LIG d   1       3.415  90.700 118.279  0.00  0.00     0.091 C 
ENDROOT
BRANCH   1   7
ATOM      7  O   LIG d   1       0.999  90.297 118.348  0.00  0.00    -0.368 OA
BRANCH   7   8
ATOM      8  C   LIG d   1      -0.119  91.205 118.508  0.00  0.00     0.119 C 
BRANCH   8   9
ATOM      9  C   LIG d   1      -1.340  90.560 117.824  0.00  0.00     0.028 C 
ATOM     10  C   LIG d   1      -2.456  90.211 118.823  0.00  0.00     0.006 C 
ENDBRANCH   8   9
BRANCH   8  11
ATOM     11  C   LIG d   1       0.119  92.519 117.758  0.00  0.00     0.028 C 
ATOM     12  C   LIG d   1      -0.117  93.758 118.637  0.00  0.00     0.006 C 
ENDBRANCH   8  11
ENDBRANCH   7   8
ENDBRANCH   1   7
BRANCH   6  13
ATOM     13  N   LIG d   1       3.434  91.833 119.241  0.00  0.00    -0.311 N 
ATOM     14  C   LIG d   1       3.583  93.104 118.873  0.00  0.00     0.210 C 
ATOM     15  C   LIG d   1       3.594  94.113 120.026  0.00  0.00     0.109 C 
ATOM     16  O   LIG d   1       3.674  93.495 117.700  0.00  0.00    -0.276 OA
ATOM     17  H   LIG d   1       3.335  91.608 120.211  0.00  0.00     0.149 HD
ENDBRANCH   6  13
BRANCH   5  18
ATOM     18  N   LIG d   1       5.917  90.548 118.008  0.00  0.00     0.381 N 
ATOM     19  H   LIG d   1       6.216  89.596 117.930  0.00  0.00    -0.090 HD
ATOM     20  H   LIG d   1       5.796  90.762 118.982  0.00  0.00    -0.090 HD
ATOM     21  H   LIG d   1       6.601  91.152 117.610  0.00  0.00    -0.090 HD
ENDBRANCH   5  18
BRANCH   3  22
ATOM     22  C   LIG d   1       3.164  89.058 114.382  0.00  0.00     0.382 C 
ATOM     23  O   LIG d   1       3.664  89.706 113.430  0.00  0.00    -0.241 OA
ATOM     24  O   LIG d   1       2.571  87.988 114.151  0.00  0.00    -0.241 OA
ENDBRANCH   3  22
TORSDOF 7
ENDMDL
MODEL 5
REMARK VINA RESULT:      -4.6      2.161      5.150
REMARK  7 active torsions:
REMARK  status: ('A' for Active; 'I' for Inactive)
REMARK    1  A    between atoms: C_2  and  C_3 
REMARK    2  A    between atoms: C_3  and  O_6 
REMARK    3  A    between atoms: C_3  and  C_4 
REMARK    4  A    between atoms: C_7  and  O_6 
REMARK    5  A    between atoms: C_9  and  C_10 
REMARK    6  A    between atoms: N_15  and  C_14 
REMARK    7  A    between atoms: N_20  and  C_19 
REMARK       I    between atoms: C_22  and  N_20 
ROOT
ATOM      1  C   LIG d   1       2.007  90.051 116.544  0.00  0.00     0.161 C 
ATOM      2  C   LIG d   1       1.654  88.896 115.826  0.00  0.00     0.016 C 
ATOM      3  C   LIG d   1       2.602  88.019 115.249  0.00  0.00     0.038 C 
ATOM      4  C   LIG d   1       3.978  88.158 115.481  0.00  0.00     0.028 C 
ATOM      5  C   LIG d   1       4.401  89.593 115.777  0.00  0.00    -0.047 C 
ATOM      6  C   LIG d   1       3.504  90.158 116.902  0.00  0.00     0.091 C 
ENDROOT
BRANCH   1   7
ATOM      7  O   LIG d   1       1.198  90.152 117.733  0.00  0.00    -0.368 OA
BRANCH   7   8
ATOM      8  C   LIG d   1      -0.104  90.765 117.568  0.00  0.00     0.119 C 
BRANCH   8   9
ATOM      9  C   LIG d   1       0.118  92.278 117.374  0.00  0.00     0.028 C 
ATOM     10  C   LIG d   1       0.783  92.935 118.595  0.00  0.00     0.006 C 
ENDBRANCH   8   9
BRANCH   8  11
ATOM     11  C   LIG d   1      -0.945  90.639 118.842  0.00  0.00     0.028 C 
ATOM     12  C   LIG d   1      -2.393  90.208 118.560  0.00  0.00     0.006 C 
ENDBRANCH   8  11
ENDBRANCH   7   8
ENDBRANCH   1   7
BRANCH   6  13
ATOM     13  N   LIG d   1       3.794  91.586 117.196  0.00  0.00    -0.311 N 
ATOM     14  C   LIG d   1       4.664  91.981 118.124  0.00  0.00     0.210 C 
ATOM     15  C   LIG d   1       4.799  93.499 118.280  0.00  0.00     0.109 C 
ATOM     16  O   LIG d   1       5.360  91.218 118.811  0.00  0.00    -0.276 OA
ATOM     17  H   LIG d   1       3.297  92.272 116.663  0.00  0.00     0.149 HD
ENDBRANCH   6  13
BRANCH   5  18
ATOM     18  N   LIG d   1       5.832  89.571 116.135  0.00  0.00     0.381 N 
ATOM     19  H   LIG d   1       5.992  90.162 116.927  0.00  0.00    -0.090 HD
ATOM     20  H   LIG d   1       6.365  89.929 115.362  0.00  0.00    -0.090 HD
ATOM     21  H   LIG d   1       6.117  88.640 116.343  0.00  0.00    -0.090 HD
ENDBRANCH   5  18
BRANCH   3  22
ATOM     22  C   LIG d   1       2.176  87.012 114.396  0.00  0.00     0.382 C 
ATOM     23  O   LIG d   1       3.013  86.235 113.876  0.00  0.00    -0.241 OA
ATOM     24  O   LIG d   1       0.970  86.899 114.104  0.00  0.00    -0.241 OA
ENDBRANCH   3  22
TORSDOF 7
ENDMDL
MODEL 6
REMARK VINA RESULT:      -4.6      2.151      5.766
REMARK  7 active torsions:
REMARK  status: ('A' for Active; 'I' for Inactive)
REMARK    1  A    between atoms: C_2  and  C_3 
REMARK    2  A    between atoms: C_3  and  O_6 
REMARK    3  A    between atoms: C_3  and  C_4 
REMARK    4  A    between atoms: C_7  and  O_6 
REMARK    5  A    between atoms: C_9  and  C_10 
REMARK    6  A    between atoms: N_15  and  C_14 
REMARK    7  A    between atoms: N_20  and  C_19 
REMARK       I    between atoms: C_22  and  N_20 
ROOT
ATOM      1  C   LIG d   1       1.281  91.591 118.279  0.00  0.00     0.161 C 
ATOM      2  C   LIG d   1       1.668  92.643 119.126  0.00  0.00     0.016 C 
ATOM      3  C   LIG d   1       3.006  93.076 119.267  0.00  0.00     0.038 C 
ATOM      4  C   LIG d   1       4.035  92.583 118.451  0.00  0.00     0.028 C 
ATOM      5  C   LIG d   1       3.779  91.169 117.940  0.00  0.00    -0.047 C 
ATOM      6  C   LIG d   1       2.374  91.115 117.298  0.00  0.00     0.091 C 
ENDROOT
BRANCH   1   7
ATOM      7  O   LIG d   1       0.087  91.956 117.559  0.00  0.00    -0.368 OA
BRANCH   7   8
ATOM      8  C   LIG d   1      -1.161  91.806 118.279  0.00  0.00     0.119 C 
BRANCH   8   9
ATOM      9  C   LIG d   1      -1.863  90.548 117.731  0.00  0.00     0.028 C 
ATOM     10  C   LIG d   1      -2.916  89.993 118.705  0.00  0.00     0.006 C 
ENDBRANCH   8   9
BRANCH   8  11
ATOM     11  C   LIG d   1      -2.118  92.965 117.982  0.00  0.00     0.028 C 
ATOM     12  C   LIG d   1      -1.667  94.288 118.620  0.00  0.00     0.006 C 
ENDBRANCH   8  11
ENDBRANCH   7   8
ENDBRANCH   1   7
BRANCH   6  13
ATOM     13  N   LIG d   1       2.009  89.747 116.847  0.00  0.00    -0.311 N 
ATOM     14  C   LIG d   1       2.216  89.303 115.609  0.00  0.00     0.210 C 
ATOM     15  C   LIG d   1       1.747  87.868 115.349  0.00  0.00     0.109 C 
ATOM     16  O   LIG d   1       2.773  89.951 114.709  0.00  0.00    -0.276 OA
ATOM     17  H   LIG d   1       1.580  89.143 117.522  0.00  0.00     0.149 HD
ENDBRANCH   6  13
BRANCH   5  18
ATOM     18  N   LIG d   1       4.860  90.834 116.994  0.00  0.00     0.381 N 
ATOM     19  H   LIG d   1       5.416  91.646 116.814  0.00  0.00    -0.090 HD
ATOM     20  H   LIG d   1       4.452  90.533 116.127  0.00  0.00    -0.090 HD
ATOM     21  H   LIG d   1       5.430  90.109 117.371  0.00  0.00    -0.090 HD
ENDBRANCH   5  18
BRANCH   3  22
ATOM     22  C   LIG d   1       3.333  93.986 120.261  0.00  0.00     0.382 C 
ATOM     23  O   LIG d   1       2.427  94.625 120.848  0.00  0.00    -0.241 OA
ATOM     24  O   LIG d   1       4.524  94.208 120.548  0.00  0.00    -0.241 OA
ENDBRANCH   3  22
TORSDOF 7
ENDMDL
MODEL 7
REMARK VINA RESULT:      -4.3      1.930      5.122
REMARK  7 active torsions:
REMARK  status: ('A' for Active; 'I' for Inactive)
REMARK    1  A    between atoms: C_2  and  C_3 
REMARK    2  A    between atoms: C_3  and  O_6 
REMARK    3  A    between atoms: C_3  and  C_4 
REMARK    4  A    between atoms: C_7  and  O_6 
REMARK    5  A    between atoms: C_9  and  C_10 
REMARK    6  A    between atoms: N_15  and  C_14 
REMARK    7  A    between atoms: N_20  and  C_19 
REMARK       I    between atoms: C_22  and  N_20 
ROOT
ATOM      1  C   LIG d   1       2.603  91.599 117.374  0.00  0.00     0.161 C 
ATOM      2  C   LIG d   1       3.809  92.317 117.439  0.00  0.00     0.016 C 
ATOM      3  C   LIG d   1       4.080  93.295 118.424  0.00  0.00     0.038 C 
ATOM      4  C   LIG d   1       3.217  93.516 119.507  0.00  0.00     0.028 C 
ATOM      5  C   LIG d   1       1.762  93.175 119.202  0.00  0.00    -0.047 C 
ATOM      6  C   LIG d   1       1.694  91.747 118.613  0.00  0.00     0.091 C 
ENDROOT
BRANCH   1   7
ATOM      7  O   LIG d   1       2.875  90.208 117.116  0.00  0.00    -0.368 OA
BRANCH   7   8
ATOM      8  C   LIG d   1       2.618  89.748 115.766  0.00  0.00     0.119 C 
BRANCH   8   9
ATOM      9  C   LIG d   1       1.414  88.788 115.826  0.00  0.00     0.028 C 
ATOM     10  C   LIG d   1       1.694  87.451 115.119  0.00  0.00     0.006 C 
ENDBRANCH   8   9
BRANCH   8  11
ATOM     11  C   LIG d   1       3.781  88.906 115.233  0.00  0.00     0.028 C 
ATOM     12  C   LIG d   1       4.399  89.488 113.952  0.00  0.00     0.006 C 
ENDBRANCH   8  11
ENDBRANCH   7   8
ENDBRANCH   1   7
BRANCH   6  13
ATOM     13  N   LIG d   1       0.316  91.366 118.208  0.00  0.00    -0.311 N 
ATOM     14  C   LIG d   1      -0.514  90.678 118.990  0.00  0.00     0.210 C 
ATOM     15  C   LIG d   1      -1.882  90.373 118.371  0.00  0.00     0.109 C 
ATOM     16  O   LIG d   1      -0.259  90.320 120.149  0.00  0.00    -0.276 OA
ATOM     17  H   LIG d   1       0.016  91.644 117.294  0.00  0.00     0.149 HD
ENDBRANCH   6  13
BRANCH   5  18
ATOM     18  N   LIG d   1       0.998  93.320 120.455  0.00  0.00     0.381 N 
ATOM     19  H   LIG d   1       1.569  93.755 121.152  0.00  0.00    -0.090 HD
ATOM     20  H   LIG d   1       0.738  92.407 120.785  0.00  0.00    -0.090 HD
ATOM     21  H   LIG d   1       0.181  93.868 120.295  0.00  0.00    -0.090 HD
ENDBRANCH   5  18
BRANCH   3  22
ATOM     22  C   LIG d   1       5.208  94.093 118.307  0.00  0.00     0.382 C 
ATOM     23  O   LIG d   1       5.304  94.909 117.359  0.00  0.00    -0.241 OA
ATOM     24  O   LIG d   1       6.151  93.975 119.113  0.00  0.00    -0.241 OA
ENDBRANCH   3  22
TORSDOF 7
ENDMDL
MODEL 8
REMARK VINA RESULT:      -4.2      3.454      5.856
REMARK  7 active torsions:
REMARK  status: ('A' for Active; 'I' for Inactive)
REMARK    1  A    between atoms: C_2  and  C_3 
REMARK    2  A    between atoms: C_3  and  O_6 
REMARK    3  A    between atoms: C_3  and  C_4 
REMARK    4  A    between atoms: C_7  and  O_6 
REMARK    5  A    between atoms: C_9  and  C_10 
REMARK    6  A    between atoms: N_15  and  C_14 
REMARK    7  A    between atoms: N_20  and  C_19 
REMARK       I    between atoms: C_22  and  N_20 
ROOT
ATOM      1  C   LIG d   1      -1.143  93.524 118.450  0.00  0.00     0.161 C 
ATOM      2  C   LIG d   1      -1.114  94.749 119.137  0.00  0.00     0.016 C 
ATOM      3  C   LIG d   1      -2.236  95.295 119.801  0.00  0.00     0.038 C 
ATOM      4  C   LIG d   1      -3.431  94.577 119.951  0.00  0.00     0.028 C 
ATOM      5  C   LIG d   1      -3.667  93.556 118.843  0.00  0.00    -0.047 C 
ATOM      6  C   LIG d   1      -2.407  92.673 118.697  0.00  0.00     0.091 C 
ENDROOT
BRANCH   1   7
ATOM      7  O   LIG d   1       0.041  92.762 118.758  0.00  0.00    -0.368 OA
BRANCH   7   8
ATOM      8  C   LIG d   1       1.100  92.802 117.769  0.00  0.00     0.119 C 
BRANCH   8   9
ATOM      9  C   LIG d   1       1.012  91.502 116.946  0.00  0.00     0.028 C 
ATOM     10  C   LIG d   1       0.988  90.246 117.833  0.00  0.00     0.006 C 
ENDBRANCH   8   9
BRANCH   8  11
ATOM     11  C   LIG d   1       2.481  92.772 118.429  0.00  0.00     0.028 C 
ATOM     12  C   LIG d   1       2.469  93.328 119.862  0.00  0.00     0.006 C 
ENDBRANCH   8  11
ENDBRANCH   7   8
ENDBRANCH   1   7
BRANCH   6  13
ATOM     13  N   LIG d   1      -2.521  91.702 117.578  0.00  0.00    -0.311 N 
ATOM     14  C   LIG d   1      -2.974  90.459 117.729  0.00  0.00     0.210 C 
ATOM     15  C   LIG d   1      -2.992  89.617 116.450  0.00  0.00     0.109 C 
ATOM     16  O   LIG d   1      -3.394  89.984 118.796  0.00  0.00    -0.276 OA
ATOM     17  H   LIG d   1      -2.232  92.014 116.671  0.00  0.00     0.149 HD
ENDBRANCH   6  13
BRANCH   5  18
ATOM     18  N   LIG d   1      -4.874  92.785 119.197  0.00  0.00     0.381 N 
ATOM     19  H   LIG d   1      -4.630  92.038 119.817  0.00  0.00    -0.090 HD
ATOM     20  H   LIG d   1      -5.263  92.386 118.360  0.00  0.00    -0.090 HD
ATOM     21  H   LIG d   1      -5.544  93.381 119.631  0.00  0.00    -0.090 HD
ENDBRANCH   5  18
BRANCH   3  22
ATOM     22  C   LIG d   1      -2.182  96.592 120.288  0.00  0.00     0.382 C 
ATOM     23  O   LIG d   1      -1.175  96.979 120.930  0.00  0.00    -0.241 OA
ATOM     24  O   LIG d   1      -3.145  97.366 120.134  0.00  0.00    -0.241 OA
ENDBRANCH   3  22
TORSDOF 7
ENDMDL
MODEL 9
REMARK VINA RESULT:      -4.2      2.406      4.486
REMARK  7 active torsions:
REMARK  status: ('A' for Active; 'I' for Inactive)
REMARK    1  A    between atoms: C_2  and  C_3 
REMARK    2  A    between atoms: C_3  and  O_6 
REMARK    3  A    between atoms: C_3  and  C_4 
REMARK    4  A    between atoms: C_7  and  O_6 
REMARK    5  A    between atoms: C_9  and  C_10 
REMARK    6  A    between atoms: N_15  and  C_14 
REMARK    7  A    between atoms: N_20  and  C_19 
REMARK       I    between atoms: C_22  and  N_20 
ROOT
ATOM      1  C   LIG d   1       2.568  91.964 117.661  0.00  0.00     0.161 C 
ATOM      2  C   LIG d   1       1.896  92.952 118.401  0.00  0.00     0.016 C 
ATOM      3  C   LIG d   1       0.488  93.044 118.477  0.00  0.00     0.038 C 
ATOM      4  C   LIG d   1      -0.350  92.058 117.937  0.00  0.00     0.028 C 
ATOM      5  C   LIG d   1       0.267  91.320 116.754  0.00  0.00    -0.047 C 
ATOM      6  C   LIG d   1       1.672  90.814 117.156  0.00  0.00     0.091 C 
ENDROOT
BRANCH   1   7
ATOM      7  O   LIG d   1       3.669  91.441 118.430  0.00  0.00    -0.368 OA
BRANCH   7   8
ATOM      8  C   LIG d   1       4.995  91.791 117.964  0.00  0.00     0.119 C 
BRANCH   8   9
ATOM      9  C   LIG d   1       5.935  90.624 118.323  0.00  0.00     0.028 C 
ATOM     10  C   LIG d   1       6.183  89.682 117.133  0.00  0.00     0.006 C 
ENDBRANCH   8   9
BRANCH   8  11
ATOM     11  C   LIG d   1       5.549  93.004 118.717  0.00  0.00     0.028 C 
ATOM     12  C   LIG d   1       5.790  92.720 120.208  0.00  0.00     0.006 C 
ENDBRANCH   8  11
ENDBRANCH   7   8
ENDBRANCH   1   7
BRANCH   6  13
ATOM     13  N   LIG d   1       2.380  90.153 116.029  0.00  0.00    -0.311 N 
ATOM     14  C   LIG d   1       2.749  88.874 116.044  0.00  0.00     0.210 C 
ATOM     15  C   LIG d   1       3.486  88.398 114.788  0.00  0.00     0.109 C 
ATOM     16  O   LIG d   1       2.508  88.079 116.966  0.00  0.00    -0.276 OA
ATOM     17  H   LIG d   1       2.588  90.717 115.228  0.00  0.00     0.149 HD
ENDBRANCH   6  13
BRANCH   5  18
ATOM     18  N   LIG d   1      -0.654  90.231 116.378  0.00  0.00     0.381 N 
ATOM     19  H   LIG d   1      -0.272  89.351 116.664  0.00  0.00    -0.090 HD
ATOM     20  H   LIG d   1      -0.755  90.221 115.378  0.00  0.00    -0.090 HD
ATOM     21  H   LIG d   1      -1.542  90.371 116.807  0.00  0.00    -0.090 HD
ENDBRANCH   5  18
BRANCH   3  22
ATOM     22  C   LIG d   1      -0.097  94.155 119.066  0.00  0.00     0.382 C 
ATOM     23  O   LIG d   1       0.184  94.459 120.250  0.00  0.00    -0.241 OA
ATOM     24  O   LIG d   1      -0.937  94.832 118.442  0.00  0.00    -0.241 OA
ENDBRANCH   3  22
TORSDOF 7
ENDMDL
