MODEL 1
REMARK VINA RESULT:      -4.7      0.000      0.000
REMARK  7 active torsions:
REMARK  status: ('A' for Active; 'I' for Inactive)
REMARK    1  A    between atoms: C_2  and  C_3 
REMARK    2  A    between atoms: C_3  and  O_6 
REMARK    3  A    between atoms: C_3  and  C_4 
REMARK    4  A    between atoms: C_7  and  O_6 
REMARK    5  A    between atoms: C_9  and  C_10 
REMARK    6  A    between atoms: N_15  and  C_14 
REMARK    7  A    between atoms: N_20  and  C_19 
REMARK       I    between atoms: C_22  and  N_20 
ROOT
ATOM      1  C   LIG d   1       1.374  88.770 116.222  0.00  0.00     0.161 C 
ATOM      2  C   LIG d   1       0.054  88.908 116.682  0.00  0.00     0.016 C 
ATOM      3  C   LIG d   1      -0.428  90.070 117.328  0.00  0.00     0.038 C 
ATOM      4  C   LIG d   1       0.342  91.239 117.422  0.00  0.00     0.028 C 
ATOM      5  C   LIG d   1       1.844  90.976 117.423  0.00  0.00    -0.047 C 
ATOM      6  C   LIG d   1       2.197  90.076 116.216  0.00  0.00     0.091 C 
ENDROOT
BRANCH   1   7
ATOM      7  O   LIG d   1       1.374  88.173 114.910  0.00  0.00    -0.368 OA
BRANCH   7   8
ATOM      8  C   LIG d   1       1.638  86.749 114.858  0.00  0.00     0.119 C 
BRANCH   8   9
ATOM      9  C   LIG d   1       2.925  86.546 114.035  0.00  0.00     0.028 C 
ATOM     10  C   LIG d   1       4.101  86.057 114.897  0.00  0.00     0.006 C 
ENDBRANCH   8   9
BRANCH   8  11
ATOM     11  C   LIG d   1       0.543  86.007 114.086  0.00  0.00     0.028 C 
ATOM     12  C   LIG d   1      -0.695  85.709 114.948  0.00  0.00     0.006 C 
ENDBRANCH   8  11
ENDBRANCH   7   8
ENDBRANCH   1   7
BRANCH   6  13
ATOM     13  N   LIG d   1       3.635  89.702 116.190  0.00  0.00    -0.311 N 
ATOM     14  C   LIG d   1       4.409  89.843 115.115  0.00  0.00     0.210 C 
ATOM     15  C   LIG d   1       5.857  89.377 115.296  0.00  0.00     0.109 C 
ATOM     16  O   LIG d   1       4.043  90.341 114.040  0.00  0.00    -0.276 OA
ATOM     17  H   LIG d   1       4.022  89.319 117.030  0.00  0.00     0.149 HD
ENDBRANCH   6  13
BRANCH   5  18
ATOM     18  N   LIG d   1       2.525  92.284 117.386  0.00  0.00     0.381 N 
ATOM     19  H   LIG d   1       3.366  92.214 116.848  0.00  0.00    -0.090 HD
ATOM     20  H   LIG d   1       2.772  92.549 118.324  0.00  0.00    -0.090 HD
ATOM     21  H   LIG d   1       1.924  92.971 116.987  0.00  0.00    -0.090 HD
ENDBRANCH   5  18
BRANCH   3  22
ATOM     22  C   LIG d   1      -1.680  90.056 117.923  0.00  0.00     0.382 C 
ATOM     23  O   LIG d   1      -2.695  89.773 117.241  0.00  0.00    -0.241 OA
ATOM     24  O   LIG d   1      -1.813  90.366 119.122  0.00  0.00    -0.241 OA
ENDBRANCH   3  22
TORSDOF 7
ENDMDL
MODEL 2
REMARK VINA RESULT:      -4.5      1.625      2.054
REMARK  7 active torsions:
REMARK  status: ('A' for Active; 'I' for Inactive)
REMARK    1  A    between atoms: C_2  and  C_3 
REMARK    2  A    between atoms: C_3  and  O_6 
REMARK    3  A    between atoms: C_3  and  C_4 
REMARK    4  A    between atoms: C_7  and  O_6 
REMARK    5  A    between atoms: C_9  and  C_10 
REMARK    6  A    between atoms: N_15  and  C_14 
REMARK    7  A    between atoms: N_20  and  C_19 
REMARK       I    between atoms: C_22  and  N_20 
ROOT
ATOM      1  C   LIG d   1       0.809  89.387 116.921  0.00  0.00     0.161 C 
ATOM      2  C   LIG d   1      -0.589  89.265 116.985  0.00  0.00     0.016 C 
ATOM      3  C   LIG d   1      -1.432  90.252 117.546  0.00  0.00     0.038 C 
ATOM      4  C   LIG d   1      -0.943  91.504 117.946  0.00  0.00     0.028 C 
ATOM      5  C   LIG d   1       0.523  91.476 118.365  0.00  0.00    -0.047 C 
ATOM      6  C   LIG d   1       1.351  90.794 117.251  0.00  0.00     0.091 C 
ENDROOT
BRANCH   1   7
ATOM      7  O   LIG d   1       1.278  88.961 115.626  0.00  0.00    -0.368 OA
BRANCH   7   8
ATOM      8  C   LIG d   1       2.042  87.731 115.599  0.00  0.00     0.119 C 
BRANCH   8   9
ATOM      9  C   LIG d   1       3.480  88.088 115.177  0.00  0.00     0.028 C 
ATOM     10  C   LIG d   1       3.536  89.337 114.281  0.00  0.00     0.006 C 
ENDBRANCH   8   9
BRANCH   8  11
ATOM     11  C   LIG d   1       1.527  86.779 114.515  0.00  0.00     0.028 C 
ATOM     12  C   LIG d   1       0.157  86.171 114.858  0.00  0.00     0.006 C 
ENDBRANCH   8  11
ENDBRANCH   7   8
ENDBRANCH   1   7
BRANCH   6  13
ATOM     13  N   LIG d   1       2.784  90.649 117.618  0.00  0.00    -0.311 N 
ATOM     14  C   LIG d   1       3.705  91.574 117.351  0.00  0.00     0.210 C 
ATOM     15  C   LIG d   1       5.127  91.216 117.797  0.00  0.00     0.109 C 
ATOM     16  O   LIG d   1       3.475  92.669 116.818  0.00  0.00    -0.276 OA
ATOM     17  H   LIG d   1       3.053  89.804 118.082  0.00  0.00     0.149 HD
ENDBRANCH   6  13
BRANCH   5  18
ATOM     18  N   LIG d   1       0.940  92.867 118.624  0.00  0.00     0.381 N 
ATOM     19  H   LIG d   1       1.913  92.974 118.419  0.00  0.00    -0.090 HD
ATOM     20  H   LIG d   1       0.798  93.073 119.598  0.00  0.00    -0.090 HD
ATOM     21  H   LIG d   1       0.404  93.494 118.064  0.00  0.00    -0.090 HD
ENDBRANCH   5  18
BRANCH   3  22
ATOM     22  C   LIG d   1      -2.775  89.975 117.747  0.00  0.00     0.382 C 
ATOM     23  O   LIG d   1      -3.274  90.088 118.893  0.00  0.00    -0.241 OA
ATOM     24  O   LIG d   1      -3.485  89.570 116.807  0.00  0.00    -0.241 OA
ENDBRANCH   3  22
TORSDOF 7
ENDMDL
MODEL 3
REMARK VINA RESULT:      -4.3      6.208      8.926
REMARK  7 active torsions:
REMARK  status: ('A' for Active; 'I' for Inactive)
REMARK    1  A    between atoms: C_2  and  C_3 
REMARK    2  A    between atoms: C_3  and  O_6 
REMARK    3  A    between atoms: C_3  and  C_4 
REMARK    4  A    between atoms: C_7  and  O_6 
REMARK    5  A    between atoms: C_9  and  C_10 
REMARK    6  A    between atoms: N_15  and  C_14 
REMARK    7  A    between atoms: N_20  and  C_19 
REMARK       I    between atoms: C_22  and  N_20 
ROOT
ATOM      1  C   LIG d   1      -5.043  92.140 118.971  0.00  0.00     0.161 C 
ATOM      2  C   LIG d   1      -6.037  91.779 118.046  0.00  0.00     0.016 C 
ATOM      3  C   LIG d   1      -5.807  90.903 116.960  0.00  0.00     0.038 C 
ATOM      4  C   LIG d   1      -4.599  90.207 116.811  0.00  0.00     0.028 C 
ATOM      5  C   LIG d   1      -3.405  90.926 117.431  0.00  0.00    -0.047 C 
ATOM      6  C   LIG d   1      -3.749  91.304 118.890  0.00  0.00     0.091 C 
ENDROOT
BRANCH   1   7
ATOM      7  O   LIG d   1      -5.582  92.101 120.307  0.00  0.00    -0.368 OA
BRANCH   7   8
ATOM      8  C   LIG d   1      -5.846  93.384 120.926  0.00  0.00     0.119 C 
BRANCH   8   9
ATOM      9  C   LIG d   1      -7.353  93.668 120.779  0.00  0.00     0.028 C 
ATOM     10  C   LIG d   1      -7.634  94.983 120.034  0.00  0.00     0.006 C 
ENDBRANCH   8   9
BRANCH   8  11
ATOM     11  C   LIG d   1      -5.145  94.520 120.174  0.00  0.00     0.028 C 
ATOM     12  C   LIG d   1      -3.922  95.067 120.928  0.00  0.00     0.006 C 
ENDBRANCH   8  11
ENDBRANCH   7   8
ENDBRANCH   1   7
BRANCH   6  13
ATOM     13  N   LIG d   1      -2.667  92.086 119.543  0.00  0.00    -0.311 N 
ATOM     14  C   LIG d   1      -1.720  91.535 120.301  0.00  0.00     0.210 C 
ATOM     15  C   LIG d   1      -0.712  92.524 120.896  0.00  0.00     0.109 C 
ATOM     16  O   LIG d   1      -1.601  90.319 120.512  0.00  0.00    -0.276 OA
ATOM     17  H   LIG d   1      -2.669  93.077 119.399  0.00  0.00     0.149 HD
ENDBRANCH   6  13
BRANCH   5  18
ATOM     18  N   LIG d   1      -2.240  90.028 117.325  0.00  0.00     0.381 N 
ATOM     19  H   LIG d   1      -1.414  90.564 117.149  0.00  0.00    -0.090 HD
ATOM     20  H   LIG d   1      -2.381  89.402 116.552  0.00  0.00    -0.090 HD
ATOM     21  H   LIG d   1      -2.133  89.508 118.168  0.00  0.00    -0.090 HD
ENDBRANCH   5  18
BRANCH   3  22
ATOM     22  C   LIG d   1      -6.781  90.748 115.985  0.00  0.00     0.382 C 
ATOM     23  O   LIG d   1      -7.121  89.598 115.616  0.00  0.00    -0.241 OA
ATOM     24  O   LIG d   1      -7.292  91.744 115.438  0.00  0.00    -0.241 OA
ENDBRANCH   3  22
TORSDOF 7
ENDMDL
MODEL 4
REMARK VINA RESULT:      -4.3      2.214      5.788
REMARK  7 active torsions:
REMARK  status: ('A' for Active; 'I' for Inactive)
REMARK    1  A    between atoms: C_2  and  C_3 
REMARK    2  A    between atoms: C_3  and  O_6 
REMARK    3  A    between atoms: C_3  and  C_4 
REMARK    4  A    between atoms: C_7  and  O_6 
REMARK    5  A    between atoms: C_9  and  C_10 
REMARK    6  A    between atoms: N_15  and  C_14 
REMARK    7  A    between atoms: N_20  and  C_19 
REMARK       I    between atoms: C_22  and  N_20 
ROOT
ATOM      1  C   LIG d   1      -0.081  90.547 117.173  0.00  0.00     0.161 C 
ATOM      2  C   LIG d   1       0.588  89.627 116.348  0.00  0.00     0.016 C 
ATOM      3  C   LIG d   1       1.987  89.636 116.148  0.00  0.00     0.038 C 
ATOM      4  C   LIG d   1       2.836  90.477 116.882  0.00  0.00     0.028 C 
ATOM      5  C   LIG d   1       2.160  91.762 117.349  0.00  0.00    -0.047 C 
ATOM      6  C   LIG d   1       0.840  91.402 118.069  0.00  0.00     0.091 C 
ENDROOT
BRANCH   1   7
ATOM      7  O   LIG d   1      -1.063  89.861 117.974  0.00  0.00    -0.368 OA
BRANCH   7   8
ATOM      8  C   LIG d   1      -2.408  90.401 117.934  0.00  0.00     0.119 C 
BRANCH   8   9
ATOM      9  C   LIG d   1      -3.089  90.044 119.270  0.00  0.00     0.028 C 
ATOM     10  C   LIG d   1      -2.286  90.533 120.487  0.00  0.00     0.006 C 
ENDBRANCH   8   9
BRANCH   8  11
ATOM     11  C   LIG d   1      -3.251  89.717 116.854  0.00  0.00     0.028 C 
ATOM     12  C   LIG d   1      -4.569  90.455 116.571  0.00  0.00     0.006 C 
ENDBRANCH   8  11
ENDBRANCH   7   8
ENDBRANCH   1   7
BRANCH   6  13
ATOM     13  N   LIG d   1       0.074  92.606 118.483  0.00  0.00    -0.311 N 
ATOM     14  C   LIG d   1       0.154  93.142 119.700  0.00  0.00     0.210 C 
ATOM     15  C   LIG d   1      -0.735  94.369 119.925  0.00  0.00     0.109 C 
ATOM     16  O   LIG d   1       0.901  92.739 120.603  0.00  0.00    -0.276 OA
ATOM     17  H   LIG d   1      -0.534  93.017 117.802  0.00  0.00     0.149 HD
ENDBRANCH   6  13
BRANCH   5  18
ATOM     18  N   LIG d   1       3.114  92.478 118.217  0.00  0.00     0.381 N 
ATOM     19  H   LIG d   1       3.923  92.739 117.688  0.00  0.00    -0.090 HD
ATOM     20  H   LIG d   1       3.406  91.863 118.956  0.00  0.00    -0.090 HD
ATOM     21  H   LIG d   1       2.683  93.290 118.601  0.00  0.00    -0.090 HD
ENDBRANCH   5  18
BRANCH   3  22
ATOM     22  C   LIG d   1       2.547  88.823 115.174  0.00  0.00     0.382 C 
ATOM     23  O   LIG d   1       2.760  87.611 115.416  0.00  0.00    -0.241 OA
ATOM     24  O   LIG d   1       2.883  89.297 114.072  0.00  0.00    -0.241 OA
ENDBRANCH   3  22
TORSDOF 7
ENDMDL
MODEL 5
REMARK VINA RESULT:      -4.2      2.564      4.451
REMARK  7 active torsions:
REMARK  status: ('A' for Active; 'I' for Inactive)
REMARK    1  A    between atoms: C_2  and  C_3 
REMARK    2  A    between atoms: C_3  and  O_6 
REMARK    3  A    between atoms: C_3  and  C_4 
REMARK    4  A    between atoms: C_7  and  O_6 
REMARK    5  A    between atoms: C_9  and  C_10 
REMARK    6  A    between atoms: N_15  and  C_14 
REMARK    7  A    between atoms: N_20  and  C_19 
REMARK       I    between atoms: C_22  and  N_20 
ROOT
ATOM      1  C   LIG d   1       2.938  89.034 115.954  0.00  0.00     0.161 C 
ATOM      2  C   LIG d   1       3.344  90.226 116.577  0.00  0.00     0.016 C 
ATOM      3  C   LIG d   1       2.442  91.154 117.145  0.00  0.00     0.038 C 
ATOM      4  C   LIG d   1       1.072  90.878 117.265  0.00  0.00     0.028 C 
ATOM      5  C   LIG d   1       0.552  89.917 116.201  0.00  0.00    -0.047 C 
ATOM      6  C   LIG d   1       1.456  88.663 116.174  0.00  0.00     0.091 C 
ENDROOT
BRANCH   1   7
ATOM      7  O   LIG d   1       3.793  87.950 116.369  0.00  0.00    -0.368 OA
BRANCH   7   8
ATOM      8  C   LIG d   1       4.776  87.508 115.402  0.00  0.00     0.119 C 
BRANCH   8   9
ATOM      9  C   LIG d   1       6.139  88.088 115.829  0.00  0.00     0.028 C 
ATOM     10  C   LIG d   1       7.069  87.021 116.429  0.00  0.00     0.006 C 
ENDBRANCH   8   9
BRANCH   8  11
ATOM     11  C   LIG d   1       4.500  88.100 114.016  0.00  0.00     0.028 C 
ATOM     12  C   LIG d   1       5.715  88.837 113.430  0.00  0.00     0.006 C 
ENDBRANCH   8  11
ENDBRANCH   7   8
ENDBRANCH   1   7
BRANCH   6  13
ATOM     13  N   LIG d   1       1.068  87.708 115.103  0.00  0.00    -0.311 N 
ATOM     14  C   LIG d   1       0.700  86.450 115.341  0.00  0.00     0.210 C 
ATOM     15  C   LIG d   1       0.359  85.630 114.093  0.00  0.00     0.109 C 
ATOM     16  O   LIG d   1       0.591  85.946 116.469  0.00  0.00    -0.276 OA
ATOM     17  H   LIG d   1       1.098  88.043 114.160  0.00  0.00     0.149 HD
ENDBRANCH   6  13
BRANCH   5  18
ATOM     18  N   LIG d   1      -0.853  89.609 116.527  0.00  0.00     0.381 N 
ATOM     19  H   LIG d   1      -1.280  89.127 115.761  0.00  0.00    -0.090 HD
ATOM     20  H   LIG d   1      -1.349  90.471 116.672  0.00  0.00    -0.090 HD
ATOM     21  H   LIG d   1      -0.898  89.048 117.349  0.00  0.00    -0.090 HD
ENDBRANCH   5  18
BRANCH   3  22
ATOM     22  C   LIG d   1       2.904  92.392 117.566  0.00  0.00     0.382 C 
ATOM     23  O   LIG d   1       3.961  92.864 117.083  0.00  0.00    -0.241 OA
ATOM     24  O   LIG d   1       2.300  93.023 118.455  0.00  0.00    -0.241 OA
ENDBRANCH   3  22
TORSDOF 7
ENDMDL
MODEL 6
REMARK VINA RESULT:      -4.2      2.488      3.773
REMARK  7 active torsions:
REMARK  status: ('A' for Active; 'I' for Inactive)
REMARK    1  A    between atoms: C_2  and  C_3 
REMARK    2  A    between atoms: C_3  and  O_6 
REMARK    3  A    between atoms: C_3  and  C_4 
REMARK    4  A    between atoms: C_7  and  O_6 
REMARK    5  A    between atoms: C_9  and  C_10 
REMARK    6  A    between atoms: N_15  and  C_14 
REMARK    7  A    between atoms: N_20  and  C_19 
REMARK       I    between atoms: C_22  and  N_20 
ROOT
ATOM      1  C   LIG d   1       0.308  90.689 119.055  0.00  0.00     0.161 C 
ATOM      2  C   LIG d   1      -1.036  90.301 118.923  0.00  0.00     0.016 C 
ATOM      3  C   LIG d   1      -2.081  91.205 118.623  0.00  0.00     0.038 C 
ATOM      4  C   LIG d   1      -1.829  92.543 118.282  0.00  0.00     0.028 C 
ATOM      5  C   LIG d   1      -0.546  93.093 118.895  0.00  0.00    -0.047 C 
ATOM      6  C   LIG d   1       0.617  92.124 118.578  0.00  0.00     0.091 C 
ENDROOT
BRANCH   1   7
ATOM      7  O   LIG d   1       1.158  89.743 118.379  0.00  0.00    -0.368 OA
BRANCH   7   8
ATOM      8  C   LIG d   1       0.674  89.245 117.107  0.00  0.00     0.119 C 
BRANCH   8   9
ATOM      9  C   LIG d   1       1.103  87.769 116.993  0.00  0.00     0.028 C 
ATOM     10  C   LIG d   1       0.326  87.015 115.901  0.00  0.00     0.006 C 
ENDBRANCH   8   9
BRANCH   8  11
ATOM     11  C   LIG d   1       1.355  89.957 115.934  0.00  0.00     0.028 C 
ATOM     12  C   LIG d   1       2.858  89.649 115.842  0.00  0.00     0.006 C 
ENDBRANCH   8  11
ENDBRANCH   7   8
ENDBRANCH   1   7
BRANCH   6  13
ATOM     13  N   LIG d   1       1.893  92.544 119.212  0.00  0.00    -0.311 N 
ATOM     14  C   LIG d   1       3.010  92.780 118.526  0.00  0.00     0.210 C 
ATOM     15  C   LIG d   1       4.219  93.183 119.377  0.00  0.00     0.109 C 
ATOM     16  O   LIG d   1       3.106  92.726 117.291  0.00  0.00    -0.276 OA
ATOM     17  H   LIG d   1       1.897  92.643 120.209  0.00  0.00     0.149 HD
ENDBRANCH   6  13
BRANCH   5  18
ATOM     18  N   LIG d   1      -0.336  94.446 118.348  0.00  0.00     0.381 N 
ATOM     19  H   LIG d   1      -0.670  95.130 118.999  0.00  0.00    -0.090 HD
ATOM     20  H   LIG d   1      -0.861  94.538 117.497  0.00  0.00    -0.090 HD
ATOM     21  H   LIG d   1       0.633  94.595 118.168  0.00  0.00    -0.090 HD
ENDBRANCH   5  18
BRANCH   3  22
ATOM     22  C   LIG d   1      -3.399  90.782 118.700  0.00  0.00     0.382 C 
ATOM     23  O   LIG d   1      -3.706  89.619 118.343  0.00  0.00    -0.241 OA
ATOM     24  O   LIG d   1      -4.292  91.562 119.080  0.00  0.00    -0.241 OA
ENDBRANCH   3  22
TORSDOF 7
ENDMDL
MODEL 7
REMARK VINA RESULT:      -4.1      2.415      4.181
REMARK  7 active torsions:
REMARK  status: ('A' for Active; 'I' for Inactive)
REMARK    1  A    between atoms: C_2  and  C_3 
REMARK    2  A    between atoms: C_3  and  O_6 
REMARK    3  A    between atoms: C_3  and  C_4 
REMARK    4  A    between atoms: C_7  and  O_6 
REMARK    5  A    between atoms: C_9  and  C_10 
REMARK    6  A    between atoms: N_15  and  C_14 
REMARK    7  A    between atoms: N_20  and  C_19 
REMARK       I    between atoms: C_22  and  N_20 
ROOT
ATOM      1  C   LIG d   1       3.183  89.461 117.295  0.00  0.00     0.161 C 
ATOM      2  C   LIG d   1       2.682  88.340 116.613  0.00  0.00     0.016 C 
ATOM      3  C   LIG d   1       1.351  88.243 116.146  0.00  0.00     0.038 C 
ATOM      4  C   LIG d   1       0.467  89.331 116.196  0.00  0.00     0.028 C 
ATOM      5  C   LIG d   1       0.772  90.308 117.327  0.00  0.00    -0.047 C 
ATOM      6  C   LIG d   1       2.265  90.701 117.261  0.00  0.00     0.091 C 
ENDROOT
BRANCH   1   7
ATOM      7  O   LIG d   1       4.493  89.793 116.795  0.00  0.00    -0.368 OA
BRANCH   7   8
ATOM      8  C   LIG d   1       5.059  88.871 115.831  0.00  0.00     0.119 C 
BRANCH   8   9
ATOM      9  C   LIG d   1       6.366  88.319 116.432  0.00  0.00     0.028 C 
ATOM     10  C   LIG d   1       6.467  86.789 116.311  0.00  0.00     0.006 C 
ENDBRANCH   8   9
BRANCH   8  11
ATOM     11  C   LIG d   1       5.477  89.593 114.547  0.00  0.00     0.028 C 
ATOM     12  C   LIG d   1       4.359  89.629 113.493  0.00  0.00     0.006 C 
ENDBRANCH   8  11
ENDBRANCH   7   8
ENDBRANCH   1   7
BRANCH   6  13
ATOM     13  N   LIG d   1       2.667  91.589 118.383  0.00  0.00    -0.311 N 
ATOM     14  C   LIG d   1       3.409  92.683 118.223  0.00  0.00     0.210 C 
ATOM     15  C   LIG d   1       3.726  93.445 119.513  0.00  0.00     0.109 C 
ATOM     16  O   LIG d   1       3.808  93.113 117.130  0.00  0.00    -0.276 OA
ATOM     17  H   LIG d   1       2.361  91.332 119.301  0.00  0.00     0.149 HD
ENDBRANCH   6  13
BRANCH   5  18
ATOM     18  N   LIG d   1      -0.137  91.460 117.178  0.00  0.00     0.381 N 
ATOM     19  H   LIG d   1      -0.596  91.644 118.047  0.00  0.00    -0.090 HD
ATOM     20  H   LIG d   1      -0.837  91.236 116.492  0.00  0.00    -0.090 HD
ATOM     21  H   LIG d   1       0.376  92.264 116.888  0.00  0.00    -0.090 HD
ENDBRANCH   5  18
BRANCH   3  22
ATOM     22  C   LIG d   1       0.881  87.034 115.656  0.00  0.00     0.382 C 
ATOM     23  O   LIG d   1       0.631  86.092 116.446  0.00  0.00    -0.241 OA
ATOM     24  O   LIG d   1       0.744  86.859 114.430  0.00  0.00    -0.241 OA
ENDBRANCH   3  22
TORSDOF 7
ENDMDL
MODEL 8
REMARK VINA RESULT:      -4.0      2.508      5.726
REMARK  7 active torsions:
REMARK  status: ('A' for Active; 'I' for Inactive)
REMARK    1  A    between atoms: C_2  and  C_3 
REMARK    2  A    between atoms: C_3  and  O_6 
REMARK    3  A    between atoms: C_3  and  C_4 
REMARK    4  A    between atoms: C_7  and  O_6 
REMARK    5  A    between atoms: C_9  and  C_10 
REMARK    6  A    between atoms: N_15  and  C_14 
REMARK    7  A    between atoms: N_20  and  C_19 
REMARK       I    between atoms: C_22  and  N_20 
ROOT
ATOM      1  C   LIG d   1       2.508  90.953 116.966  0.00  0.00     0.161 C 
ATOM      2  C   LIG d   1       3.693  90.383 116.470  0.00  0.00     0.016 C 
ATOM      3  C   LIG d   1       4.983  90.856 116.805  0.00  0.00     0.038 C 
ATOM      4  C   LIG d   1       5.180  91.841 117.784  0.00  0.00     0.028 C 
ATOM      5  C   LIG d   1       3.996  92.789 117.937  0.00  0.00    -0.047 C 
ATOM      6  C   LIG d   1       2.707  91.956 118.121  0.00  0.00     0.091 C 
ENDROOT
BRANCH   1   7
ATOM      7  O   LIG d   1       1.593  89.911 117.359  0.00  0.00    -0.368 OA
BRANCH   7   8
ATOM      8  C   LIG d   1       0.601  89.529 116.374  0.00  0.00     0.119 C 
BRANCH   8   9
ATOM      9  C   LIG d   1      -0.788  89.788 116.991  0.00  0.00     0.028 C 
ATOM     10  C   LIG d   1      -0.719  90.032 118.508  0.00  0.00     0.006 C 
ENDBRANCH   8   9
BRANCH   8  11
ATOM     11  C   LIG d   1       0.646  88.025 116.092  0.00  0.00     0.028 C 
ATOM     12  C   LIG d   1       1.557  87.263 117.067  0.00  0.00     0.006 C 
ENDBRANCH   8  11
ENDBRANCH   7   8
ENDBRANCH   1   7
BRANCH   6  13
ATOM     13  N   LIG d   1       1.489  92.805 118.193  0.00  0.00    -0.311 N 
ATOM     14  C   LIG d   1       0.939  93.203 119.340  0.00  0.00     0.210 C 
ATOM     15  C   LIG d   1      -0.324  94.055 119.190  0.00  0.00     0.109 C 
ATOM     16  O   LIG d   1       1.397  92.956 120.466  0.00  0.00    -0.276 OA
ATOM     17  H   LIG d   1       1.070  93.077 117.325  0.00  0.00     0.149 HD
ENDBRANCH   6  13
BRANCH   5  18
ATOM     18  N   LIG d   1       4.279  93.676 119.081  0.00  0.00     0.381 N 
ATOM     19  H   LIG d   1       4.237  93.154 119.933  0.00  0.00    -0.090 HD
ATOM     20  H   LIG d   1       3.578  94.395 119.117  0.00  0.00    -0.090 HD
ATOM     21  H   LIG d   1       5.181  94.086 118.979  0.00  0.00    -0.090 HD
ENDBRANCH   5  18
BRANCH   3  22
ATOM     22  C   LIG d   1       6.090  90.369 116.128  0.00  0.00     0.382 C 
ATOM     23  O   LIG d   1       7.224  90.419 116.663  0.00  0.00    -0.241 OA
ATOM     24  O   LIG d   1       5.977  89.919 114.972  0.00  0.00    -0.241 OA
ENDBRANCH   3  22
TORSDOF 7
ENDMDL
MODEL 9
REMARK VINA RESULT:      -4.0      4.747      7.441
REMARK  7 active torsions:
REMARK  status: ('A' for Active; 'I' for Inactive)
REMARK    1  A    between atoms: C_2  and  C_3 
REMARK    2  A    between atoms: C_3  and  O_6 
REMARK    3  A    between atoms: C_3  and  C_4 
REMARK    4  A    between atoms: C_7  and  O_6 
REMARK    5  A    between atoms: C_9  and  C_10 
REMARK    6  A    between atoms: N_15  and  C_14 
REMARK    7  A    between atoms: N_20  and  C_19 
REMARK       I    between atoms: C_22  and  N_20 
ROOT
ATOM      1  C   LIG d   1      -3.153  91.654 118.709  0.00  0.00     0.161 C 
ATOM      2  C   LIG d   1      -4.296  91.330 117.959  0.00  0.00     0.016 C 
ATOM      3  C   LIG d   1      -4.300  90.371 116.921  0.00  0.00     0.038 C 
ATOM      4  C   LIG d   1      -3.189  89.555 116.661  0.00  0.00     0.028 C 
ATOM      5  C   LIG d   1      -1.862  90.196 117.055  0.00  0.00    -0.047 C 
ATOM      6  C   LIG d   1      -1.959  90.696 118.514  0.00  0.00     0.091 C 
ENDROOT
BRANCH   1   7
ATOM      7  O   LIG d   1      -3.496  91.751 120.105  0.00  0.00    -0.368 OA
BRANCH   7   8
ATOM      8  C   LIG d   1      -3.543  93.089 120.659  0.00  0.00     0.119 C 
BRANCH   8   9
ATOM      9  C   LIG d   1      -4.992  93.595 120.525  0.00  0.00     0.028 C 
ATOM     10  C   LIG d   1      -6.025  92.530 120.930  0.00  0.00     0.006 C 
ENDBRANCH   8   9
BRANCH   8  11
ATOM     11  C   LIG d   1      -2.695  94.063 119.835  0.00  0.00     0.028 C 
ATOM     12  C   LIG d   1      -3.301  95.474 119.774  0.00  0.00     0.006 C 
ENDBRANCH   8  11
ENDBRANCH   7   8
ENDBRANCH   1   7
BRANCH   6  13
ATOM     13  N   LIG d   1      -0.732  91.411 118.952  0.00  0.00    -0.311 N 
ATOM     14  C   LIG d   1       0.258  90.825 119.622  0.00  0.00     0.210 C 
ATOM     15  C   LIG d   1       1.422  91.749 119.994  0.00  0.00     0.109 C 
ATOM     16  O   LIG d   1       0.297  89.621 119.917  0.00  0.00    -0.276 OA
ATOM     17  H   LIG d   1      -0.667  92.385 118.727  0.00  0.00     0.149 HD
ENDBRANCH   6  13
BRANCH   5  18
ATOM     18  N   LIG d   1      -0.804  89.187 116.859  0.00  0.00     0.381 N 
ATOM     19  H   LIG d   1      -1.170  88.273 117.037  0.00  0.00    -0.090 HD
ATOM     20  H   LIG d   1      -0.062  89.362 117.513  0.00  0.00    -0.090 HD
ATOM     21  H   LIG d   1      -0.454  89.236 115.927  0.00  0.00    -0.090 HD
ENDBRANCH   5  18
BRANCH   3  22
ATOM     22  C   LIG d   1      -5.413  90.247 116.103  0.00  0.00     0.382 C 
ATOM     23  O   LIG d   1      -5.290  89.785 114.943  0.00  0.00    -0.241 OA
ATOM     24  O   LIG d   1      -6.531  90.633 116.495  0.00  0.00    -0.241 OA
ENDBRANCH   3  22
TORSDOF 7
ENDMDL
