MODEL 1
REMARK VINA RESULT:      -5.2      0.000      0.000
REMARK  7 active torsions:
REMARK  status: ('A' for Active; 'I' for Inactive)
REMARK    1  A    between atoms: C_2  and  C_3 
REMARK    2  A    between atoms: C_3  and  O_6 
REMARK    3  A    between atoms: C_3  and  C_4 
REMARK    4  A    between atoms: C_7  and  O_6 
REMARK    5  A    between atoms: C_9  and  C_10 
REMARK    6  A    between atoms: N_15  and  C_14 
REMARK    7  A    between atoms: N_20  and  C_19 
REMARK       I    between atoms: C_22  and  N_20 
ROOT
ATOM      1  C   LIG d   1      -7.611  92.992 117.817  0.00  0.00     0.161 C 
ATOM      2  C   LIG d   1      -6.556  93.152 118.730  0.00  0.00     0.016 C 
ATOM      3  C   LIG d   1      -5.298  92.522 118.584  0.00  0.00     0.038 C 
ATOM      4  C   LIG d   1      -4.958  91.805 117.428  0.00  0.00     0.028 C 
ATOM      5  C   LIG d   1      -6.162  91.199 116.715  0.00  0.00    -0.047 C 
ATOM      6  C   LIG d   1      -7.221  92.302 116.492  0.00  0.00     0.091 C 
ENDROOT
BRANCH   1   7
ATOM      7  O   LIG d   1      -8.228  94.268 117.555  0.00  0.00    -0.368 OA
BRANCH   7   8
ATOM      8  C   LIG d   1      -8.529  95.081 118.715  0.00  0.00     0.119 C 
BRANCH   8   9
ATOM      9  C   LIG d   1      -9.971  94.755 119.149  0.00  0.00     0.028 C 
ATOM     10  C   LIG d   1     -10.170  94.882 120.669  0.00  0.00     0.006 C 
ENDBRANCH   8   9
BRANCH   8  11
ATOM     11  C   LIG d   1      -8.538  96.572 118.364  0.00  0.00     0.028 C 
ATOM     12  C   LIG d   1      -7.206  97.268 118.685  0.00  0.00     0.006 C 
ENDBRANCH   8  11
ENDBRANCH   7   8
ENDBRANCH   1   7
BRANCH   6  13
ATOM     13  N   LIG d   1      -8.467  91.776 115.876  0.00  0.00    -0.311 N 
ATOM     14  C   LIG d   1      -8.674  91.735 114.561  0.00  0.00     0.210 C 
ATOM     15  C   LIG d   1     -10.034  91.173 114.137  0.00  0.00     0.109 C 
ATOM     16  O   LIG d   1      -7.846  92.082 113.704  0.00  0.00    -0.276 OA
ATOM     17  H   LIG d   1      -9.179  91.445 116.497  0.00  0.00     0.149 HD
ENDBRANCH   6  13
BRANCH   5  18
ATOM     18  N   LIG d   1      -5.679  90.599 115.457  0.00  0.00     0.381 N 
ATOM     19  H   LIG d   1      -6.440  90.162 114.976  0.00  0.00    -0.090 HD
ATOM     20  H   LIG d   1      -4.997  89.894 115.673  0.00  0.00    -0.090 HD
ATOM     21  H   LIG d   1      -5.271  91.300 114.879  0.00  0.00    -0.090 HD
ENDBRANCH   5  18
BRANCH   3  22
ATOM     22  C   LIG d   1      -4.379  92.575 119.621  0.00  0.00     0.382 C 
ATOM     23  O   LIG d   1      -3.617  91.601 119.833  0.00  0.00    -0.241 OA
ATOM     24  O   LIG d   1      -4.333  93.565 120.375  0.00  0.00    -0.241 OA
ENDBRANCH   3  22
TORSDOF 7
ENDMDL
MODEL 2
REMARK VINA RESULT:      -5.1      2.386      5.686
REMARK  7 active torsions:
REMARK  status: ('A' for Active; 'I' for Inactive)
REMARK    1  A    between atoms: C_2  and  C_3 
REMARK    2  A    between atoms: C_3  and  O_6 
REMARK    3  A    between atoms: C_3  and  C_4 
REMARK    4  A    between atoms: C_7  and  O_6 
REMARK    5  A    between atoms: C_9  and  C_10 
REMARK    6  A    between atoms: N_15  and  C_14 
REMARK    7  A    between atoms: N_20  and  C_19 
REMARK       I    between atoms: C_22  and  N_20 
ROOT
ATOM      1  C   LIG d   1      -5.999  92.747 118.315  0.00  0.00     0.161 C 
ATOM      2  C   LIG d   1      -6.066  91.733 117.346  0.00  0.00     0.016 C 
ATOM      3  C   LIG d   1      -7.098  91.642 116.384  0.00  0.00     0.038 C 
ATOM      4  C   LIG d   1      -8.059  92.653 116.231  0.00  0.00     0.028 C 
ATOM      5  C   LIG d   1      -8.324  93.436 117.512  0.00  0.00    -0.047 C 
ATOM      6  C   LIG d   1      -6.976  93.920 118.093  0.00  0.00     0.091 C 
ENDROOT
BRANCH   1   7
ATOM      7  O   LIG d   1      -4.646  93.234 118.420  0.00  0.00    -0.368 OA
BRANCH   7   8
ATOM      8  C   LIG d   1      -3.618  92.390 117.846  0.00  0.00     0.119 C 
BRANCH   8   9
ATOM      9  C   LIG d   1      -3.231  91.344 118.909  0.00  0.00     0.028 C 
ATOM     10  C   LIG d   1      -3.131  89.924 118.326  0.00  0.00     0.006 C 
ENDBRANCH   8   9
BRANCH   8  11
ATOM     11  C   LIG d   1      -2.336  93.182 117.570  0.00  0.00     0.028 C 
ATOM     12  C   LIG d   1      -2.465  94.670 117.935  0.00  0.00     0.006 C 
ENDBRANCH   8  11
ENDBRANCH   7   8
ENDBRANCH   1   7
BRANCH   6  13
ATOM     13  N   LIG d   1      -7.138  94.623 119.393  0.00  0.00    -0.311 N 
ATOM     14  C   LIG d   1      -7.349  95.934 119.496  0.00  0.00     0.210 C 
ATOM     15  C   LIG d   1      -7.468  96.459 120.930  0.00  0.00     0.109 C 
ATOM     16  O   LIG d   1      -7.482  96.706 118.535  0.00  0.00    -0.276 OA
ATOM     17  H   LIG d   1      -7.076  94.066 120.223  0.00  0.00     0.149 HD
ENDBRANCH   6  13
BRANCH   5  18
ATOM     18  N   LIG d   1      -9.240  94.542 117.177  0.00  0.00     0.381 N 
ATOM     19  H   LIG d   1      -9.831  94.742 117.959  0.00  0.00    -0.090 HD
ATOM     20  H   LIG d   1      -9.821  94.262 116.407  0.00  0.00    -0.090 HD
ATOM     21  H   LIG d   1      -8.718  95.354 116.930  0.00  0.00    -0.090 HD
ENDBRANCH   5  18
BRANCH   3  22
ATOM     22  C   LIG d   1      -7.200  90.511 115.589  0.00  0.00     0.382 C 
ATOM     23  O   LIG d   1      -8.303  89.924 115.472  0.00  0.00    -0.241 OA
ATOM     24  O   LIG d   1      -6.194  90.043 115.024  0.00  0.00    -0.241 OA
ENDBRANCH   3  22
TORSDOF 7
ENDMDL
MODEL 3
REMARK VINA RESULT:      -5.0      2.264      4.994
REMARK  7 active torsions:
REMARK  status: ('A' for Active; 'I' for Inactive)
REMARK    1  A    between atoms: C_2  and  C_3 
REMARK    2  A    between atoms: C_3  and  O_6 
REMARK    3  A    between atoms: C_3  and  C_4 
REMARK    4  A    between atoms: C_7  and  O_6 
REMARK    5  A    between atoms: C_9  and  C_10 
REMARK    6  A    between atoms: N_15  and  C_14 
REMARK    7  A    between atoms: N_20  and  C_19 
REMARK       I    between atoms: C_22  and  N_20 
ROOT
ATOM      1  C   LIG d   1      -6.498  92.317 117.272  0.00  0.00     0.161 C 
ATOM      2  C   LIG d   1      -5.460  91.375 117.377  0.00  0.00     0.016 C 
ATOM      3  C   LIG d   1      -4.508  91.380 118.423  0.00  0.00     0.038 C 
ATOM      4  C   LIG d   1      -4.620  92.242 119.524  0.00  0.00     0.028 C 
ATOM      5  C   LIG d   1      -5.358  93.538 119.206  0.00  0.00    -0.047 C 
ATOM      6  C   LIG d   1      -6.702  93.196 118.524  0.00  0.00     0.091 C 
ENDROOT
BRANCH   1   7
ATOM      7  O   LIG d   1      -7.727  91.651 116.921  0.00  0.00    -0.368 OA
BRANCH   7   8
ATOM      8  C   LIG d   1      -7.685  90.819 115.736  0.00  0.00     0.119 C 
BRANCH   8   9
ATOM      9  C   LIG d   1      -7.203  91.700 114.567  0.00  0.00     0.028 C 
ATOM     10  C   LIG d   1      -8.259  91.833 113.458  0.00  0.00     0.006 C 
ENDBRANCH   8   9
BRANCH   8  11
ATOM     11  C   LIG d   1      -9.086  90.347 115.336  0.00  0.00     0.028 C 
ATOM     12  C   LIG d   1      -9.584  89.170 116.191  0.00  0.00     0.006 C 
ENDBRANCH   8  11
ENDBRANCH   7   8
ENDBRANCH   1   7
BRANCH   6  13
ATOM     13  N   LIG d   1      -7.450  94.410 118.103  0.00  0.00    -0.311 N 
ATOM     14  C   LIG d   1      -8.324  95.040 118.885  0.00  0.00     0.210 C 
ATOM     15  C   LIG d   1      -8.999  96.259 118.250  0.00  0.00     0.109 C 
ATOM     16  O   LIG d   1      -8.581  94.724 120.057  0.00  0.00    -0.276 OA
ATOM     17  H   LIG d   1      -7.279  94.753 117.178  0.00  0.00     0.149 HD
ENDBRANCH   6  13
BRANCH   5  18
ATOM     18  N   LIG d   1      -5.524  94.278 120.471  0.00  0.00     0.381 N 
ATOM     19  H   LIG d   1      -6.438  94.684 120.509  0.00  0.00    -0.090 HD
ATOM     20  H   LIG d   1      -4.848  95.021 120.504  0.00  0.00    -0.090 HD
ATOM     21  H   LIG d   1      -5.392  93.665 121.245  0.00  0.00    -0.090 HD
ENDBRANCH   5  18
BRANCH   3  22
ATOM     22  C   LIG d   1      -3.406  90.542 118.352  0.00  0.00     0.382 C 
ATOM     23  O   LIG d   1      -3.513  89.336 118.680  0.00  0.00    -0.241 OA
ATOM     24  O   LIG d   1      -2.295  90.987 118.007  0.00  0.00    -0.241 OA
ENDBRANCH   3  22
TORSDOF 7
ENDMDL
MODEL 4
REMARK VINA RESULT:      -4.9      2.335      5.040
REMARK  7 active torsions:
REMARK  status: ('A' for Active; 'I' for Inactive)
REMARK    1  A    between atoms: C_2  and  C_3 
REMARK    2  A    between atoms: C_3  and  O_6 
REMARK    3  A    between atoms: C_3  and  C_4 
REMARK    4  A    between atoms: C_7  and  O_6 
REMARK    5  A    between atoms: C_9  and  C_10 
REMARK    6  A    between atoms: N_15  and  C_14 
REMARK    7  A    between atoms: N_20  and  C_19 
REMARK       I    between atoms: C_22  and  N_20 
ROOT
ATOM      1  C   LIG d   1      -5.770  93.329 118.868  0.00  0.00     0.161 C 
ATOM      2  C   LIG d   1      -6.770  92.741 118.075  0.00  0.00     0.016 C 
ATOM      3  C   LIG d   1      -6.504  91.783 117.071  0.00  0.00     0.038 C 
ATOM      4  C   LIG d   1      -5.226  91.232 116.892  0.00  0.00     0.028 C 
ATOM      5  C   LIG d   1      -4.099  92.162 117.327  0.00  0.00    -0.047 C 
ATOM      6  C   LIG d   1      -4.384  92.659 118.763  0.00  0.00     0.091 C 
ENDROOT
BRANCH   1   7
ATOM      7  O   LIG d   1      -6.201  93.377 120.242  0.00  0.00    -0.368 OA
BRANCH   7   8
ATOM      8  C   LIG d   1      -6.472  94.694 120.780  0.00  0.00     0.119 C 
BRANCH   8   9
ATOM      9  C   LIG d   1      -8.001  94.831 120.920  0.00  0.00     0.028 C 
ATOM     10  C   LIG d   1      -8.628  95.623 119.761  0.00  0.00     0.006 C 
ENDBRANCH   8   9
BRANCH   8  11
ATOM     11  C   LIG d   1      -6.056  95.794 119.798  0.00  0.00     0.028 C 
ATOM     12  C   LIG d   1      -4.970  96.721 120.368  0.00  0.00     0.006 C 
ENDBRANCH   8  11
ENDBRANCH   7   8
ENDBRANCH   1   7
BRANCH   6  13
ATOM     13  N   LIG d   1      -3.373  93.640 119.234  0.00  0.00    -0.311 N 
ATOM     14  C   LIG d   1      -2.297  93.301 119.943  0.00  0.00     0.210 C 
ATOM     15  C   LIG d   1      -1.393  94.471 120.345  0.00  0.00     0.109 C 
ATOM     16  O   LIG d   1      -1.989  92.140 120.249  0.00  0.00    -0.276 OA
ATOM     17  H   LIG d   1      -3.528  94.602 119.003  0.00  0.00     0.149 HD
ENDBRANCH   6  13
BRANCH   5  18
ATOM     18  N   LIG d   1      -2.834  91.411 117.216  0.00  0.00     0.381 N 
ATOM     19  H   LIG d   1      -2.460  91.241 118.128  0.00  0.00    -0.090 HD
ATOM     20  H   LIG d   1      -2.171  91.965 116.702  0.00  0.00    -0.090 HD
ATOM     21  H   LIG d   1      -2.990  90.547 116.746  0.00  0.00    -0.090 HD
ENDBRANCH   5  18
BRANCH   3  22
ATOM     22  C   LIG d   1      -7.515  91.395 116.205  0.00  0.00     0.382 C 
ATOM     23  O   LIG d   1      -8.446  92.191 115.931  0.00  0.00    -0.241 OA
ATOM     24  O   LIG d   1      -7.533  90.244 115.729  0.00  0.00    -0.241 OA
ENDBRANCH   3  22
TORSDOF 7
ENDMDL
MODEL 5
REMARK VINA RESULT:      -4.8      2.239      3.962
REMARK  7 active torsions:
REMARK  status: ('A' for Active; 'I' for Inactive)
REMARK    1  A    between atoms: C_2  and  C_3 
REMARK    2  A    between atoms: C_3  and  O_6 
REMARK    3  A    between atoms: C_3  and  C_4 
REMARK    4  A    between atoms: C_7  and  O_6 
REMARK    5  A    between atoms: C_9  and  C_10 
REMARK    6  A    between atoms: N_15  and  C_14 
REMARK    7  A    between atoms: N_20  and  C_19 
REMARK       I    between atoms: C_22  and  N_20 
ROOT
ATOM      1  C   LIG d   1      -6.128  93.306 119.672  0.00  0.00     0.161 C 
ATOM      2  C   LIG d   1      -5.002  92.573 119.261  0.00  0.00     0.016 C 
ATOM      3  C   LIG d   1      -4.910  91.925 118.008  0.00  0.00     0.038 C 
ATOM      4  C   LIG d   1      -5.883  92.095 117.012  0.00  0.00     0.028 C 
ATOM      5  C   LIG d   1      -7.268  92.412 117.567  0.00  0.00    -0.047 C 
ATOM      6  C   LIG d   1      -7.154  93.595 118.556  0.00  0.00     0.091 C 
ENDROOT
BRANCH   1   7
ATOM      7  O   LIG d   1      -5.709  94.535 120.297  0.00  0.00    -0.368 OA
BRANCH   7   8
ATOM      8  C   LIG d   1      -5.304  95.600 119.402  0.00  0.00     0.119 C 
BRANCH   8   9
ATOM      9  C   LIG d   1      -3.849  95.968 119.750  0.00  0.00     0.028 C 
ATOM     10  C   LIG d   1      -2.859  95.556 118.648  0.00  0.00     0.006 C 
ENDBRANCH   8   9
BRANCH   8  11
ATOM     11  C   LIG d   1      -6.115  96.875 119.650  0.00  0.00     0.028 C 
ATOM     12  C   LIG d   1      -6.963  96.803 120.930  0.00  0.00     0.006 C 
ENDBRANCH   8  11
ENDBRANCH   7   8
ENDBRANCH   1   7
BRANCH   6  13
ATOM     13  N   LIG d   1      -8.450  93.915 119.208  0.00  0.00    -0.311 N 
ATOM     14  C   LIG d   1      -9.278  94.862 118.768  0.00  0.00     0.210 C 
ATOM     15  C   LIG d   1     -10.552  95.043 119.599  0.00  0.00     0.109 C 
ATOM     16  O   LIG d   1      -9.093  95.546 117.751  0.00  0.00    -0.276 OA
ATOM     17  H   LIG d   1      -8.694  93.387 120.023  0.00  0.00     0.149 HD
ENDBRANCH   6  13
BRANCH   5  18
ATOM     18  N   LIG d   1      -8.152  92.699 116.421  0.00  0.00     0.381 N 
ATOM     19  H   LIG d   1      -9.102  92.753 116.731  0.00  0.00    -0.090 HD
ATOM     20  H   LIG d   1      -8.079  91.948 115.758  0.00  0.00    -0.090 HD
ATOM     21  H   LIG d   1      -7.886  93.558 115.992  0.00  0.00    -0.090 HD
ENDBRANCH   5  18
BRANCH   3  22
ATOM     22  C   LIG d   1      -3.852  91.065 117.755  0.00  0.00     0.382 C 
ATOM     23  O   LIG d   1      -3.984  89.834 117.955  0.00  0.00    -0.241 OA
ATOM     24  O   LIG d   1      -2.754  91.510 117.372  0.00  0.00    -0.241 OA
ENDBRANCH   3  22
TORSDOF 7
ENDMDL
MODEL 6
REMARK VINA RESULT:      -4.8      2.840      6.458
REMARK  7 active torsions:
REMARK  status: ('A' for Active; 'I' for Inactive)
REMARK    1  A    between atoms: C_2  and  C_3 
REMARK    2  A    between atoms: C_3  and  O_6 
REMARK    3  A    between atoms: C_3  and  C_4 
REMARK    4  A    between atoms: C_7  and  O_6 
REMARK    5  A    between atoms: C_9  and  C_10 
REMARK    6  A    between atoms: N_15  and  C_14 
REMARK    7  A    between atoms: N_20  and  C_19 
REMARK       I    between atoms: C_22  and  N_20 
ROOT
ATOM      1  C   LIG d   1      -5.001  91.837 117.599  0.00  0.00     0.161 C 
ATOM      2  C   LIG d   1      -5.742  91.127 116.640  0.00  0.00     0.016 C 
ATOM      3  C   LIG d   1      -7.079  91.439 116.302  0.00  0.00     0.038 C 
ATOM      4  C   LIG d   1      -7.721  92.584 116.797  0.00  0.00     0.028 C 
ATOM      5  C   LIG d   1      -7.186  93.041 118.150  0.00  0.00    -0.047 C 
ATOM      6  C   LIG d   1      -5.647  93.157 118.068  0.00  0.00     0.091 C 
ENDROOT
BRANCH   1   7
ATOM      7  O   LIG d   1      -3.668  92.078 117.107  0.00  0.00    -0.368 OA
BRANCH   7   8
ATOM      8  C   LIG d   1      -2.638  91.180 117.589  0.00  0.00     0.119 C 
BRANCH   8   9
ATOM      9  C   LIG d   1      -3.046  90.725 119.004  0.00  0.00     0.028 C 
ATOM     10  C   LIG d   1      -2.756  89.235 119.248  0.00  0.00     0.006 C 
ENDBRANCH   8   9
BRANCH   8  11
ATOM     11  C   LIG d   1      -1.303  91.908 117.766  0.00  0.00     0.028 C 
ATOM     12  C   LIG d   1      -0.164  91.270 116.955  0.00  0.00     0.006 C 
ENDBRANCH   8  11
ENDBRANCH   7   8
ENDBRANCH   1   7
BRANCH   6  13
ATOM     13  N   LIG d   1      -5.035  93.518 119.374  0.00  0.00    -0.311 N 
ATOM     14  C   LIG d   1      -4.006  94.355 119.495  0.00  0.00     0.210 C 
ATOM     15  C   LIG d   1      -3.517  94.574 120.930  0.00  0.00     0.109 C 
ATOM     16  O   LIG d   1      -3.473  94.961 118.553  0.00  0.00    -0.276 OA
ATOM     17  H   LIG d   1      -5.427  93.096 120.193  0.00  0.00     0.149 HD
ENDBRANCH   6  13
BRANCH   5  18
ATOM     18  N   LIG d   1      -7.845  94.319 118.481  0.00  0.00     0.381 N 
ATOM     19  H   LIG d   1      -7.159  95.042 118.568  0.00  0.00    -0.090 HD
ATOM     20  H   LIG d   1      -8.316  94.223 119.364  0.00  0.00    -0.090 HD
ATOM     21  H   LIG d   1      -8.502  94.558 117.771  0.00  0.00    -0.090 HD
ENDBRANCH   5  18
BRANCH   3  22
ATOM     22  C   LIG d   1      -7.802  90.577 115.492  0.00  0.00     0.382 C 
ATOM     23  O   LIG d   1      -8.874  90.076 115.908  0.00  0.00    -0.241 OA
ATOM     24  O   LIG d   1      -7.374  90.260 114.366  0.00  0.00    -0.241 OA
ENDBRANCH   3  22
TORSDOF 7
ENDMDL
MODEL 7
REMARK VINA RESULT:      -4.6      5.616      8.515
REMARK  7 active torsions:
REMARK  status: ('A' for Active; 'I' for Inactive)
REMARK    1  A    between atoms: C_2  and  C_3 
REMARK    2  A    between atoms: C_3  and  O_6 
REMARK    3  A    between atoms: C_3  and  C_4 
REMARK    4  A    between atoms: C_7  and  O_6 
REMARK    5  A    between atoms: C_9  and  C_10 
REMARK    6  A    between atoms: N_15  and  C_14 
REMARK    7  A    between atoms: N_20  and  C_19 
REMARK       I    between atoms: C_22  and  N_20 
ROOT
ATOM      1  C   LIG d   1      -0.164  90.053 117.298  0.00  0.00     0.161 C 
ATOM      2  C   LIG d   1       1.237  90.148 117.298  0.00  0.00     0.016 C 
ATOM      3  C   LIG d   1       1.934  91.377 117.345  0.00  0.00     0.038 C 
ATOM      4  C   LIG d   1       1.272  92.597 117.548  0.00  0.00     0.028 C 
ATOM      5  C   LIG d   1      -0.168  92.596 117.047  0.00  0.00    -0.047 C 
ATOM      6  C   LIG d   1      -0.902  91.367 117.631  0.00  0.00     0.091 C 
ENDROOT
BRANCH   1   7
ATOM      7  O   LIG d   1      -0.583  89.003 118.193  0.00  0.00    -0.368 OA
BRANCH   7   8
ATOM      8  C   LIG d   1      -0.296  89.210 119.597  0.00  0.00     0.119 C 
BRANCH   8   9
ATOM      9  C   LIG d   1       0.303  87.901 120.146  0.00  0.00     0.028 C 
ATOM     10  C   LIG d   1       0.621  86.889 119.032  0.00  0.00     0.006 C 
ENDBRANCH   8   9
BRANCH   8  11
ATOM     11  C   LIG d   1      -1.581  89.436 120.401  0.00  0.00     0.028 C 
ATOM     12  C   LIG d   1      -2.786  88.676 119.824  0.00  0.00     0.006 C 
ENDBRANCH   8  11
ENDBRANCH   7   8
ENDBRANCH   1   7
BRANCH   6  13
ATOM     13  N   LIG d   1      -2.293  91.243 117.124  0.00  0.00    -0.311 N 
ATOM     14  C   LIG d   1      -3.356  91.708 117.778  0.00  0.00     0.210 C 
ATOM     15  C   LIG d   1      -4.701  91.458 117.089  0.00  0.00     0.109 C 
ATOM     16  O   LIG d   1      -3.310  92.333 118.849  0.00  0.00    -0.276 OA
ATOM     17  H   LIG d   1      -2.419  90.777 116.247  0.00  0.00     0.149 HD
ENDBRANCH   6  13
BRANCH   5  18
ATOM     18  N   LIG d   1      -0.780  93.878 117.445  0.00  0.00     0.381 N 
ATOM     19  H   LIG d   1      -1.581  94.062 116.875  0.00  0.00    -0.090 HD
ATOM     20  H   LIG d   1      -0.113  94.615 117.299  0.00  0.00    -0.090 HD
ATOM     21  H   LIG d   1      -1.046  93.845 118.404  0.00  0.00    -0.090 HD
ENDBRANCH   5  18
BRANCH   3  22
ATOM     22  C   LIG d   1       3.306  91.397 117.147  0.00  0.00     0.382 C 
ATOM     23  O   LIG d   1       3.969  90.337 117.245  0.00  0.00    -0.241 OA
ATOM     24  O   LIG d   1       3.895  92.470 116.915  0.00  0.00    -0.241 OA
ENDBRANCH   3  22
TORSDOF 7
ENDMDL
MODEL 8
REMARK VINA RESULT:      -4.5      3.078      5.589
REMARK  7 active torsions:
REMARK  status: ('A' for Active; 'I' for Inactive)
REMARK    1  A    between atoms: C_2  and  C_3 
REMARK    2  A    between atoms: C_3  and  O_6 
REMARK    3  A    between atoms: C_3  and  C_4 
REMARK    4  A    between atoms: C_7  and  O_6 
REMARK    5  A    between atoms: C_9  and  C_10 
REMARK    6  A    between atoms: N_15  and  C_14 
REMARK    7  A    between atoms: N_20  and  C_19 
REMARK       I    between atoms: C_22  and  N_20 
ROOT
ATOM      1  C   LIG d   1      -3.918  92.005 118.592  0.00  0.00     0.161 C 
ATOM      2  C   LIG d   1      -4.433  93.104 119.299  0.00  0.00     0.016 C 
ATOM      3  C   LIG d   1      -3.924  94.417 119.174  0.00  0.00     0.038 C 
ATOM      4  C   LIG d   1      -2.957  94.749 118.214  0.00  0.00     0.028 C 
ATOM      5  C   LIG d   1      -2.055  93.580 117.833  0.00  0.00    -0.047 C 
ATOM      6  C   LIG d   1      -2.936  92.367 117.458  0.00  0.00     0.091 C 
ENDROOT
BRANCH   1   7
ATOM      7  O   LIG d   1      -5.000  91.202 118.080  0.00  0.00    -0.368 OA
BRANCH   7   8
ATOM      8  C   LIG d   1      -5.745  91.767 116.973  0.00  0.00     0.119 C 
BRANCH   8   9
ATOM      9  C   LIG d   1      -7.218  91.875 117.413  0.00  0.00     0.028 C 
ATOM     10  C   LIG d   1      -7.628  93.320 117.741  0.00  0.00     0.006 C 
ENDBRANCH   8   9
BRANCH   8  11
ATOM     11  C   LIG d   1      -5.750  90.824 115.766  0.00  0.00     0.028 C 
ATOM     12  C   LIG d   1      -7.045  90.915 114.944  0.00  0.00     0.006 C 
ENDBRANCH   8  11
ENDBRANCH   7   8
ENDBRANCH   1   7
BRANCH   6  13
ATOM     13  N   LIG d   1      -2.133  91.155 117.154  0.00  0.00    -0.311 N 
ATOM     14  C   LIG d   1      -1.226  90.648 117.987  0.00  0.00     0.210 C 
ATOM     15  C   LIG d   1      -0.495  89.405 117.470  0.00  0.00     0.109 C 
ATOM     16  O   LIG d   1      -0.980  91.091 119.119  0.00  0.00    -0.276 OA
ATOM     17  H   LIG d   1      -2.291  90.713 116.269  0.00  0.00     0.149 HD
ENDBRANCH   6  13
BRANCH   5  18
ATOM     18  N   LIG d   1      -1.186  94.028 116.728  0.00  0.00     0.381 N 
ATOM     19  H   LIG d   1      -1.236  93.374 115.972  0.00  0.00    -0.090 HD
ATOM     20  H   LIG d   1      -0.237  94.062 117.054  0.00  0.00    -0.090 HD
ATOM     21  H   LIG d   1      -1.471  94.930 116.415  0.00  0.00    -0.090 HD
ENDBRANCH   5  18
BRANCH   3  22
ATOM     22  C   LIG d   1      -4.356  95.407 120.044  0.00  0.00     0.382 C 
ATOM     23  O   LIG d   1      -5.583  95.572 120.246  0.00  0.00    -0.241 OA
ATOM     24  O   LIG d   1      -3.535  96.166 120.594  0.00  0.00    -0.241 OA
ENDBRANCH   3  22
TORSDOF 7
ENDMDL
MODEL 9
REMARK VINA RESULT:      -4.4      9.435     11.842
REMARK  7 active torsions:
REMARK  status: ('A' for Active; 'I' for Inactive)
REMARK    1  A    between atoms: C_2  and  C_3 
REMARK    2  A    between atoms: C_3  and  O_6 
REMARK    3  A    between atoms: C_3  and  C_4 
REMARK    4  A    between atoms: C_7  and  O_6 
REMARK    5  A    between atoms: C_9  and  C_10 
REMARK    6  A    between atoms: N_15  and  C_14 
REMARK    7  A    between atoms: N_20  and  C_19 
REMARK       I    between atoms: C_22  and  N_20 
ROOT
ATOM      1  C   LIG d   1       3.993  90.460 117.210  0.00  0.00     0.161 C 
ATOM      2  C   LIG d   1       4.758  90.983 118.265  0.00  0.00     0.016 C 
ATOM      3  C   LIG d   1       6.120  90.663 118.472  0.00  0.00     0.038 C 
ATOM      4  C   LIG d   1       6.854  89.911 117.543  0.00  0.00     0.028 C 
ATOM      5  C   LIG d   1       5.996  88.948 116.729  0.00  0.00    -0.047 C 
ATOM      6  C   LIG d   1       4.806  89.726 116.123  0.00  0.00     0.091 C 
ENDROOT
BRANCH   1   7
ATOM      7  O   LIG d   1       3.196  91.506 116.619  0.00  0.00    -0.368 OA
BRANCH   7   8
ATOM      8  C   LIG d   1       1.772  91.446 116.878  0.00  0.00     0.119 C 
BRANCH   8   9
ATOM      9  C   LIG d   1       1.421  92.622 117.810  0.00  0.00     0.028 C 
ATOM     10  C   LIG d   1      -0.007  93.146 117.582  0.00  0.00     0.006 C 
ENDBRANCH   8   9
BRANCH   8  11
ATOM     11  C   LIG d   1       1.401  90.184 117.661  0.00  0.00     0.028 C 
ATOM     12  C   LIG d   1       0.516  89.220 116.853  0.00  0.00     0.006 C 
ENDBRANCH   8  11
ENDBRANCH   7   8
ENDBRANCH   1   7
BRANCH   6  13
ATOM     13  N   LIG d   1       3.869  88.842 115.381  0.00  0.00    -0.311 N 
ATOM     14  C   LIG d   1       3.473  89.078 114.132  0.00  0.00     0.210 C 
ATOM     15  C   LIG d   1       2.489  88.052 113.561  0.00  0.00     0.109 C 
ATOM     16  O   LIG d   1       3.868  90.022 113.431  0.00  0.00    -0.276 OA
ATOM     17  H   LIG d   1       3.524  88.036 115.864  0.00  0.00     0.149 HD
ENDBRANCH   6  13
BRANCH   5  18
ATOM     18  N   LIG d   1       6.863  88.331 115.709  0.00  0.00     0.381 N 
ATOM     19  H   LIG d   1       6.325  88.108 114.896  0.00  0.00    -0.090 HD
ATOM     20  H   LIG d   1       7.243  87.477 116.078  0.00  0.00    -0.090 HD
ATOM     21  H   LIG d   1       7.602  88.954 115.467  0.00  0.00    -0.090 HD
ENDBRANCH   5  18
BRANCH   3  22
ATOM     22  C   LIG d   1       6.751  91.064 119.640  0.00  0.00     0.382 C 
ATOM     23  O   LIG d   1       6.162  91.833 120.438  0.00  0.00    -0.241 OA
ATOM     24  O   LIG d   1       7.917  90.702 119.884  0.00  0.00    -0.241 OA
ENDBRANCH   3  22
TORSDOF 7
ENDMDL
