MODEL 1
REMARK VINA RESULT:      -5.2      0.000      0.000
REMARK  7 active torsions:
REMARK  status: ('A' for Active; 'I' for Inactive)
REMARK    1  A    between atoms: C_2  and  C_3 
REMARK    2  A    between atoms: C_3  and  O_6 
REMARK    3  A    between atoms: C_3  and  C_4 
REMARK    4  A    between atoms: C_7  and  O_6 
REMARK    5  A    between atoms: C_9  and  C_10 
REMARK    6  A    between atoms: N_15  and  C_14 
REMARK    7  A    between atoms: N_20  and  C_19 
REMARK       I    between atoms: C_22  and  N_20 
ROOT
ATOM      1  C   LIG d   1      -6.081  93.009 117.800  0.00  0.00     0.161 C 
ATOM      2  C   LIG d   1      -7.019  92.415 116.940  0.00  0.00     0.016 C 
ATOM      3  C   LIG d   1      -6.734  91.286 116.138  0.00  0.00     0.038 C 
ATOM      4  C   LIG d   1      -5.529  90.578 116.256  0.00  0.00     0.028 C 
ATOM      5  C   LIG d   1      -4.367  91.437 116.741  0.00  0.00    -0.047 C 
ATOM      6  C   LIG d   1      -4.797  92.184 118.025  0.00  0.00     0.091 C 
ENDROOT
BRANCH   1   7
ATOM      7  O   LIG d   1      -6.703  93.321 119.062  0.00  0.00    -0.368 OA
BRANCH   7   8
ATOM      8  C   LIG d   1      -6.860  94.729 119.364  0.00  0.00     0.119 C 
BRANCH   8   9
ATOM      9  C   LIG d   1      -6.379  94.948 120.812  0.00  0.00     0.028 C 
ATOM     10  C   LIG d   1      -5.373  96.106 120.926  0.00  0.00     0.006 C 
ENDBRANCH   8   9
BRANCH   8  11
ATOM     11  C   LIG d   1      -8.336  95.139 119.362  0.00  0.00     0.028 C 
ATOM     12  C   LIG d   1      -8.724  95.964 118.125  0.00  0.00     0.006 C 
ENDBRANCH   8  11
ENDBRANCH   7   8
ENDBRANCH   1   7
BRANCH   6  13
ATOM     13  N   LIG d   1      -3.746  93.112 118.519  0.00  0.00    -0.311 N 
ATOM     14  C   LIG d   1      -3.318  93.129 119.780  0.00  0.00     0.210 C 
ATOM     15  C   LIG d   1      -2.243  94.178 120.084  0.00  0.00     0.109 C 
ATOM     16  O   LIG d   1      -3.703  92.354 120.669  0.00  0.00    -0.276 OA
ATOM     17  H   LIG d   1      -3.357  93.754 117.858  0.00  0.00     0.149 HD
ENDBRANCH   6  13
BRANCH   5  18
ATOM     18  N   LIG d   1      -3.211  90.545 116.951  0.00  0.00     0.381 N 
ATOM     19  H   LIG d   1      -3.472  89.786 117.548  0.00  0.00    -0.090 HD
ATOM     20  H   LIG d   1      -2.478  91.064 117.403  0.00  0.00    -0.090 HD
ATOM     21  H   LIG d   1      -2.888  90.194 116.076  0.00  0.00    -0.090 HD
ENDBRANCH   5  18
BRANCH   3  22
ATOM     22  C   LIG d   1      -7.647  90.879 115.176  0.00  0.00     0.382 C 
ATOM     23  O   LIG d   1      -7.913  91.629 114.207  0.00  0.00    -0.241 OA
ATOM     24  O   LIG d   1      -8.239  89.789 115.289  0.00  0.00    -0.241 OA
ENDBRANCH   3  22
TORSDOF 7
ENDMDL
MODEL 2
REMARK VINA RESULT:      -5.0      2.130      4.385
REMARK  7 active torsions:
REMARK  status: ('A' for Active; 'I' for Inactive)
REMARK    1  A    between atoms: C_2  and  C_3 
REMARK    2  A    between atoms: C_3  and  O_6 
REMARK    3  A    between atoms: C_3  and  C_4 
REMARK    4  A    between atoms: C_7  and  O_6 
REMARK    5  A    between atoms: C_9  and  C_10 
REMARK    6  A    between atoms: N_15  and  C_14 
REMARK    7  A    between atoms: N_20  and  C_19 
REMARK       I    between atoms: C_22  and  N_20 
ROOT
ATOM      1  C   LIG d   1      -4.900  92.011 117.645  0.00  0.00     0.161 C 
ATOM      2  C   LIG d   1      -5.137  91.105 116.597  0.00  0.00     0.016 C 
ATOM      3  C   LIG d   1      -6.345  91.062 115.863  0.00  0.00     0.038 C 
ATOM      4  C   LIG d   1      -7.347  92.029 116.028  0.00  0.00     0.028 C 
ATOM      5  C   LIG d   1      -7.363  92.654 117.420  0.00  0.00    -0.047 C 
ATOM      6  C   LIG d   1      -5.939  93.146 117.765  0.00  0.00     0.091 C 
ENDROOT
BRANCH   1   7
ATOM      7  O   LIG d   1      -3.572  92.558 117.527  0.00  0.00    -0.368 OA
BRANCH   7   8
ATOM      8  C   LIG d   1      -2.565  91.978 118.393  0.00  0.00     0.119 C 
BRANCH   8   9
ATOM      9  C   LIG d   1      -1.532  93.079 118.702  0.00  0.00     0.028 C 
ATOM     10  C   LIG d   1      -1.514  94.184 117.633  0.00  0.00     0.006 C 
ENDBRANCH   8   9
BRANCH   8  11
ATOM     11  C   LIG d   1      -1.781  90.875 117.675  0.00  0.00     0.028 C 
ATOM     12  C   LIG d   1      -2.128  89.468 118.187  0.00  0.00     0.006 C 
ENDBRANCH   8  11
ENDBRANCH   7   8
ENDBRANCH   1   7
BRANCH   6  13
ATOM     13  N   LIG d   1      -5.847  93.694 119.143  0.00  0.00    -0.311 N 
ATOM     14  C   LIG d   1      -6.155  94.953 119.453  0.00  0.00     0.210 C 
ATOM     15  C   LIG d   1      -5.971  95.319 120.929  0.00  0.00     0.109 C 
ATOM     16  O   LIG d   1      -6.592  95.792 118.651  0.00  0.00    -0.276 OA
ATOM     17  H   LIG d   1      -5.531  93.073 119.862  0.00  0.00     0.149 HD
ENDBRANCH   6  13
BRANCH   5  18
ATOM     18  N   LIG d   1      -8.363  93.739 117.410  0.00  0.00     0.381 N 
ATOM     19  H   LIG d   1      -9.109  93.506 116.785  0.00  0.00    -0.090 HD
ATOM     20  H   LIG d   1      -7.925  94.581 117.079  0.00  0.00    -0.090 HD
ATOM     21  H   LIG d   1      -8.721  93.881 118.328  0.00  0.00    -0.090 HD
ENDBRANCH   5  18
BRANCH   3  22
ATOM     22  C   LIG d   1      -6.575  90.019 114.980  0.00  0.00     0.382 C 
ATOM     23  O   LIG d   1      -5.631  89.266 114.639  0.00  0.00    -0.241 OA
ATOM     24  O   LIG d   1      -7.705  89.848 114.484  0.00  0.00    -0.241 OA
ENDBRANCH   3  22
TORSDOF 7
ENDMDL
MODEL 3
REMARK VINA RESULT:      -5.0      0.914      1.328
REMARK  7 active torsions:
REMARK  status: ('A' for Active; 'I' for Inactive)
REMARK    1  A    between atoms: C_2  and  C_3 
REMARK    2  A    between atoms: C_3  and  O_6 
REMARK    3  A    between atoms: C_3  and  C_4 
REMARK    4  A    between atoms: C_7  and  O_6 
REMARK    5  A    between atoms: C_9  and  C_10 
REMARK    6  A    between atoms: N_15  and  C_14 
REMARK    7  A    between atoms: N_20  and  C_19 
REMARK       I    between atoms: C_22  and  N_20 
ROOT
ATOM      1  C   LIG d   1      -6.171  93.293 118.022  0.00  0.00     0.161 C 
ATOM      2  C   LIG d   1      -6.954  92.563 117.111  0.00  0.00     0.016 C 
ATOM      3  C   LIG d   1      -6.467  91.455 116.380  0.00  0.00     0.038 C 
ATOM      4  C   LIG d   1      -5.200  90.904 116.624  0.00  0.00     0.028 C 
ATOM      5  C   LIG d   1      -4.196  91.914 117.170  0.00  0.00    -0.047 C 
ATOM      6  C   LIG d   1      -4.821  92.639 118.383  0.00  0.00     0.091 C 
ENDROOT
BRANCH   1   7
ATOM      7  O   LIG d   1      -6.934  93.561 119.215  0.00  0.00    -0.368 OA
BRANCH   7   8
ATOM      8  C   LIG d   1      -7.092  94.957 119.569  0.00  0.00     0.119 C 
BRANCH   8   9
ATOM      9  C   LIG d   1      -8.210  95.043 120.626  0.00  0.00     0.028 C 
ATOM     10  C   LIG d   1      -9.614  94.977 120.001  0.00  0.00     0.006 C 
ENDBRANCH   8   9
BRANCH   8  11
ATOM     11  C   LIG d   1      -7.594  95.781 118.379  0.00  0.00     0.028 C 
ATOM     12  C   LIG d   1      -7.115  97.240 118.419  0.00  0.00     0.006 C 
ENDBRANCH   8  11
ENDBRANCH   7   8
ENDBRANCH   1   7
BRANCH   6  13
ATOM     13  N   LIG d   1      -3.937  93.703 118.926  0.00  0.00    -0.311 N 
ATOM     14  C   LIG d   1      -3.078  93.504 119.924  0.00  0.00     0.210 C 
ATOM     15  C   LIG d   1      -2.276  94.740 120.342  0.00  0.00     0.109 C 
ATOM     16  O   LIG d   1      -2.880  92.414 120.480  0.00  0.00    -0.276 OA
ATOM     17  H   LIG d   1      -4.010  94.612 118.511  0.00  0.00     0.149 HD
ENDBRANCH   6  13
BRANCH   5  18
ATOM     18  N   LIG d   1      -2.963  91.178 117.508  0.00  0.00     0.381 N 
ATOM     19  H   LIG d   1      -3.192  90.353 118.025  0.00  0.00    -0.090 HD
ATOM     20  H   LIG d   1      -2.384  91.762 118.086  0.00  0.00    -0.090 HD
ATOM     21  H   LIG d   1      -2.473  90.932 116.676  0.00  0.00    -0.090 HD
ENDBRANCH   5  18
BRANCH   3  22
ATOM     22  C   LIG d   1      -7.237  90.910 115.364  0.00  0.00     0.382 C 
ATOM     23  O   LIG d   1      -7.857  91.664 114.574  0.00  0.00    -0.241 OA
ATOM     24  O   LIG d   1      -7.355  89.675 115.253  0.00  0.00    -0.241 OA
ENDBRANCH   3  22
TORSDOF 7
ENDMDL
MODEL 4
REMARK VINA RESULT:      -5.0      2.285      4.562
REMARK  7 active torsions:
REMARK  status: ('A' for Active; 'I' for Inactive)
REMARK    1  A    between atoms: C_2  and  C_3 
REMARK    2  A    between atoms: C_3  and  O_6 
REMARK    3  A    between atoms: C_3  and  C_4 
REMARK    4  A    between atoms: C_7  and  O_6 
REMARK    5  A    between atoms: C_9  and  C_10 
REMARK    6  A    between atoms: N_15  and  C_14 
REMARK    7  A    between atoms: N_20  and  C_19 
REMARK       I    between atoms: C_22  and  N_20 
ROOT
ATOM      1  C   LIG d   1      -4.369  91.202 117.354  0.00  0.00     0.161 C 
ATOM      2  C   LIG d   1      -5.265  90.778 116.359  0.00  0.00     0.016 C 
ATOM      3  C   LIG d   1      -6.508  91.404 116.113  0.00  0.00     0.038 C 
ATOM      4  C   LIG d   1      -6.875  92.599 116.750  0.00  0.00     0.028 C 
ATOM      5  C   LIG d   1      -6.227  92.779 118.119  0.00  0.00    -0.047 C 
ATOM      6  C   LIG d   1      -4.702  92.570 117.984  0.00  0.00     0.091 C 
ENDROOT
BRANCH   1   7
ATOM      7  O   LIG d   1      -3.025  91.204 116.833  0.00  0.00    -0.368 OA
BRANCH   7   8
ATOM      8  C   LIG d   1      -2.118  90.228 117.403  0.00  0.00     0.119 C 
BRANCH   8   9
ATOM      9  C   LIG d   1      -2.875  89.495 118.528  0.00  0.00     0.028 C 
ATOM     10  C   LIG d   1      -2.122  89.540 119.868  0.00  0.00     0.006 C 
ENDBRANCH   8   9
BRANCH   8  11
ATOM     11  C   LIG d   1      -0.929  90.906 118.090  0.00  0.00     0.028 C 
ATOM     12  C   LIG d   1       0.260  91.125 117.141  0.00  0.00     0.006 C 
ENDBRANCH   8  11
ENDBRANCH   7   8
ENDBRANCH   1   7
BRANCH   6  13
ATOM     13  N   LIG d   1      -4.001  92.646 119.292  0.00  0.00    -0.311 N 
ATOM     14  C   LIG d   1      -2.948  93.430 119.516  0.00  0.00     0.210 C 
ATOM     15  C   LIG d   1      -2.365  93.341 120.930  0.00  0.00     0.109 C 
ATOM     16  O   LIG d   1      -2.462  94.214 118.688  0.00  0.00    -0.276 OA
ATOM     17  H   LIG d   1      -4.350  92.066 120.030  0.00  0.00     0.149 HD
ENDBRANCH   6  13
BRANCH   5  18
ATOM     18  N   LIG d   1      -6.586  94.124 118.607  0.00  0.00     0.381 N 
ATOM     19  H   LIG d   1      -7.347  94.489 118.070  0.00  0.00    -0.090 HD
ATOM     20  H   LIG d   1      -5.796  94.734 118.490  0.00  0.00    -0.090 HD
ATOM     21  H   LIG d   1      -6.841  94.081 119.570  0.00  0.00    -0.090 HD
ENDBRANCH   5  18
BRANCH   3  22
ATOM     22  C   LIG d   1      -7.417  90.812 115.249  0.00  0.00     0.382 C 
ATOM     23  O   LIG d   1      -8.076  91.521 114.451  0.00  0.00    -0.241 OA
ATOM     24  O   LIG d   1      -7.618  89.584 115.288  0.00  0.00    -0.241 OA
ENDBRANCH   3  22
TORSDOF 7
ENDMDL
MODEL 5
REMARK VINA RESULT:      -4.6      2.465      4.587
REMARK  7 active torsions:
REMARK  status: ('A' for Active; 'I' for Inactive)
REMARK    1  A    between atoms: C_2  and  C_3 
REMARK    2  A    between atoms: C_3  and  O_6 
REMARK    3  A    between atoms: C_3  and  C_4 
REMARK    4  A    between atoms: C_7  and  O_6 
REMARK    5  A    between atoms: C_9  and  C_10 
REMARK    6  A    between atoms: N_15  and  C_14 
REMARK    7  A    between atoms: N_20  and  C_19 
REMARK       I    between atoms: C_22  and  N_20 
ROOT
ATOM      1  C   LIG d   1      -5.275  93.377 119.345  0.00  0.00     0.161 C 
ATOM      2  C   LIG d   1      -4.612  92.425 118.553  0.00  0.00     0.016 C 
ATOM      3  C   LIG d   1      -5.173  91.856 117.387  0.00  0.00     0.038 C 
ATOM      4  C   LIG d   1      -6.384  92.314 116.847  0.00  0.00     0.028 C 
ATOM      5  C   LIG d   1      -7.323  92.914 117.888  0.00  0.00    -0.047 C 
ATOM      6  C   LIG d   1      -6.550  93.971 118.711  0.00  0.00     0.091 C 
ENDROOT
BRANCH   1   7
ATOM      7  O   LIG d   1      -4.362  94.429 119.713  0.00  0.00    -0.368 OA
BRANCH   7   8
ATOM      8  C   LIG d   1      -2.954  94.148 119.518  0.00  0.00     0.119 C 
BRANCH   8   9
ATOM      9  C   LIG d   1      -2.284  94.157 120.906  0.00  0.00     0.028 C 
ATOM     10  C   LIG d   1      -0.965  93.365 120.926  0.00  0.00     0.006 C 
ENDBRANCH   8   9
BRANCH   8  11
ATOM     11  C   LIG d   1      -2.266  95.265 118.728  0.00  0.00     0.028 C 
ATOM     12  C   LIG d   1      -1.472  94.740 117.521  0.00  0.00     0.006 C 
ENDBRANCH   8  11
ENDBRANCH   7   8
ENDBRANCH   1   7
BRANCH   6  13
ATOM     13  N   LIG d   1      -7.372  94.547 119.807  0.00  0.00    -0.311 N 
ATOM     14  C   LIG d   1      -8.114  95.644 119.668  0.00  0.00     0.210 C 
ATOM     15  C   LIG d   1      -8.868  96.079 120.929  0.00  0.00     0.109 C 
ATOM     16  O   LIG d   1      -8.246  96.279 118.611  0.00  0.00    -0.276 OA
ATOM     17  H   LIG d   1      -7.348  94.077 120.691  0.00  0.00     0.149 HD
ENDBRANCH   6  13
BRANCH   5  18
ATOM     18  N   LIG d   1      -8.483  93.475 117.171  0.00  0.00     0.381 N 
ATOM     19  H   LIG d   1      -9.199  93.722 117.825  0.00  0.00    -0.090 HD
ATOM     20  H   LIG d   1      -8.851  92.776 116.551  0.00  0.00    -0.090 HD
ATOM     21  H   LIG d   1      -8.207  94.279 116.651  0.00  0.00    -0.090 HD
ENDBRANCH   5  18
BRANCH   3  22
ATOM     22  C   LIG d   1      -4.540  90.787 116.770  0.00  0.00     0.382 C 
ATOM     23  O   LIG d   1      -5.114  90.170 115.841  0.00  0.00    -0.241 OA
ATOM     24  O   LIG d   1      -3.421  90.405 117.162  0.00  0.00    -0.241 OA
ENDBRANCH   3  22
TORSDOF 7
ENDMDL
MODEL 6
REMARK VINA RESULT:      -4.4      2.700      4.432
REMARK  7 active torsions:
REMARK  status: ('A' for Active; 'I' for Inactive)
REMARK    1  A    between atoms: C_2  and  C_3 
REMARK    2  A    between atoms: C_3  and  O_6 
REMARK    3  A    between atoms: C_3  and  C_4 
REMARK    4  A    between atoms: C_7  and  O_6 
REMARK    5  A    between atoms: C_9  and  C_10 
REMARK    6  A    between atoms: N_15  and  C_14 
REMARK    7  A    between atoms: N_20  and  C_19 
REMARK       I    between atoms: C_22  and  N_20 
ROOT
ATOM      1  C   LIG d   1      -5.268  93.415 119.807  0.00  0.00     0.161 C 
ATOM      2  C   LIG d   1      -4.240  92.579 119.340  0.00  0.00     0.016 C 
ATOM      3  C   LIG d   1      -4.297  91.890 118.107  0.00  0.00     0.038 C 
ATOM      4  C   LIG d   1      -5.328  92.111 117.182  0.00  0.00     0.028 C 
ATOM      5  C   LIG d   1      -6.636  92.558 117.827  0.00  0.00    -0.047 C 
ATOM      6  C   LIG d   1      -6.350  93.756 118.762  0.00  0.00     0.091 C 
ENDROOT
BRANCH   1   7
ATOM      7  O   LIG d   1      -4.704  94.623 120.356  0.00  0.00    -0.368 OA
BRANCH   7   8
ATOM      8  C   LIG d   1      -4.222  95.595 119.396  0.00  0.00     0.119 C 
BRANCH   8   9
ATOM      9  C   LIG d   1      -2.707  95.761 119.625  0.00  0.00     0.028 C 
ATOM     10  C   LIG d   1      -1.881  95.391 118.381  0.00  0.00     0.006 C 
ENDBRANCH   8   9
BRANCH   8  11
ATOM     11  C   LIG d   1      -4.825  96.979 119.653  0.00  0.00     0.028 C 
ATOM     12  C   LIG d   1      -5.679  97.029 120.930  0.00  0.00     0.006 C 
ENDBRANCH   8  11
ENDBRANCH   7   8
ENDBRANCH   1   7
BRANCH   6  13
ATOM     13  N   LIG d   1      -7.562  94.202 119.497  0.00  0.00    -0.311 N 
ATOM     14  C   LIG d   1      -8.360  95.178 119.071  0.00  0.00     0.210 C 
ATOM     15  C   LIG d   1      -9.544  95.494 119.990  0.00  0.00     0.109 C 
ATOM     16  O   LIG d   1      -8.219  95.791 118.001  0.00  0.00    -0.276 OA
ATOM     17  H   LIG d   1      -7.769  93.737 120.360  0.00  0.00     0.149 HD
ENDBRANCH   6  13
BRANCH   5  18
ATOM     18  N   LIG d   1      -7.579  92.885 116.741  0.00  0.00     0.381 N 
ATOM     19  H   LIG d   1      -7.712  92.084 116.155  0.00  0.00    -0.090 HD
ATOM     20  H   LIG d   1      -7.189  93.623 116.183  0.00  0.00    -0.090 HD
ATOM     21  H   LIG d   1      -8.453  93.173 117.124  0.00  0.00    -0.090 HD
ENDBRANCH   5  18
BRANCH   3  22
ATOM     22  C   LIG d   1      -3.335  90.938 117.807  0.00  0.00     0.382 C 
ATOM     23  O   LIG d   1      -2.118  91.215 117.933  0.00  0.00    -0.241 OA
ATOM     24  O   LIG d   1      -3.668  89.820 117.369  0.00  0.00    -0.241 OA
ENDBRANCH   3  22
TORSDOF 7
ENDMDL
MODEL 7
REMARK VINA RESULT:      -4.2      7.651     10.301
REMARK  7 active torsions:
REMARK  status: ('A' for Active; 'I' for Inactive)
REMARK    1  A    between atoms: C_2  and  C_3 
REMARK    2  A    between atoms: C_3  and  O_6 
REMARK    3  A    between atoms: C_3  and  C_4 
REMARK    4  A    between atoms: C_7  and  O_6 
REMARK    5  A    between atoms: C_9  and  C_10 
REMARK    6  A    between atoms: N_15  and  C_14 
REMARK    7  A    between atoms: N_20  and  C_19 
REMARK       I    between atoms: C_22  and  N_20 
ROOT
ATOM      1  C   LIG d   1       2.587  89.700 116.844  0.00  0.00     0.161 C 
ATOM      2  C   LIG d   1       3.143  90.917 117.270  0.00  0.00     0.016 C 
ATOM      3  C   LIG d   1       4.349  91.445 116.754  0.00  0.00     0.038 C 
ATOM      4  C   LIG d   1       5.007  90.860 115.661  0.00  0.00     0.028 C 
ATOM      5  C   LIG d   1       4.755  89.361 115.534  0.00  0.00    -0.047 C 
ATOM      6  C   LIG d   1       3.231  89.103 115.575  0.00  0.00     0.091 C 
ENDROOT
BRANCH   1   7
ATOM      7  O   LIG d   1       1.165  89.849 116.661  0.00  0.00    -0.368 OA
BRANCH   7   8
ATOM      8  C   LIG d   1       0.359  89.799 117.863  0.00  0.00     0.119 C 
BRANCH   8   9
ATOM      9  C   LIG d   1      -0.419  88.469 117.844  0.00  0.00     0.028 C 
ATOM     10  C   LIG d   1      -1.925  88.667 118.085  0.00  0.00     0.006 C 
ENDBRANCH   8   9
BRANCH   8  11
ATOM     11  C   LIG d   1      -0.711  90.895 117.863  0.00  0.00     0.028 C 
ATOM     12  C   LIG d   1      -0.151  92.275 117.484  0.00  0.00     0.006 C 
ENDBRANCH   8  11
ENDBRANCH   7   8
ENDBRANCH   1   7
BRANCH   6  13
ATOM     13  N   LIG d   1       2.901  87.655 115.541  0.00  0.00    -0.311 N 
ATOM     14  C   LIG d   1       2.321  87.059 114.501  0.00  0.00     0.210 C 
ATOM     15  C   LIG d   1       2.050  85.562 114.681  0.00  0.00     0.109 C 
ATOM     16  O   LIG d   1       2.035  87.622 113.433  0.00  0.00    -0.276 OA
ATOM     17  H   LIG d   1       3.127  87.116 116.354  0.00  0.00     0.149 HD
ENDBRANCH   6  13
BRANCH   5  18
ATOM     18  N   LIG d   1       5.385  88.908 114.280  0.00  0.00     0.381 N 
ATOM     19  H   LIG d   1       6.377  89.018 114.340  0.00  0.00    -0.090 HD
ATOM     20  H   LIG d   1       5.050  89.479 113.523  0.00  0.00    -0.090 HD
ATOM     21  H   LIG d   1       5.159  87.953 114.110  0.00  0.00    -0.090 HD
ENDBRANCH   5  18
BRANCH   3  22
ATOM     22  C   LIG d   1       4.931  92.549 117.359  0.00  0.00     0.382 C 
ATOM     23  O   LIG d   1       4.526  93.703 117.079  0.00  0.00    -0.241 OA
ATOM     24  O   LIG d   1       5.885  92.408 118.147  0.00  0.00    -0.241 OA
ENDBRANCH   3  22
TORSDOF 7
ENDMDL
MODEL 8
REMARK VINA RESULT:      -4.1      2.757      5.206
REMARK  7 active torsions:
REMARK  status: ('A' for Active; 'I' for Inactive)
REMARK    1  A    between atoms: C_2  and  C_3 
REMARK    2  A    between atoms: C_3  and  O_6 
REMARK    3  A    between atoms: C_3  and  C_4 
REMARK    4  A    between atoms: C_7  and  O_6 
REMARK    5  A    between atoms: C_9  and  C_10 
REMARK    6  A    between atoms: N_15  and  C_14 
REMARK    7  A    between atoms: N_20  and  C_19 
REMARK       I    between atoms: C_22  and  N_20 
ROOT
ATOM      1  C   LIG d   1      -3.067  93.058 119.533  0.00  0.00     0.161 C 
ATOM      2  C   LIG d   1      -3.048  94.462 119.564  0.00  0.00     0.016 C 
ATOM      3  C   LIG d   1      -2.211  95.248 118.740  0.00  0.00     0.038 C 
ATOM      4  C   LIG d   1      -1.439  94.683 117.713  0.00  0.00     0.028 C 
ATOM      5  C   LIG d   1      -1.046  93.234 117.979  0.00  0.00    -0.047 C 
ATOM      6  C   LIG d   1      -2.314  92.428 118.342  0.00  0.00     0.091 C 
ENDROOT
BRANCH   1   7
ATOM      7  O   LIG d   1      -4.428  92.586 119.570  0.00  0.00    -0.368 OA
BRANCH   7   8
ATOM      8  C   LIG d   1      -5.379  93.318 118.757  0.00  0.00     0.119 C 
BRANCH   8   9
ATOM      9  C   LIG d   1      -6.495  93.823 119.692  0.00  0.00     0.028 C 
ATOM     10  C   LIG d   1      -6.478  95.352 119.855  0.00  0.00     0.006 C 
ENDBRANCH   8   9
BRANCH   8  11
ATOM     11  C   LIG d   1      -6.077  92.398 117.752  0.00  0.00     0.028 C 
ATOM     12  C   LIG d   1      -7.367  93.008 117.181  0.00  0.00     0.006 C 
ENDBRANCH   8  11
ENDBRANCH   7   8
ENDBRANCH   1   7
BRANCH   6  13
ATOM     13  N   LIG d   1      -2.006  91.018 118.700  0.00  0.00    -0.311 N 
ATOM     14  C   LIG d   1      -2.689  89.977 118.228  0.00  0.00     0.210 C 
ATOM     15  C   LIG d   1      -2.220  88.611 118.739  0.00  0.00     0.109 C 
ATOM     16  O   LIG d   1      -3.618  90.052 117.409  0.00  0.00    -0.276 OA
ATOM     17  H   LIG d   1      -1.248  90.864 119.335  0.00  0.00     0.149 HD
ENDBRANCH   6  13
BRANCH   5  18
ATOM     18  N   LIG d   1      -0.365  92.728 116.772  0.00  0.00     0.381 N 
ATOM     19  H   LIG d   1      -0.340  91.728 116.791  0.00  0.00    -0.090 HD
ATOM     20  H   LIG d   1       0.581  93.067 116.767  0.00  0.00    -0.090 HD
ATOM     21  H   LIG d   1      -0.842  93.040 115.956  0.00  0.00    -0.090 HD
ENDBRANCH   5  18
BRANCH   3  22
ATOM     22  C   LIG d   1      -2.110  96.612 118.964  0.00  0.00     0.382 C 
ATOM     23  O   LIG d   1      -3.116  97.263 119.336  0.00  0.00    -0.241 OA
ATOM     24  O   LIG d   1      -1.036  97.209 118.758  0.00  0.00    -0.241 OA
ENDBRANCH   3  22
TORSDOF 7
ENDMDL
MODEL 9
REMARK VINA RESULT:      -4.0      5.013      8.135
REMARK  7 active torsions:
REMARK  status: ('A' for Active; 'I' for Inactive)
REMARK    1  A    between atoms: C_2  and  C_3 
REMARK    2  A    between atoms: C_3  and  O_6 
REMARK    3  A    between atoms: C_3  and  C_4 
REMARK    4  A    between atoms: C_7  and  O_6 
REMARK    5  A    between atoms: C_9  and  C_10 
REMARK    6  A    between atoms: N_15  and  C_14 
REMARK    7  A    between atoms: N_20  and  C_19 
REMARK       I    between atoms: C_22  and  N_20 
ROOT
ATOM      1  C   LIG d   1       0.044  91.000 116.954  0.00  0.00     0.161 C 
ATOM      2  C   LIG d   1       1.440  91.156 116.967  0.00  0.00     0.016 C 
ATOM      3  C   LIG d   1       2.099  92.206 117.648  0.00  0.00     0.038 C 
ATOM      4  C   LIG d   1       1.411  93.089 118.492  0.00  0.00     0.028 C 
ATOM      5  C   LIG d   1      -0.053  93.278 118.108  0.00  0.00    -0.047 C 
ATOM      6  C   LIG d   1      -0.716  91.889 117.961  0.00  0.00     0.091 C 
ENDROOT
BRANCH   1   7
ATOM      7  O   LIG d   1      -0.294  89.614 117.155  0.00  0.00    -0.368 OA
BRANCH   7   8
ATOM      8  C   LIG d   1      -0.670  89.238 118.503  0.00  0.00     0.119 C 
BRANCH   8   9
ATOM      9  C   LIG d   1       0.370  88.219 119.007  0.00  0.00     0.028 C 
ATOM     10  C   LIG d   1       0.743  87.182 117.935  0.00  0.00     0.006 C 
ENDBRANCH   8   9
BRANCH   8  11
ATOM     11  C   LIG d   1      -2.009  88.494 118.521  0.00  0.00     0.028 C 
ATOM     12  C   LIG d   1      -2.604  88.373 119.932  0.00  0.00     0.006 C 
ENDBRANCH   8  11
ENDBRANCH   7   8
ENDBRANCH   1   7
BRANCH   6  13
ATOM     13  N   LIG d   1      -2.127  91.980 117.504  0.00  0.00    -0.311 N 
ATOM     14  C   LIG d   1      -3.168  91.978 118.335  0.00  0.00     0.210 C 
ATOM     15  C   LIG d   1      -4.538  92.060 117.655  0.00  0.00     0.109 C 
ATOM     16  O   LIG d   1      -3.085  91.949 119.572  0.00  0.00    -0.276 OA
ATOM     17  H   LIG d   1      -2.284  92.039 116.517  0.00  0.00     0.149 HD
ENDBRANCH   6  13
BRANCH   5  18
ATOM     18  N   LIG d   1      -0.683  94.111 119.149  0.00  0.00     0.381 N 
ATOM     19  H   LIG d   1      -0.628  95.076 118.890  0.00  0.00    -0.090 HD
ATOM     20  H   LIG d   1      -0.183  93.988 120.012  0.00  0.00    -0.090 HD
ATOM     21  H   LIG d   1      -1.636  93.846 119.268  0.00  0.00    -0.090 HD
ENDBRANCH   5  18
BRANCH   3  22
ATOM     22  C   LIG d   1       3.458  92.404 117.455  0.00  0.00     0.382 C 
ATOM     23  O   LIG d   1       3.891  93.546 117.168  0.00  0.00    -0.241 OA
ATOM     24  O   LIG d   1       4.251  91.446 117.520  0.00  0.00    -0.241 OA
ENDBRANCH   3  22
TORSDOF 7
ENDMDL
