MODEL 1
REMARK VINA RESULT:      -5.7      0.000      0.000
REMARK  7 active torsions:
REMARK  status: ('A' for Active; 'I' for Inactive)
REMARK    1  A    between atoms: C_2  and  C_3 
REMARK    2  A    between atoms: C_3  and  O_6 
REMARK    3  A    between atoms: C_3  and  C_4 
REMARK    4  A    between atoms: C_7  and  O_6 
REMARK    5  A    between atoms: C_9  and  C_10 
REMARK    6  A    between atoms: N_15  and  C_14 
REMARK    7  A    between atoms: N_20  and  C_19 
REMARK       I    between atoms: C_22  and  N_20 
ROOT
ATOM      1  C   LIG d   1      -5.235  92.024 118.092  0.00  0.00     0.161 C 
ATOM      2  C   LIG d   1      -5.443  91.004 117.148  0.00  0.00     0.016 C 
ATOM      3  C   LIG d   1      -6.625  90.881 116.383  0.00  0.00     0.038 C 
ATOM      4  C   LIG d   1      -7.625  91.864 116.400  0.00  0.00     0.028 C 
ATOM      5  C   LIG d   1      -7.684  92.646 117.708  0.00  0.00    -0.047 C 
ATOM      6  C   LIG d   1      -6.269  93.169 118.044  0.00  0.00     0.091 C 
ENDROOT
BRANCH   1   7
ATOM      7  O   LIG d   1      -3.900  92.549 117.958  0.00  0.00    -0.368 OA
BRANCH   7   8
ATOM      8  C   LIG d   1      -3.105  92.586 119.169  0.00  0.00     0.119 C 
BRANCH   8   9
ATOM      9  C   LIG d   1      -2.773  94.063 119.460  0.00  0.00     0.028 C 
ATOM     10  C   LIG d   1      -1.666  94.608 118.542  0.00  0.00     0.006 C 
ENDBRANCH   8   9
BRANCH   8  11
ATOM     11  C   LIG d   1      -1.751  91.899 118.968  0.00  0.00     0.028 C 
ATOM     12  C   LIG d   1      -1.870  90.550 118.241  0.00  0.00     0.006 C 
ENDBRANCH   8  11
ENDBRANCH   7   8
ENDBRANCH   1   7
BRANCH   6  13
ATOM     13  N   LIG d   1      -6.220  93.873 119.352  0.00  0.00    -0.311 N 
ATOM     14  C   LIG d   1      -6.500  95.167 119.498  0.00  0.00     0.210 C 
ATOM     15  C   LIG d   1      -6.370  95.699 120.929  0.00  0.00     0.109 C 
ATOM     16  O   LIG d   1      -6.874  95.918 118.585  0.00  0.00    -0.276 OA
ATOM     17  H   LIG d   1      -5.956  93.332 120.152  0.00  0.00     0.149 HD
ENDBRANCH   6  13
BRANCH   5  18
ATOM     18  N   LIG d   1      -8.675  93.725 117.538  0.00  0.00     0.381 N 
ATOM     19  H   LIG d   1      -8.824  93.898 116.564  0.00  0.00    -0.090 HD
ATOM     20  H   LIG d   1      -8.315  94.565 117.956  0.00  0.00    -0.090 HD
ATOM     21  H   LIG d   1      -9.534  93.471 117.973  0.00  0.00    -0.090 HD
ENDBRANCH   5  18
BRANCH   3  22
ATOM     22  C   LIG d   1      -6.833  89.743 115.618  0.00  0.00     0.382 C 
ATOM     23  O   LIG d   1      -7.976  89.231 115.554  0.00  0.00    -0.241 OA
ATOM     24  O   LIG d   1      -5.882  89.197 115.026  0.00  0.00    -0.241 OA
ENDBRANCH   3  22
TORSDOF 7
ENDMDL
MODEL 2
REMARK VINA RESULT:      -5.7      2.006      4.426
REMARK  7 active torsions:
REMARK  status: ('A' for Active; 'I' for Inactive)
REMARK    1  A    between atoms: C_2  and  C_3 
REMARK    2  A    between atoms: C_3  and  O_6 
REMARK    3  A    between atoms: C_3  and  C_4 
REMARK    4  A    between atoms: C_7  and  O_6 
REMARK    5  A    between atoms: C_9  and  C_10 
REMARK    6  A    between atoms: N_15  and  C_14 
REMARK    7  A    between atoms: N_20  and  C_19 
REMARK       I    between atoms: C_22  and  N_20 
ROOT
ATOM      1  C   LIG d   1      -6.678  93.413 118.338  0.00  0.00     0.161 C 
ATOM      2  C   LIG d   1      -7.425  92.541 117.528  0.00  0.00     0.016 C 
ATOM      3  C   LIG d   1      -6.879  91.393 116.910  0.00  0.00     0.038 C 
ATOM      4  C   LIG d   1      -5.575  90.953 117.185  0.00  0.00     0.028 C 
ATOM      5  C   LIG d   1      -4.630  92.076 117.597  0.00  0.00    -0.047 C 
ATOM      6  C   LIG d   1      -5.283  92.888 118.739  0.00  0.00     0.091 C 
ENDROOT
BRANCH   1   7
ATOM      7  O   LIG d   1      -7.438  93.761 119.512  0.00  0.00    -0.368 OA
BRANCH   7   8
ATOM      8  C   LIG d   1      -7.473  95.169 119.854  0.00  0.00     0.119 C 
BRANCH   8   9
ATOM      9  C   LIG d   1      -8.858  95.463 120.463  0.00  0.00     0.028 C 
ATOM     10  C   LIG d   1      -9.827  94.278 120.316  0.00  0.00     0.006 C 
ENDBRANCH   8   9
BRANCH   8  11
ATOM     11  C   LIG d   1      -7.385  96.049 118.603  0.00  0.00     0.028 C 
ATOM     12  C   LIG d   1      -6.499  97.288 118.808  0.00  0.00     0.006 C 
ENDBRANCH   8  11
ENDBRANCH   7   8
ENDBRANCH   1   7
BRANCH   6  13
ATOM     13  N   LIG d   1      -4.462  94.058 119.144  0.00  0.00    -0.311 N 
ATOM     14  C   LIG d   1      -3.610  94.036 120.168  0.00  0.00     0.210 C 
ATOM     15  C   LIG d   1      -2.877  95.356 120.428  0.00  0.00     0.109 C 
ATOM     16  O   LIG d   1      -3.368  93.040 120.866  0.00  0.00    -0.276 OA
ATOM     17  H   LIG d   1      -4.572  94.899 118.613  0.00  0.00     0.149 HD
ENDBRANCH   6  13
BRANCH   5  18
ATOM     18  N   LIG d   1      -3.348  91.460 117.985  0.00  0.00     0.381 N 
ATOM     19  H   LIG d   1      -3.518  90.640 118.533  0.00  0.00    -0.090 HD
ATOM     20  H   LIG d   1      -2.831  92.113 118.548  0.00  0.00    -0.090 HD
ATOM     21  H   LIG d   1      -2.823  91.222 117.172  0.00  0.00    -0.090 HD
ENDBRANCH   5  18
BRANCH   3  22
ATOM     22  C   LIG d   1      -7.627  90.694 115.975  0.00  0.00     0.382 C 
ATOM     23  O   LIG d   1      -8.422  91.308 115.223  0.00  0.00    -0.241 OA
ATOM     24  O   LIG d   1      -7.550  89.453 115.904  0.00  0.00    -0.241 OA
ENDBRANCH   3  22
TORSDOF 7
ENDMDL
MODEL 3
REMARK VINA RESULT:      -5.4      1.939      4.322
REMARK  7 active torsions:
REMARK  status: ('A' for Active; 'I' for Inactive)
REMARK    1  A    between atoms: C_2  and  C_3 
REMARK    2  A    between atoms: C_3  and  O_6 
REMARK    3  A    between atoms: C_3  and  C_4 
REMARK    4  A    between atoms: C_7  and  O_6 
REMARK    5  A    between atoms: C_9  and  C_10 
REMARK    6  A    between atoms: N_15  and  C_14 
REMARK    7  A    between atoms: N_20  and  C_19 
REMARK       I    between atoms: C_22  and  N_20 
ROOT
ATOM      1  C   LIG d   1      -6.317  92.800 117.643  0.00  0.00     0.161 C 
ATOM      2  C   LIG d   1      -7.365  92.157 116.964  0.00  0.00     0.016 C 
ATOM      3  C   LIG d   1      -7.240  90.880 116.369  0.00  0.00     0.038 C 
ATOM      4  C   LIG d   1      -6.094  90.090 116.546  0.00  0.00     0.028 C 
ATOM      5  C   LIG d   1      -4.829  90.904 116.795  0.00  0.00    -0.047 C 
ATOM      6  C   LIG d   1      -5.095  91.906 117.941  0.00  0.00     0.091 C 
ENDROOT
BRANCH   1   7
ATOM      7  O   LIG d   1      -6.813  93.392 118.860  0.00  0.00    -0.368 OA
BRANCH   7   8
ATOM      8  C   LIG d   1      -7.069  94.817 118.817  0.00  0.00     0.119 C 
BRANCH   8   9
ATOM      9  C   LIG d   1      -6.646  95.405 120.177  0.00  0.00     0.028 C 
ATOM     10  C   LIG d   1      -5.662  94.493 120.930  0.00  0.00     0.006 C 
ENDBRANCH   8   9
BRANCH   8  11
ATOM     11  C   LIG d   1      -8.568  95.111 118.698  0.00  0.00     0.028 C 
ATOM     12  C   LIG d   1      -9.397  94.438 119.803  0.00  0.00     0.006 C 
ENDBRANCH   8  11
ENDBRANCH   7   8
ENDBRANCH   1   7
BRANCH   6  13
ATOM     13  N   LIG d   1      -3.934  92.800 118.193  0.00  0.00    -0.311 N 
ATOM     14  C   LIG d   1      -2.999  92.547 119.106  0.00  0.00     0.210 C 
ATOM     15  C   LIG d   1      -1.900  93.608 119.218  0.00  0.00     0.109 C 
ATOM     16  O   LIG d   1      -2.956  91.528 119.812  0.00  0.00    -0.276 OA
ATOM     17  H   LIG d   1      -3.873  93.634 117.643  0.00  0.00     0.149 HD
ENDBRANCH   6  13
BRANCH   5  18
ATOM     18  N   LIG d   1      -3.741  89.955 117.098  0.00  0.00     0.381 N 
ATOM     19  H   LIG d   1      -4.126  89.059 117.321  0.00  0.00    -0.090 HD
ATOM     20  H   LIG d   1      -3.232  90.288 117.897  0.00  0.00    -0.090 HD
ATOM     21  H   LIG d   1      -3.130  89.876 116.315  0.00  0.00    -0.090 HD
ENDBRANCH   5  18
BRANCH   3  22
ATOM     22  C   LIG d   1      -8.253  90.399 115.555  0.00  0.00     0.382 C 
ATOM     23  O   LIG d   1      -8.808  91.162 114.727  0.00  0.00    -0.241 OA
ATOM     24  O   LIG d   1      -8.650  89.224 115.668  0.00  0.00    -0.241 OA
ENDBRANCH   3  22
TORSDOF 7
ENDMDL
MODEL 4
REMARK VINA RESULT:      -5.3      1.668      4.994
REMARK  7 active torsions:
REMARK  status: ('A' for Active; 'I' for Inactive)
REMARK    1  A    between atoms: C_2  and  C_3 
REMARK    2  A    between atoms: C_3  and  O_6 
REMARK    3  A    between atoms: C_3  and  C_4 
REMARK    4  A    between atoms: C_7  and  O_6 
REMARK    5  A    between atoms: C_9  and  C_10 
REMARK    6  A    between atoms: N_15  and  C_14 
REMARK    7  A    between atoms: N_20  and  C_19 
REMARK       I    between atoms: C_22  and  N_20 
ROOT
ATOM      1  C   LIG d   1      -4.781  92.538 118.508  0.00  0.00     0.161 C 
ATOM      2  C   LIG d   1      -4.697  93.568 119.460  0.00  0.00     0.016 C 
ATOM      3  C   LIG d   1      -5.759  94.459 119.739  0.00  0.00     0.038 C 
ATOM      4  C   LIG d   1      -7.037  94.283 119.189  0.00  0.00     0.028 C 
ATOM      5  C   LIG d   1      -7.025  93.565 117.844  0.00  0.00    -0.047 C 
ATOM      6  C   LIG d   1      -6.204  92.262 117.979  0.00  0.00     0.091 C 
ENDROOT
BRANCH   1   7
ATOM      7  O   LIG d   1      -4.202  91.331 119.042  0.00  0.00    -0.368 OA
BRANCH   7   8
ATOM      8  C   LIG d   1      -2.977  90.880 118.413  0.00  0.00     0.119 C 
BRANCH   8   9
ATOM      9  C   LIG d   1      -3.172  89.401 118.028  0.00  0.00     0.028 C 
ATOM     10  C   LIG d   1      -1.983  88.522 118.453  0.00  0.00     0.006 C 
ENDBRANCH   8   9
BRANCH   8  11
ATOM     11  C   LIG d   1      -1.806  90.891 119.401  0.00  0.00     0.028 C 
ATOM     12  C   LIG d   1      -1.207  92.292 119.599  0.00  0.00     0.006 C 
ENDBRANCH   8  11
ENDBRANCH   7   8
ENDBRANCH   1   7
BRANCH   6  13
ATOM     13  N   LIG d   1      -6.071  91.540 116.687  0.00  0.00    -0.311 N 
ATOM     14  C   LIG d   1      -6.920  90.596 116.283  0.00  0.00     0.210 C 
ATOM     15  C   LIG d   1      -6.588  89.964 114.928  0.00  0.00     0.109 C 
ATOM     16  O   LIG d   1      -7.934  90.245 116.904  0.00  0.00    -0.276 OA
ATOM     17  H   LIG d   1      -5.293  91.784 116.106  0.00  0.00     0.149 HD
ENDBRANCH   6  13
BRANCH   5  18
ATOM     18  N   LIG d   1      -8.427  93.326 117.453  0.00  0.00     0.381 N 
ATOM     19  H   LIG d   1      -9.000  94.084 117.768  0.00  0.00    -0.090 HD
ATOM     20  H   LIG d   1      -8.749  92.483 117.894  0.00  0.00    -0.090 HD
ATOM     21  H   LIG d   1      -8.495  93.239 116.463  0.00  0.00    -0.090 HD
ENDBRANCH   5  18
BRANCH   3  22
ATOM     22  C   LIG d   1      -5.535  95.563 120.547  0.00  0.00     0.382 C 
ATOM     23  O   LIG d   1      -6.490  96.315 120.859  0.00  0.00    -0.241 OA
ATOM     24  O   LIG d   1      -4.384  95.843 120.930  0.00  0.00    -0.241 OA
ENDBRANCH   3  22
TORSDOF 7
ENDMDL
MODEL 5
REMARK VINA RESULT:      -5.1      1.915      2.676
REMARK  7 active torsions:
REMARK  status: ('A' for Active; 'I' for Inactive)
REMARK    1  A    between atoms: C_2  and  C_3 
REMARK    2  A    between atoms: C_3  and  O_6 
REMARK    3  A    between atoms: C_3  and  C_4 
REMARK    4  A    between atoms: C_7  and  O_6 
REMARK    5  A    between atoms: C_9  and  C_10 
REMARK    6  A    between atoms: N_15  and  C_14 
REMARK    7  A    between atoms: N_20  and  C_19 
REMARK       I    between atoms: C_22  and  N_20 
ROOT
ATOM      1  C   LIG d   1      -4.823  90.887 117.853  0.00  0.00     0.161 C 
ATOM      2  C   LIG d   1      -5.640  90.257 116.900  0.00  0.00     0.016 C 
ATOM      3  C   LIG d   1      -6.767  90.875 116.310  0.00  0.00     0.038 C 
ATOM      4  C   LIG d   1      -7.067  92.228 116.524  0.00  0.00     0.028 C 
ATOM      5  C   LIG d   1      -6.566  92.755 117.865  0.00  0.00    -0.047 C 
ATOM      6  C   LIG d   1      -5.069  92.402 118.015  0.00  0.00     0.091 C 
ENDROOT
BRANCH   1   7
ATOM      7  O   LIG d   1      -3.436  90.635 117.552  0.00  0.00    -0.368 OA
BRANCH   7   8
ATOM      8  C   LIG d   1      -2.666  89.986 118.593  0.00  0.00     0.119 C 
BRANCH   8   9
ATOM      9  C   LIG d   1      -1.224  90.523 118.505  0.00  0.00     0.028 C 
ATOM     10  C   LIG d   1      -0.448  89.931 117.316  0.00  0.00     0.006 C 
ENDBRANCH   8   9
BRANCH   8  11
ATOM     11  C   LIG d   1      -2.552  88.479 118.345  0.00  0.00     0.028 C 
ATOM     12  C   LIG d   1      -2.163  87.695 119.608  0.00  0.00     0.006 C 
ENDBRANCH   8  11
ENDBRANCH   7   8
ENDBRANCH   1   7
BRANCH   6  13
ATOM     13  N   LIG d   1      -4.521  92.807 119.336  0.00  0.00    -0.311 N 
ATOM     14  C   LIG d   1      -3.399  93.510 119.480  0.00  0.00     0.210 C 
ATOM     15  C   LIG d   1      -3.002  93.804 120.930  0.00  0.00     0.109 C 
ATOM     16  O   LIG d   1      -2.712  93.945 118.543  0.00  0.00    -0.276 OA
ATOM     17  H   LIG d   1      -5.033  92.523 120.149  0.00  0.00     0.149 HD
ENDBRANCH   6  13
BRANCH   5  18
ATOM     18  N   LIG d   1      -6.824  94.207 117.897  0.00  0.00     0.381 N 
ATOM     19  H   LIG d   1      -6.051  94.679 118.322  0.00  0.00    -0.090 HD
ATOM     20  H   LIG d   1      -7.643  94.380 118.453  0.00  0.00    -0.090 HD
ATOM     21  H   LIG d   1      -6.963  94.550 116.972  0.00  0.00    -0.090 HD
ENDBRANCH   5  18
BRANCH   3  22
ATOM     22  C   LIG d   1      -7.631  90.124 115.527  0.00  0.00     0.382 C 
ATOM     23  O   LIG d   1      -8.358  89.250 116.057  0.00  0.00    -0.241 OA
ATOM     24  O   LIG d   1      -7.660  90.280 114.292  0.00  0.00    -0.241 OA
ENDBRANCH   3  22
TORSDOF 7
ENDMDL
MODEL 6
REMARK VINA RESULT:      -5.0      2.044      3.386
REMARK  7 active torsions:
REMARK  status: ('A' for Active; 'I' for Inactive)
REMARK    1  A    between atoms: C_2  and  C_3 
REMARK    2  A    between atoms: C_3  and  O_6 
REMARK    3  A    between atoms: C_3  and  C_4 
REMARK    4  A    between atoms: C_7  and  O_6 
REMARK    5  A    between atoms: C_9  and  C_10 
REMARK    6  A    between atoms: N_15  and  C_14 
REMARK    7  A    between atoms: N_20  and  C_19 
REMARK       I    between atoms: C_22  and  N_20 
ROOT
ATOM      1  C   LIG d   1      -5.532  92.573 120.109  0.00  0.00     0.161 C 
ATOM      2  C   LIG d   1      -4.501  91.750 119.626  0.00  0.00     0.016 C 
ATOM      3  C   LIG d   1      -4.506  91.172 118.336  0.00  0.00     0.038 C 
ATOM      4  C   LIG d   1      -5.478  91.502 117.379  0.00  0.00     0.028 C 
ATOM      5  C   LIG d   1      -6.808  91.931 117.990  0.00  0.00    -0.047 C 
ATOM      6  C   LIG d   1      -6.545  93.034 119.040  0.00  0.00     0.091 C 
ENDROOT
BRANCH   1   7
ATOM      7  O   LIG d   1      -4.969  93.712 120.790  0.00  0.00    -0.368 OA
BRANCH   7   8
ATOM      8  C   LIG d   1      -4.611  94.841 119.956  0.00  0.00     0.119 C 
BRANCH   8   9
ATOM      9  C   LIG d   1      -3.086  95.029 120.061  0.00  0.00     0.028 C 
ATOM     10  C   LIG d   1      -2.352  94.610 118.776  0.00  0.00     0.006 C 
ENDBRANCH   8   9
BRANCH   8  11
ATOM     11  C   LIG d   1      -5.218  96.142 120.489  0.00  0.00     0.028 C 
ATOM     12  C   LIG d   1      -5.814  97.021 119.378  0.00  0.00     0.006 C 
ENDBRANCH   8  11
ENDBRANCH   7   8
ENDBRANCH   1   7
BRANCH   6  13
ATOM     13  N   LIG d   1      -7.785  93.451 119.746  0.00  0.00    -0.311 N 
ATOM     14  C   LIG d   1      -8.596  94.408 119.300  0.00  0.00     0.210 C 
ATOM     15  C   LIG d   1      -9.809  94.696 120.191  0.00  0.00     0.109 C 
ATOM     16  O   LIG d   1      -8.444  95.023 118.234  0.00  0.00    -0.276 OA
ATOM     17  H   LIG d   1      -8.001  92.982 120.604  0.00  0.00     0.149 HD
ENDBRANCH   6  13
BRANCH   5  18
ATOM     18  N   LIG d   1      -7.681  92.377 116.888  0.00  0.00     0.381 N 
ATOM     19  H   LIG d   1      -7.133  92.543 116.068  0.00  0.00    -0.090 HD
ATOM     20  H   LIG d   1      -8.123  93.240 117.153  0.00  0.00    -0.090 HD
ATOM     21  H   LIG d   1      -8.373  91.685 116.700  0.00  0.00    -0.090 HD
ENDBRANCH   5  18
BRANCH   3  22
ATOM     22  C   LIG d   1      -3.553  90.220 118.005  0.00  0.00     0.382 C 
ATOM     23  O   LIG d   1      -3.898  89.162 117.426  0.00  0.00    -0.241 OA
ATOM     24  O   LIG d   1      -2.359  90.387 118.317  0.00  0.00    -0.241 OA
ENDBRANCH   3  22
TORSDOF 7
ENDMDL
MODEL 7
REMARK VINA RESULT:      -4.8      1.670      4.756
REMARK  7 active torsions:
REMARK  status: ('A' for Active; 'I' for Inactive)
REMARK    1  A    between atoms: C_2  and  C_3 
REMARK    2  A    between atoms: C_3  and  O_6 
REMARK    3  A    between atoms: C_3  and  C_4 
REMARK    4  A    between atoms: C_7  and  O_6 
REMARK    5  A    between atoms: C_9  and  C_10 
REMARK    6  A    between atoms: N_15  and  C_14 
REMARK    7  A    between atoms: N_20  and  C_19 
REMARK       I    between atoms: C_22  and  N_20 
ROOT
ATOM      1  C   LIG d   1      -4.896  92.499 119.020  0.00  0.00     0.161 C 
ATOM      2  C   LIG d   1      -5.023  93.608 119.872  0.00  0.00     0.016 C 
ATOM      3  C   LIG d   1      -6.132  94.485 119.848  0.00  0.00     0.038 C 
ATOM      4  C   LIG d   1      -7.268  94.222 119.067  0.00  0.00     0.028 C 
ATOM      5  C   LIG d   1      -6.968  93.393 117.823  0.00  0.00    -0.047 C 
ATOM      6  C   LIG d   1      -6.175  92.133 118.238  0.00  0.00     0.091 C 
ENDROOT
BRANCH   1   7
ATOM      7  O   LIG d   1      -4.422  91.360 119.767  0.00  0.00    -0.368 OA
BRANCH   7   8
ATOM      8  C   LIG d   1      -2.990  91.139 119.753  0.00  0.00     0.119 C 
BRANCH   8   9
ATOM      9  C   LIG d   1      -2.416  91.907 118.547  0.00  0.00     0.028 C 
ATOM     10  C   LIG d   1      -1.115  92.653 118.891  0.00  0.00     0.006 C 
ENDBRANCH   8   9
BRANCH   8  11
ATOM     11  C   LIG d   1      -2.656  89.667 119.493  0.00  0.00     0.028 C 
ATOM     12  C   LIG d   1      -2.979  89.228 118.056  0.00  0.00     0.006 C 
ENDBRANCH   8  11
ENDBRANCH   7   8
ENDBRANCH   1   7
BRANCH   6  13
ATOM     13  N   LIG d   1      -5.768  91.308 117.071  0.00  0.00    -0.311 N 
ATOM     14  C   LIG d   1      -6.593  90.473 116.440  0.00  0.00     0.210 C 
ATOM     15  C   LIG d   1      -5.966  89.704 115.274  0.00  0.00     0.109 C 
ATOM     16  O   LIG d   1      -7.792  90.321 116.716  0.00  0.00    -0.276 OA
ATOM     17  H   LIG d   1      -4.820  91.393 116.761  0.00  0.00     0.149 HD
ENDBRANCH   6  13
BRANCH   5  18
ATOM     18  N   LIG d   1      -8.257  93.078 117.177  0.00  0.00     0.381 N 
ATOM     19  H   LIG d   1      -8.591  93.879 116.680  0.00  0.00    -0.090 HD
ATOM     20  H   LIG d   1      -8.928  92.844 117.887  0.00  0.00    -0.090 HD
ATOM     21  H   LIG d   1      -8.145  92.311 116.550  0.00  0.00    -0.090 HD
ENDBRANCH   5  18
BRANCH   3  22
ATOM     22  C   LIG d   1      -6.095  95.660 120.582  0.00  0.00     0.382 C 
ATOM     23  O   LIG d   1      -7.164  96.236 120.898  0.00  0.00    -0.241 OA
ATOM     24  O   LIG d   1      -5.005  96.176 120.894  0.00  0.00    -0.241 OA
ENDBRANCH   3  22
TORSDOF 7
ENDMDL
MODEL 8
REMARK VINA RESULT:      -4.6      2.792      6.327
REMARK  7 active torsions:
REMARK  status: ('A' for Active; 'I' for Inactive)
REMARK    1  A    between atoms: C_2  and  C_3 
REMARK    2  A    between atoms: C_3  and  O_6 
REMARK    3  A    between atoms: C_3  and  C_4 
REMARK    4  A    between atoms: C_7  and  O_6 
REMARK    5  A    between atoms: C_9  and  C_10 
REMARK    6  A    between atoms: N_15  and  C_14 
REMARK    7  A    between atoms: N_20  and  C_19 
REMARK       I    between atoms: C_22  and  N_20 
ROOT
ATOM      1  C   LIG d   1      -3.888  92.294 119.627  0.00  0.00     0.161 C 
ATOM      2  C   LIG d   1      -3.883  93.698 119.602  0.00  0.00     0.016 C 
ATOM      3  C   LIG d   1      -2.778  94.465 119.167  0.00  0.00     0.038 C 
ATOM      4  C   LIG d   1      -1.649  93.872 118.581  0.00  0.00     0.028 C 
ATOM      5  C   LIG d   1      -1.403  92.442 119.050  0.00  0.00    -0.047 C 
ATOM      6  C   LIG d   1      -2.708  91.629 118.887  0.00  0.00     0.091 C 
ENDROOT
BRANCH   1   7
ATOM      7  O   LIG d   1      -5.142  91.800 119.114  0.00  0.00    -0.368 OA
BRANCH   7   8
ATOM      8  C   LIG d   1      -5.636  92.441 117.912  0.00  0.00     0.119 C 
BRANCH   8   9
ATOM      9  C   LIG d   1      -7.102  92.839 118.169  0.00  0.00     0.028 C 
ATOM     10  C   LIG d   1      -7.269  94.351 118.395  0.00  0.00     0.006 C 
ENDBRANCH   8   9
BRANCH   8  11
ATOM     11  C   LIG d   1      -5.681  91.461 116.737  0.00  0.00     0.028 C 
ATOM     12  C   LIG d   1      -6.756  91.823 115.700  0.00  0.00     0.006 C 
ENDBRANCH   8  11
ENDBRANCH   7   8
ENDBRANCH   1   7
BRANCH   6  13
ATOM     13  N   LIG d   1      -2.579  90.241 119.402  0.00  0.00    -0.311 N 
ATOM     14  C   LIG d   1      -2.965  89.166 118.716  0.00  0.00     0.210 C 
ATOM     15  C   LIG d   1      -2.761  87.831 119.438  0.00  0.00     0.109 C 
ATOM     16  O   LIG d   1      -3.426  89.190 117.565  0.00  0.00    -0.276 OA
ATOM     17  H   LIG d   1      -2.185  90.128 120.315  0.00  0.00     0.149 HD
ENDBRANCH   6  13
BRANCH   5  18
ATOM     18  N   LIG d   1      -0.282  91.901 118.260  0.00  0.00     0.381 N 
ATOM     19  H   LIG d   1      -0.580  91.085 117.763  0.00  0.00    -0.090 HD
ATOM     20  H   LIG d   1       0.459  91.636 118.885  0.00  0.00    -0.090 HD
ATOM     21  H   LIG d   1       0.046  92.588 117.617  0.00  0.00    -0.090 HD
ENDBRANCH   5  18
BRANCH   3  22
ATOM     22  C   LIG d   1      -2.778  95.839 119.354  0.00  0.00     0.382 C 
ATOM     23  O   LIG d   1      -3.815  96.416 119.760  0.00  0.00    -0.241 OA
ATOM     24  O   LIG d   1      -1.769  96.514 119.078  0.00  0.00    -0.241 OA
ENDBRANCH   3  22
TORSDOF 7
ENDMDL
MODEL 9
REMARK VINA RESULT:      -4.5      2.396      4.294
REMARK  7 active torsions:
REMARK  status: ('A' for Active; 'I' for Inactive)
REMARK    1  A    between atoms: C_2  and  C_3 
REMARK    2  A    between atoms: C_3  and  O_6 
REMARK    3  A    between atoms: C_3  and  C_4 
REMARK    4  A    between atoms: C_7  and  O_6 
REMARK    5  A    between atoms: C_9  and  C_10 
REMARK    6  A    between atoms: N_15  and  C_14 
REMARK    7  A    between atoms: N_20  and  C_19 
REMARK       I    between atoms: C_22  and  N_20 
ROOT
ATOM      1  C   LIG d   1      -3.406  90.565 118.286  0.00  0.00     0.161 C 
ATOM      2  C   LIG d   1      -4.636  90.374 117.635  0.00  0.00     0.016 C 
ATOM      3  C   LIG d   1      -5.615  91.387 117.507  0.00  0.00     0.038 C 
ATOM      4  C   LIG d   1      -5.364  92.712 117.894  0.00  0.00     0.028 C 
ATOM      5  C   LIG d   1      -4.333  92.833 119.010  0.00  0.00    -0.047 C 
ATOM      6  C   LIG d   1      -3.070  92.034 118.615  0.00  0.00     0.091 C 
ENDROOT
BRANCH   1   7
ATOM      7  O   LIG d   1      -2.346  89.970 117.511  0.00  0.00    -0.368 OA
BRANCH   7   8
ATOM      8  C   LIG d   1      -1.879  88.674 117.961  0.00  0.00     0.119 C 
BRANCH   8   9
ATOM      9  C   LIG d   1      -2.023  88.636 119.494  0.00  0.00     0.028 C 
ATOM     10  C   LIG d   1      -2.408  87.240 120.013  0.00  0.00     0.006 C 
ENDBRANCH   8   9
BRANCH   8  11
ATOM     11  C   LIG d   1      -0.381  88.497 117.690  0.00  0.00     0.028 C 
ATOM     12  C   LIG d   1       0.477  89.584 118.356  0.00  0.00     0.006 C 
ENDBRANCH   8  11
ENDBRANCH   7   8
ENDBRANCH   1   7
BRANCH   6  13
ATOM     13  N   LIG d   1      -2.043  92.031 119.690  0.00  0.00    -0.311 N 
ATOM     14  C   LIG d   1      -1.044  92.909 119.752  0.00  0.00     0.210 C 
ATOM     15  C   LIG d   1      -0.084  92.715 120.930  0.00  0.00     0.109 C 
ATOM     16  O   LIG d   1      -0.880  93.851 118.961  0.00  0.00    -0.276 OA
ATOM     17  H   LIG d   1      -2.118  91.320 120.390  0.00  0.00     0.149 HD
ENDBRANCH   6  13
BRANCH   5  18
ATOM     18  N   LIG d   1      -4.067  94.269 119.218  0.00  0.00     0.381 N 
ATOM     19  H   LIG d   1      -4.846  94.808 118.894  0.00  0.00    -0.090 HD
ATOM     20  H   LIG d   1      -3.259  94.531 118.682  0.00  0.00    -0.090 HD
ATOM     21  H   LIG d   1      -3.907  94.450 120.184  0.00  0.00    -0.090 HD
ENDBRANCH   5  18
BRANCH   3  22
ATOM     22  C   LIG d   1      -6.875  91.068 117.025  0.00  0.00     0.382 C 
ATOM     23  O   LIG d   1      -7.044  90.020 116.357  0.00  0.00    -0.241 OA
ATOM     24  O   LIG d   1      -7.836  91.838 117.211  0.00  0.00    -0.241 OA
ENDBRANCH   3  22
TORSDOF 7
ENDMDL
