MODEL 1
REMARK VINA RESULT:      -5.5      0.000      0.000
REMARK  7 active torsions:
REMARK  status: ('A' for Active; 'I' for Inactive)
REMARK    1  A    between atoms: C_2  and  C_3 
REMARK    2  A    between atoms: C_3  and  O_6 
REMARK    3  A    between atoms: C_3  and  C_4 
REMARK    4  A    between atoms: C_7  and  O_6 
REMARK    5  A    between atoms: C_9  and  C_10 
REMARK    6  A    between atoms: N_15  and  C_14 
REMARK    7  A    between atoms: N_20  and  C_19 
REMARK       I    between atoms: C_22  and  N_20 
ROOT
ATOM      1  C   LIG d   1      -4.670  92.607 117.723  0.00  0.00     0.161 C 
ATOM      2  C   LIG d   1      -4.810  91.590 116.764  0.00  0.00     0.016 C 
ATOM      3  C   LIG d   1      -6.001  91.365 116.036  0.00  0.00     0.038 C 
ATOM      4  C   LIG d   1      -7.092  92.243 116.110  0.00  0.00     0.028 C 
ATOM      5  C   LIG d   1      -7.180  92.989 117.437  0.00  0.00    -0.047 C 
ATOM      6  C   LIG d   1      -5.813  93.644 117.737  0.00  0.00     0.091 C 
ENDROOT
BRANCH   1   7
ATOM      7  O   LIG d   1      -3.399  93.265 117.556  0.00  0.00    -0.368 OA
BRANCH   7   8
ATOM      8  C   LIG d   1      -2.277  92.672 118.257  0.00  0.00     0.119 C 
BRANCH   8   9
ATOM      9  C   LIG d   1      -2.493  92.913 119.763  0.00  0.00     0.028 C 
ATOM     10  C   LIG d   1      -2.307  94.388 120.154  0.00  0.00     0.006 C 
ENDBRANCH   8   9
BRANCH   8  11
ATOM     11  C   LIG d   1      -0.966  93.386 117.916  0.00  0.00     0.028 C 
ATOM     12  C   LIG d   1       0.171  92.412 117.572  0.00  0.00     0.006 C 
ENDBRANCH   8  11
ENDBRANCH   7   8
ENDBRANCH   1   7
BRANCH   6  13
ATOM     13  N   LIG d   1      -5.787  94.323 119.058  0.00  0.00    -0.311 N 
ATOM     14  C   LIG d   1      -6.084  95.611 119.227  0.00  0.00     0.210 C 
ATOM     15  C   LIG d   1      -5.976  96.116 120.669  0.00  0.00     0.109 C 
ATOM     16  O   LIG d   1      -6.458  96.374 118.323  0.00  0.00    -0.276 OA
ATOM     17  H   LIG d   1      -5.525  93.770 119.851  0.00  0.00     0.149 HD
ENDBRANCH   6  13
BRANCH   5  18
ATOM     18  N   LIG d   1      -8.278  93.968 117.326  0.00  0.00     0.381 N 
ATOM     19  H   LIG d   1      -8.961  93.793 118.037  0.00  0.00    -0.090 HD
ATOM     20  H   LIG d   1      -8.721  93.860 116.431  0.00  0.00    -0.090 HD
ATOM     21  H   LIG d   1      -7.921  94.893 117.419  0.00  0.00    -0.090 HD
ENDBRANCH   5  18
BRANCH   3  22
ATOM     22  C   LIG d   1      -6.122  90.228 115.252  0.00  0.00     0.382 C 
ATOM     23  O   LIG d   1      -7.222  89.951 114.715  0.00  0.00    -0.241 OA
ATOM     24  O   LIG d   1      -5.159  89.451 115.112  0.00  0.00    -0.241 OA
ENDBRANCH   3  22
TORSDOF 7
ENDMDL
MODEL 2
REMARK VINA RESULT:      -5.5      1.969      2.504
REMARK  7 active torsions:
REMARK  status: ('A' for Active; 'I' for Inactive)
REMARK    1  A    between atoms: C_2  and  C_3 
REMARK    2  A    between atoms: C_3  and  O_6 
REMARK    3  A    between atoms: C_3  and  C_4 
REMARK    4  A    between atoms: C_7  and  O_6 
REMARK    5  A    between atoms: C_9  and  C_10 
REMARK    6  A    between atoms: N_15  and  C_14 
REMARK    7  A    between atoms: N_20  and  C_19 
REMARK       I    between atoms: C_22  and  N_20 
ROOT
ATOM      1  C   LIG d   1      -4.753  91.655 117.861  0.00  0.00     0.161 C 
ATOM      2  C   LIG d   1      -5.492  90.902 116.934  0.00  0.00     0.016 C 
ATOM      3  C   LIG d   1      -6.578  91.427 116.196  0.00  0.00     0.038 C 
ATOM      4  C   LIG d   1      -6.904  92.791 116.225  0.00  0.00     0.028 C 
ATOM      5  C   LIG d   1      -6.508  93.481 117.525  0.00  0.00    -0.047 C 
ATOM      6  C   LIG d   1      -5.023  93.173 117.824  0.00  0.00     0.091 C 
ENDROOT
BRANCH   1   7
ATOM      7  O   LIG d   1      -3.346  91.392 117.692  0.00  0.00    -0.368 OA
BRANCH   7   8
ATOM      8  C   LIG d   1      -2.726  90.562 118.706  0.00  0.00     0.119 C 
BRANCH   8   9
ATOM      9  C   LIG d   1      -1.397  91.233 119.104  0.00  0.00     0.028 C 
ATOM     10  C   LIG d   1      -1.315  91.526 120.611  0.00  0.00     0.006 C 
ENDBRANCH   8   9
BRANCH   8  11
ATOM     11  C   LIG d   1      -2.336  89.192 118.143  0.00  0.00     0.028 C 
ATOM     12  C   LIG d   1      -2.427  88.070 119.190  0.00  0.00     0.006 C 
ENDBRANCH   8  11
ENDBRANCH   7   8
ENDBRANCH   1   7
BRANCH   6  13
ATOM     13  N   LIG d   1      -4.577  93.741 119.123  0.00  0.00    -0.311 N 
ATOM     14  C   LIG d   1      -3.428  94.398 119.280  0.00  0.00     0.210 C 
ATOM     15  C   LIG d   1      -3.151  94.883 120.707  0.00  0.00     0.109 C 
ATOM     16  O   LIG d   1      -2.628  94.652 118.368  0.00  0.00    -0.276 OA
ATOM     17  H   LIG d   1      -5.180  93.608 119.911  0.00  0.00     0.149 HD
ENDBRANCH   6  13
BRANCH   5  18
ATOM     18  N   LIG d   1      -6.779  94.922 117.366  0.00  0.00     0.381 N 
ATOM     19  H   LIG d   1      -7.533  95.193 117.965  0.00  0.00    -0.090 HD
ATOM     20  H   LIG d   1      -7.052  95.098 116.415  0.00  0.00    -0.090 HD
ATOM     21  H   LIG d   1      -5.963  95.449 117.588  0.00  0.00    -0.090 HD
ENDBRANCH   5  18
BRANCH   3  22
ATOM     22  C   LIG d   1      -7.376  90.575 115.448  0.00  0.00     0.382 C 
ATOM     23  O   LIG d   1      -7.724  90.899 114.287  0.00  0.00    -0.241 OA
ATOM     24  O   LIG d   1      -7.789  89.506 115.935  0.00  0.00    -0.241 OA
ENDBRANCH   3  22
TORSDOF 7
ENDMDL
MODEL 3
REMARK VINA RESULT:      -5.5      2.126      4.542
REMARK  7 active torsions:
REMARK  status: ('A' for Active; 'I' for Inactive)
REMARK    1  A    between atoms: C_2  and  C_3 
REMARK    2  A    between atoms: C_3  and  O_6 
REMARK    3  A    between atoms: C_3  and  C_4 
REMARK    4  A    between atoms: C_7  and  O_6 
REMARK    5  A    between atoms: C_9  and  C_10 
REMARK    6  A    between atoms: N_15  and  C_14 
REMARK    7  A    between atoms: N_20  and  C_19 
REMARK       I    between atoms: C_22  and  N_20 
ROOT
ATOM      1  C   LIG d   1      -6.390  93.661 117.598  0.00  0.00     0.161 C 
ATOM      2  C   LIG d   1      -7.144  92.682 116.930  0.00  0.00     0.016 C 
ATOM      3  C   LIG d   1      -6.601  91.458 116.477  0.00  0.00     0.038 C 
ATOM      4  C   LIG d   1      -5.294  91.062 116.798  0.00  0.00     0.028 C 
ATOM      5  C   LIG d   1      -4.347  92.234 117.035  0.00  0.00    -0.047 C 
ATOM      6  C   LIG d   1      -4.991  93.200 118.056  0.00  0.00     0.091 C 
ENDROOT
BRANCH   1   7
ATOM      7  O   LIG d   1      -7.140  94.174 118.718  0.00  0.00    -0.368 OA
BRANCH   7   8
ATOM      8  C   LIG d   1      -8.190  95.121 118.403  0.00  0.00     0.119 C 
BRANCH   8   9
ATOM      9  C   LIG d   1      -7.521  96.487 118.155  0.00  0.00     0.028 C 
ATOM     10  C   LIG d   1      -6.605  96.911 119.316  0.00  0.00     0.006 C 
ENDBRANCH   8   9
BRANCH   8  11
ATOM     11  C   LIG d   1      -9.123  95.336 119.597  0.00  0.00     0.028 C 
ATOM     12  C   LIG d   1      -8.931  94.284 120.701  0.00  0.00     0.006 C 
ENDBRANCH   8  11
ENDBRANCH   7   8
ENDBRANCH   1   7
BRANCH   6  13
ATOM     13  N   LIG d   1      -4.168  94.417 118.281  0.00  0.00    -0.311 N 
ATOM     14  C   LIG d   1      -3.270  94.524 119.259  0.00  0.00     0.210 C 
ATOM     15  C   LIG d   1      -2.545  95.872 119.326  0.00  0.00     0.109 C 
ATOM     16  O   LIG d   1      -2.982  93.619 120.057  0.00  0.00    -0.276 OA
ATOM     17  H   LIG d   1      -4.314  95.188 117.660  0.00  0.00     0.149 HD
ENDBRANCH   6  13
BRANCH   5  18
ATOM     18  N   LIG d   1      -3.059  91.681 117.495  0.00  0.00     0.381 N 
ATOM     19  H   LIG d   1      -3.010  91.723 118.493  0.00  0.00    -0.090 HD
ATOM     20  H   LIG d   1      -2.313  92.239 117.118  0.00  0.00    -0.090 HD
ATOM     21  H   LIG d   1      -2.965  90.737 117.190  0.00  0.00    -0.090 HD
ENDBRANCH   5  18
BRANCH   3  22
ATOM     22  C   LIG d   1      -7.357  90.632 115.659  0.00  0.00     0.382 C 
ATOM     23  O   LIG d   1      -7.787  89.538 116.098  0.00  0.00    -0.241 OA
ATOM     24  O   LIG d   1      -7.576  90.945 114.473  0.00  0.00    -0.241 OA
ENDBRANCH   3  22
TORSDOF 7
ENDMDL
MODEL 4
REMARK VINA RESULT:      -5.0      2.388      4.879
REMARK  7 active torsions:
REMARK  status: ('A' for Active; 'I' for Inactive)
REMARK    1  A    between atoms: C_2  and  C_3 
REMARK    2  A    between atoms: C_3  and  O_6 
REMARK    3  A    between atoms: C_3  and  C_4 
REMARK    4  A    between atoms: C_7  and  O_6 
REMARK    5  A    between atoms: C_9  and  C_10 
REMARK    6  A    between atoms: N_15  and  C_14 
REMARK    7  A    between atoms: N_20  and  C_19 
REMARK       I    between atoms: C_22  and  N_20 
ROOT
ATOM      1  C   LIG d   1      -4.317  91.692 117.268  0.00  0.00     0.161 C 
ATOM      2  C   LIG d   1      -3.531  92.674 117.893  0.00  0.00     0.016 C 
ATOM      3  C   LIG d   1      -4.073  93.810 118.538  0.00  0.00     0.038 C 
ATOM      4  C   LIG d   1      -5.453  93.963 118.733  0.00  0.00     0.028 C 
ATOM      5  C   LIG d   1      -6.297  93.254 117.679  0.00  0.00    -0.047 C 
ATOM      6  C   LIG d   1      -5.828  91.785 117.567  0.00  0.00     0.091 C 
ENDROOT
BRANCH   1   7
ATOM      7  O   LIG d   1      -3.820  90.381 117.604  0.00  0.00    -0.368 OA
BRANCH   7   8
ATOM      8  C   LIG d   1      -2.537  90.339 118.277  0.00  0.00     0.119 C 
BRANCH   8   9
ATOM      9  C   LIG d   1      -1.572  89.535 117.384  0.00  0.00     0.028 C 
ATOM     10  C   LIG d   1      -0.235  90.262 117.163  0.00  0.00     0.006 C 
ENDBRANCH   8   9
BRANCH   8  11
ATOM     11  C   LIG d   1      -2.623  89.555 119.590  0.00  0.00     0.028 C 
ATOM     12  C   LIG d   1      -2.416  88.045 119.397  0.00  0.00     0.006 C 
ENDBRANCH   8  11
ENDBRANCH   7   8
ENDBRANCH   1   7
BRANCH   6  13
ATOM     13  N   LIG d   1      -6.545  91.042 116.498  0.00  0.00    -0.311 N 
ATOM     14  C   LIG d   1      -6.630  91.468 115.239  0.00  0.00     0.210 C 
ATOM     15  C   LIG d   1      -7.432  90.560 114.302  0.00  0.00     0.109 C 
ATOM     16  O   LIG d   1      -6.091  92.496 114.803  0.00  0.00    -0.276 OA
ATOM     17  H   LIG d   1      -6.985  90.181 116.758  0.00  0.00     0.149 HD
ENDBRANCH   6  13
BRANCH   5  18
ATOM     18  N   LIG d   1      -7.711  93.380 118.080  0.00  0.00     0.381 N 
ATOM     19  H   LIG d   1      -8.026  92.522 118.486  0.00  0.00    -0.090 HD
ATOM     20  H   LIG d   1      -8.265  93.565 117.263  0.00  0.00    -0.090 HD
ATOM     21  H   LIG d   1      -7.814  94.124 118.736  0.00  0.00    -0.090 HD
ENDBRANCH   5  18
BRANCH   3  22
ATOM     22  C   LIG d   1      -3.231  94.827 118.961  0.00  0.00     0.382 C 
ATOM     23  O   LIG d   1      -1.992  94.635 119.011  0.00  0.00    -0.241 OA
ATOM     24  O   LIG d   1      -3.698  95.919 119.334  0.00  0.00    -0.241 OA
ENDBRANCH   3  22
TORSDOF 7
ENDMDL
MODEL 5
REMARK VINA RESULT:      -4.9      2.228      4.869
REMARK  7 active torsions:
REMARK  status: ('A' for Active; 'I' for Inactive)
REMARK    1  A    between atoms: C_2  and  C_3 
REMARK    2  A    between atoms: C_3  and  O_6 
REMARK    3  A    between atoms: C_3  and  C_4 
REMARK    4  A    between atoms: C_7  and  O_6 
REMARK    5  A    between atoms: C_9  and  C_10 
REMARK    6  A    between atoms: N_15  and  C_14 
REMARK    7  A    between atoms: N_20  and  C_19 
REMARK       I    between atoms: C_22  and  N_20 
ROOT
ATOM      1  C   LIG d   1      -4.833  91.916 117.449  0.00  0.00     0.161 C 
ATOM      2  C   LIG d   1      -3.962  90.820 117.333  0.00  0.00     0.016 C 
ATOM      3  C   LIG d   1      -2.685  90.773 117.938  0.00  0.00     0.038 C 
ATOM      4  C   LIG d   1      -2.251  91.764 118.831  0.00  0.00     0.028 C 
ATOM      5  C   LIG d   1      -2.888  93.127 118.579  0.00  0.00    -0.047 C 
ATOM      6  C   LIG d   1      -4.423  92.959 118.510  0.00  0.00     0.091 C 
ENDROOT
BRANCH   1   7
ATOM      7  O   LIG d   1      -6.174  91.450 117.696  0.00  0.00    -0.368 OA
BRANCH   7   8
ATOM      8  C   LIG d   1      -7.115  91.608 116.606  0.00  0.00     0.119 C 
BRANCH   8   9
ATOM      9  C   LIG d   1      -7.127  90.289 115.810  0.00  0.00     0.028 C 
ATOM     10  C   LIG d   1      -8.445  89.514 115.977  0.00  0.00     0.006 C 
ENDBRANCH   8   9
BRANCH   8  11
ATOM     11  C   LIG d   1      -6.645  92.677 115.615  0.00  0.00     0.028 C 
ATOM     12  C   LIG d   1      -6.682  92.194 114.157  0.00  0.00     0.006 C 
ENDBRANCH   8  11
ENDBRANCH   7   8
ENDBRANCH   1   7
BRANCH   6  13
ATOM     13  N   LIG d   1      -5.118  94.231 118.182  0.00  0.00    -0.311 N 
ATOM     14  C   LIG d   1      -6.182  94.676 118.848  0.00  0.00     0.210 C 
ATOM     15  C   LIG d   1      -6.758  96.000 118.334  0.00  0.00     0.109 C 
ATOM     16  O   LIG d   1      -6.685  94.118 119.835  0.00  0.00    -0.276 OA
ATOM     17  H   LIG d   1      -4.758  94.763 117.415  0.00  0.00     0.149 HD
ENDBRANCH   6  13
BRANCH   5  18
ATOM     18  N   LIG d   1      -2.454  94.029 119.663  0.00  0.00     0.381 N 
ATOM     19  H   LIG d   1      -2.673  94.975 119.425  0.00  0.00    -0.090 HD
ATOM     20  H   LIG d   1      -1.457  93.953 119.769  0.00  0.00    -0.090 HD
ATOM     21  H   LIG d   1      -2.906  93.780 120.516  0.00  0.00    -0.090 HD
ENDBRANCH   5  18
BRANCH   3  22
ATOM     22  C   LIG d   1      -1.811  89.745 117.620  0.00  0.00     0.382 C 
ATOM     23  O   LIG d   1      -0.659  90.009 117.198  0.00  0.00    -0.241 OA
ATOM     24  O   LIG d   1      -2.174  88.557 117.707  0.00  0.00    -0.241 OA
ENDBRANCH   3  22
TORSDOF 7
ENDMDL
MODEL 6
REMARK VINA RESULT:      -4.9      2.175      4.191
REMARK  7 active torsions:
REMARK  status: ('A' for Active; 'I' for Inactive)
REMARK    1  A    between atoms: C_2  and  C_3 
REMARK    2  A    between atoms: C_3  and  O_6 
REMARK    3  A    between atoms: C_3  and  C_4 
REMARK    4  A    between atoms: C_7  and  O_6 
REMARK    5  A    between atoms: C_9  and  C_10 
REMARK    6  A    between atoms: N_15  and  C_14 
REMARK    7  A    between atoms: N_20  and  C_19 
REMARK       I    between atoms: C_22  and  N_20 
ROOT
ATOM      1  C   LIG d   1      -5.633  92.610 118.177  0.00  0.00     0.161 C 
ATOM      2  C   LIG d   1      -6.421  92.522 117.017  0.00  0.00     0.016 C 
ATOM      3  C   LIG d   1      -6.131  91.648 115.944  0.00  0.00     0.038 C 
ATOM      4  C   LIG d   1      -5.111  90.689 116.024  0.00  0.00     0.028 C 
ATOM      5  C   LIG d   1      -3.979  91.085 116.965  0.00  0.00    -0.047 C 
ATOM      6  C   LIG d   1      -4.580  91.493 118.330  0.00  0.00     0.091 C 
ENDROOT
BRANCH   1   7
ATOM      7  O   LIG d   1      -6.481  92.663 119.341  0.00  0.00    -0.368 OA
BRANCH   7   8
ATOM      8  C   LIG d   1      -6.604  93.956 119.982  0.00  0.00     0.119 C 
BRANCH   8   9
ATOM      9  C   LIG d   1      -8.088  94.368 119.912  0.00  0.00     0.028 C 
ATOM     10  C   LIG d   1      -8.403  95.217 118.669  0.00  0.00     0.006 C 
ENDBRANCH   8   9
BRANCH   8  11
ATOM     11  C   LIG d   1      -5.846  95.037 119.206  0.00  0.00     0.028 C 
ATOM     12  C   LIG d   1      -4.829  95.793 120.076  0.00  0.00     0.006 C 
ENDBRANCH   8  11
ENDBRANCH   7   8
ENDBRANCH   1   7
BRANCH   6  13
ATOM     13  N   LIG d   1      -3.547  91.975 119.283  0.00  0.00    -0.311 N 
ATOM     14  C   LIG d   1      -2.706  92.971 119.010  0.00  0.00     0.210 C 
ATOM     15  C   LIG d   1      -1.706  93.297 120.124  0.00  0.00     0.109 C 
ATOM     16  O   LIG d   1      -2.713  93.636 117.964  0.00  0.00    -0.276 OA
ATOM     17  H   LIG d   1      -3.492  91.512 120.169  0.00  0.00     0.149 HD
ENDBRANCH   6  13
BRANCH   5  18
ATOM     18  N   LIG d   1      -3.055  89.939 117.060  0.00  0.00     0.381 N 
ATOM     19  H   LIG d   1      -2.619  89.929 117.960  0.00  0.00    -0.090 HD
ATOM     20  H   LIG d   1      -2.339  90.041 116.363  0.00  0.00    -0.090 HD
ATOM     21  H   LIG d   1      -3.552  89.088 116.914  0.00  0.00    -0.090 HD
ENDBRANCH   5  18
BRANCH   3  22
ATOM     22  C   LIG d   1      -6.842  91.757 114.758  0.00  0.00     0.382 C 
ATOM     23  O   LIG d   1      -7.731  90.916 114.481  0.00  0.00    -0.241 OA
ATOM     24  O   LIG d   1      -6.574  92.659 113.942  0.00  0.00    -0.241 OA
ENDBRANCH   3  22
TORSDOF 7
ENDMDL
MODEL 7
REMARK VINA RESULT:      -4.9      2.303      5.847
REMARK  7 active torsions:
REMARK  status: ('A' for Active; 'I' for Inactive)
REMARK    1  A    between atoms: C_2  and  C_3 
REMARK    2  A    between atoms: C_3  and  O_6 
REMARK    3  A    between atoms: C_3  and  C_4 
REMARK    4  A    between atoms: C_7  and  O_6 
REMARK    5  A    between atoms: C_9  and  C_10 
REMARK    6  A    between atoms: N_15  and  C_14 
REMARK    7  A    between atoms: N_20  and  C_19 
REMARK       I    between atoms: C_22  and  N_20 
ROOT
ATOM      1  C   LIG d   1      -5.944  93.100 118.193  0.00  0.00     0.161 C 
ATOM      2  C   LIG d   1      -4.859  93.753 118.802  0.00  0.00     0.016 C 
ATOM      3  C   LIG d   1      -3.520  93.315 118.681  0.00  0.00     0.038 C 
ATOM      4  C   LIG d   1      -3.156  92.274 117.813  0.00  0.00     0.028 C 
ATOM      5  C   LIG d   1      -4.275  91.267 117.571  0.00  0.00    -0.047 C 
ATOM      6  C   LIG d   1      -5.554  92.029 117.153  0.00  0.00     0.091 C 
ENDROOT
BRANCH   1   7
ATOM      7  O   LIG d   1      -6.830  94.072 117.604  0.00  0.00    -0.368 OA
BRANCH   7   8
ATOM      8  C   LIG d   1      -7.317  95.110 118.489  0.00  0.00     0.119 C 
BRANCH   8   9
ATOM      9  C   LIG d   1      -8.824  94.868 118.703  0.00  0.00     0.028 C 
ATOM     10  C   LIG d   1      -9.173  94.613 120.178  0.00  0.00     0.006 C 
ENDBRANCH   8   9
BRANCH   8  11
ATOM     11  C   LIG d   1      -7.217  96.492 117.836  0.00  0.00     0.028 C 
ATOM     12  C   LIG d   1      -6.222  97.419 118.551  0.00  0.00     0.006 C 
ENDBRANCH   8  11
ENDBRANCH   7   8
ENDBRANCH   1   7
BRANCH   6  13
ATOM     13  N   LIG d   1      -6.720  91.126 116.978  0.00  0.00    -0.311 N 
ATOM     14  C   LIG d   1      -7.032  90.547 115.820  0.00  0.00     0.210 C 
ATOM     15  C   LIG d   1      -8.287  89.668 115.853  0.00  0.00     0.109 C 
ATOM     16  O   LIG d   1      -6.371  90.652 114.776  0.00  0.00    -0.276 OA
ATOM     17  H   LIG d   1      -7.294  90.960 117.782  0.00  0.00     0.149 HD
ENDBRANCH   6  13
BRANCH   5  18
ATOM     18  N   LIG d   1      -3.806  90.318 116.544  0.00  0.00     0.381 N 
ATOM     19  H   LIG d   1      -3.423  90.820 115.768  0.00  0.00    -0.090 HD
ATOM     20  H   LIG d   1      -4.590  89.781 116.216  0.00  0.00    -0.090 HD
ATOM     21  H   LIG d   1      -3.117  89.711 116.930  0.00  0.00    -0.090 HD
ENDBRANCH   5  18
BRANCH   3  22
ATOM     22  C   LIG d   1      -2.534  93.894 119.464  0.00  0.00     0.382 C 
ATOM     23  O   LIG d   1      -2.162  95.071 119.235  0.00  0.00    -0.241 OA
ATOM     24  O   LIG d   1      -1.979  93.241 120.368  0.00  0.00    -0.241 OA
ENDBRANCH   3  22
TORSDOF 7
ENDMDL
MODEL 8
REMARK VINA RESULT:      -4.8      2.445      4.888
REMARK  7 active torsions:
REMARK  status: ('A' for Active; 'I' for Inactive)
REMARK    1  A    between atoms: C_2  and  C_3 
REMARK    2  A    between atoms: C_3  and  O_6 
REMARK    3  A    between atoms: C_3  and  C_4 
REMARK    4  A    between atoms: C_7  and  O_6 
REMARK    5  A    between atoms: C_9  and  C_10 
REMARK    6  A    between atoms: N_15  and  C_14 
REMARK    7  A    between atoms: N_20  and  C_19 
REMARK       I    between atoms: C_22  and  N_20 
ROOT
ATOM      1  C   LIG d   1      -5.564  93.024 119.704  0.00  0.00     0.161 C 
ATOM      2  C   LIG d   1      -6.940  93.306 119.679  0.00  0.00     0.016 C 
ATOM      3  C   LIG d   1      -7.466  94.588 119.399  0.00  0.00     0.038 C 
ATOM      4  C   LIG d   1      -6.652  95.647 118.973  0.00  0.00     0.028 C 
ATOM      5  C   LIG d   1      -5.214  95.545 119.473  0.00  0.00    -0.047 C 
ATOM      6  C   LIG d   1      -4.664  94.140 119.133  0.00  0.00     0.091 C 
ENDROOT
BRANCH   1   7
ATOM      7  O   LIG d   1      -5.308  91.778 119.026  0.00  0.00    -0.368 OA
BRANCH   7   8
ATOM      8  C   LIG d   1      -5.037  91.870 117.605  0.00  0.00     0.119 C 
BRANCH   8   9
ATOM      9  C   LIG d   1      -6.330  91.486 116.862  0.00  0.00     0.028 C 
ATOM     10  C   LIG d   1      -6.875  92.636 115.999  0.00  0.00     0.006 C 
ENDBRANCH   8   9
BRANCH   8  11
ATOM     11  C   LIG d   1      -3.995  90.836 117.169  0.00  0.00     0.028 C 
ATOM     12  C   LIG d   1      -3.186  90.271 118.347  0.00  0.00     0.006 C 
ENDBRANCH   8  11
ENDBRANCH   7   8
ENDBRANCH   1   7
BRANCH   6  13
ATOM     13  N   LIG d   1      -3.292  93.926 119.662  0.00  0.00    -0.311 N 
ATOM     14  C   LIG d   1      -2.216  93.816 118.884  0.00  0.00     0.210 C 
ATOM     15  C   LIG d   1      -0.900  93.579 119.631  0.00  0.00     0.109 C 
ATOM     16  O   LIG d   1      -2.222  93.925 117.649  0.00  0.00    -0.276 OA
ATOM     17  H   LIG d   1      -3.191  93.858 120.655  0.00  0.00     0.149 HD
ENDBRANCH   6  13
BRANCH   5  18
ATOM     18  N   LIG d   1      -4.445  96.634 118.843  0.00  0.00     0.381 N 
ATOM     19  H   LIG d   1      -5.059  97.220 118.313  0.00  0.00    -0.090 HD
ATOM     20  H   LIG d   1      -3.769  96.235 118.216  0.00  0.00    -0.090 HD
ATOM     21  H   LIG d   1      -3.982  97.173 119.542  0.00  0.00    -0.090 HD
ENDBRANCH   5  18
BRANCH   3  22
ATOM     22  C   LIG d   1      -8.819  94.830 119.583  0.00  0.00     0.382 C 
ATOM     23  O   LIG d   1      -9.659  93.938 119.309  0.00  0.00    -0.241 OA
ATOM     24  O   LIG d   1      -9.214  95.943 119.977  0.00  0.00    -0.241 OA
ENDBRANCH   3  22
TORSDOF 7
ENDMDL
MODEL 9
REMARK VINA RESULT:      -4.8      3.005      4.351
REMARK  7 active torsions:
REMARK  status: ('A' for Active; 'I' for Inactive)
REMARK    1  A    between atoms: C_2  and  C_3 
REMARK    2  A    between atoms: C_3  and  O_6 
REMARK    3  A    between atoms: C_3  and  C_4 
REMARK    4  A    between atoms: C_7  and  O_6 
REMARK    5  A    between atoms: C_9  and  C_10 
REMARK    6  A    between atoms: N_15  and  C_14 
REMARK    7  A    between atoms: N_20  and  C_19 
REMARK       I    between atoms: C_22  and  N_20 
ROOT
ATOM      1  C   LIG d   1      -2.937  90.765 118.008  0.00  0.00     0.161 C 
ATOM      2  C   LIG d   1      -4.075  90.432 117.255  0.00  0.00     0.016 C 
ATOM      3  C   LIG d   1      -5.057  91.374 116.872  0.00  0.00     0.038 C 
ATOM      4  C   LIG d   1      -4.889  92.750 117.088  0.00  0.00     0.028 C 
ATOM      5  C   LIG d   1      -4.001  93.071 118.286  0.00  0.00    -0.047 C 
ATOM      6  C   LIG d   1      -2.680  92.279 118.158  0.00  0.00     0.091 C 
ENDROOT
BRANCH   1   7
ATOM      7  O   LIG d   1      -1.777  90.112 117.454  0.00  0.00    -0.368 OA
BRANCH   7   8
ATOM      8  C   LIG d   1      -1.629  88.705 117.765  0.00  0.00     0.119 C 
BRANCH   8   9
ATOM      9  C   LIG d   1      -1.465  88.582 119.293  0.00  0.00     0.028 C 
ATOM     10  C   LIG d   1      -2.515  87.651 119.923  0.00  0.00     0.006 C 
ENDBRANCH   8   9
BRANCH   8  11
ATOM     11  C   LIG d   1      -0.336  88.136 117.172  0.00  0.00     0.028 C 
ATOM     12  C   LIG d   1       0.562  87.472 118.228  0.00  0.00     0.006 C 
ENDBRANCH   8  11
ENDBRANCH   7   8
ENDBRANCH   1   7
BRANCH   6  13
ATOM     13  N   LIG d   1      -1.788  92.470 119.331  0.00  0.00    -0.311 N 
ATOM     14  C   LIG d   1      -0.545  92.939 119.239  0.00  0.00     0.210 C 
ATOM     15  C   LIG d   1       0.209  93.039 120.569  0.00  0.00     0.109 C 
ATOM     16  O   LIG d   1      -0.006  93.311 118.186  0.00  0.00    -0.276 OA
ATOM     17  H   LIG d   1      -2.156  92.222 120.229  0.00  0.00     0.149 HD
ENDBRANCH   6  13
BRANCH   5  18
ATOM     18  N   LIG d   1      -3.799  94.532 118.312  0.00  0.00     0.381 N 
ATOM     19  H   LIG d   1      -4.164  94.940 117.475  0.00  0.00    -0.090 HD
ATOM     20  H   LIG d   1      -2.813  94.723 118.352  0.00  0.00    -0.090 HD
ATOM     21  H   LIG d   1      -4.253  94.925 119.107  0.00  0.00    -0.090 HD
ENDBRANCH   5  18
BRANCH   3  22
ATOM     22  C   LIG d   1      -6.242  90.938 116.299  0.00  0.00     0.382 C 
ATOM     23  O   LIG d   1      -6.259  89.883 115.621  0.00  0.00    -0.241 OA
ATOM     24  O   LIG d   1      -7.285  91.609 116.415  0.00  0.00    -0.241 OA
ENDBRANCH   3  22
TORSDOF 7
ENDMDL
