MODEL 1
REMARK VINA RESULT:      -5.8      0.000      0.000
REMARK  7 active torsions:
REMARK  status: ('A' for Active; 'I' for Inactive)
REMARK    1  A    between atoms: C_2  and  C_3 
REMARK    2  A    between atoms: C_3  and  O_6 
REMARK    3  A    between atoms: C_3  and  C_4 
REMARK    4  A    between atoms: C_7  and  O_6 
REMARK    5  A    between atoms: C_9  and  C_10 
REMARK    6  A    between atoms: N_15  and  C_14 
REMARK    7  A    between atoms: N_20  and  C_19 
REMARK       I    between atoms: C_22  and  N_20 
ROOT
ATOM      1  C   LIG d   1      -4.768  91.686 117.562  0.00  0.00     0.161 C 
ATOM      2  C   LIG d   1      -5.604  91.080 116.611  0.00  0.00     0.016 C 
ATOM      3  C   LIG d   1      -6.769  91.693 116.095  0.00  0.00     0.038 C 
ATOM      4  C   LIG d   1      -7.096  93.026 116.386  0.00  0.00     0.028 C 
ATOM      5  C   LIG d   1      -6.557  93.502 117.732  0.00  0.00    -0.047 C 
ATOM      6  C   LIG d   1      -5.047  93.183 117.809  0.00  0.00     0.091 C 
ENDROOT
BRANCH   1   7
ATOM      7  O   LIG d   1      -3.388  91.487 117.197  0.00  0.00    -0.368 OA
BRANCH   7   8
ATOM      8  C   LIG d   1      -2.530  90.932 118.225  0.00  0.00     0.119 C 
BRANCH   8   9
ATOM      9  C   LIG d   1      -1.080  91.012 117.710  0.00  0.00     0.028 C 
ATOM     10  C   LIG d   1      -0.385  89.640 117.697  0.00  0.00     0.006 C 
ENDBRANCH   8   9
BRANCH   8  11
ATOM     11  C   LIG d   1      -2.804  89.439 118.434  0.00  0.00     0.028 C 
ATOM     12  C   LIG d   1      -3.371  89.127 119.827  0.00  0.00     0.006 C 
ENDBRANCH   8  11
ENDBRANCH   7   8
ENDBRANCH   1   7
BRANCH   6  13
ATOM     13  N   LIG d   1      -4.459  93.540 119.126  0.00  0.00    -0.311 N 
ATOM     14  C   LIG d   1      -3.480  94.431 119.275  0.00  0.00     0.210 C 
ATOM     15  C   LIG d   1      -3.006  94.635 120.717  0.00  0.00     0.109 C 
ATOM     16  O   LIG d   1      -2.982  95.095 118.354  0.00  0.00    -0.276 OA
ATOM     17  H   LIG d   1      -4.825  93.071 119.931  0.00  0.00     0.149 HD
ENDBRANCH   6  13
BRANCH   5  18
ATOM     18  N   LIG d   1      -6.851  94.943 117.845  0.00  0.00     0.381 N 
ATOM     19  H   LIG d   1      -7.536  95.094 118.558  0.00  0.00    -0.090 HD
ATOM     20  H   LIG d   1      -7.228  95.267 116.972  0.00  0.00    -0.090 HD
ATOM     21  H   LIG d   1      -6.018  95.444 118.063  0.00  0.00    -0.090 HD
ENDBRANCH   5  18
BRANCH   3  22
ATOM     22  C   LIG d   1      -7.643  90.958 115.309  0.00  0.00     0.382 C 
ATOM     23  O   LIG d   1      -8.007  89.815 115.678  0.00  0.00    -0.241 OA
ATOM     24  O   LIG d   1      -8.037  91.404 114.215  0.00  0.00    -0.241 OA
ENDBRANCH   3  22
TORSDOF 7
ENDMDL
MODEL 2
REMARK VINA RESULT:      -5.5      1.491      4.647
REMARK  7 active torsions:
REMARK  status: ('A' for Active; 'I' for Inactive)
REMARK    1  A    between atoms: C_2  and  C_3 
REMARK    2  A    between atoms: C_3  and  O_6 
REMARK    3  A    between atoms: C_3  and  C_4 
REMARK    4  A    between atoms: C_7  and  O_6 
REMARK    5  A    between atoms: C_9  and  C_10 
REMARK    6  A    between atoms: N_15  and  C_14 
REMARK    7  A    between atoms: N_20  and  C_19 
REMARK       I    between atoms: C_22  and  N_20 
ROOT
ATOM      1  C   LIG d   1      -4.079  92.548 117.158  0.00  0.00     0.161 C 
ATOM      2  C   LIG d   1      -3.424  93.401 118.061  0.00  0.00     0.016 C 
ATOM      3  C   LIG d   1      -4.105  94.278 118.936  0.00  0.00     0.038 C 
ATOM      4  C   LIG d   1      -5.500  94.252 119.075  0.00  0.00     0.028 C 
ATOM      5  C   LIG d   1      -6.224  93.765 117.823  0.00  0.00    -0.047 C 
ATOM      6  C   LIG d   1      -5.602  92.424 117.373  0.00  0.00     0.091 C 
ENDROOT
BRANCH   1   7
ATOM      7  O   LIG d   1      -3.462  91.245 117.182  0.00  0.00    -0.368 OA
BRANCH   7   8
ATOM      8  C   LIG d   1      -2.816  90.868 118.423  0.00  0.00     0.119 C 
BRANCH   8   9
ATOM      9  C   LIG d   1      -1.547  90.073 118.062  0.00  0.00     0.028 C 
ATOM     10  C   LIG d   1      -0.489  90.942 117.362  0.00  0.00     0.006 C 
ENDBRANCH   8   9
BRANCH   8  11
ATOM     11  C   LIG d   1      -3.685  89.900 119.232  0.00  0.00     0.028 C 
ATOM     12  C   LIG d   1      -2.868  88.785 119.903  0.00  0.00     0.006 C 
ENDBRANCH   8  11
ENDBRANCH   7   8
ENDBRANCH   1   7
BRANCH   6  13
ATOM     13  N   LIG d   1      -6.195  91.921 116.107  0.00  0.00    -0.311 N 
ATOM     14  C   LIG d   1      -7.225  91.077 116.065  0.00  0.00     0.210 C 
ATOM     15  C   LIG d   1      -7.669  90.668 114.657  0.00  0.00     0.109 C 
ATOM     16  O   LIG d   1      -7.834  90.654 117.059  0.00  0.00    -0.276 OA
ATOM     17  H   LIG d   1      -5.783  92.238 115.252  0.00  0.00     0.149 HD
ENDBRANCH   6  13
BRANCH   5  18
ATOM     18  N   LIG d   1      -7.658  93.656 118.152  0.00  0.00     0.381 N 
ATOM     19  H   LIG d   1      -8.028  94.562 118.360  0.00  0.00    -0.090 HD
ATOM     20  H   LIG d   1      -7.761  93.079 118.968  0.00  0.00    -0.090 HD
ATOM     21  H   LIG d   1      -8.154  93.254 117.387  0.00  0.00    -0.090 HD
ENDBRANCH   5  18
BRANCH   3  22
ATOM     22  C   LIG d   1      -3.389  95.223 119.656  0.00  0.00     0.382 C 
ATOM     23  O   LIG d   1      -2.507  94.856 120.469  0.00  0.00    -0.241 OA
ATOM     24  O   LIG d   1      -3.646  96.436 119.535  0.00  0.00    -0.241 OA
ENDBRANCH   3  22
TORSDOF 7
ENDMDL
MODEL 3
REMARK VINA RESULT:      -5.4      1.793      2.447
REMARK  7 active torsions:
REMARK  status: ('A' for Active; 'I' for Inactive)
REMARK    1  A    between atoms: C_2  and  C_3 
REMARK    2  A    between atoms: C_3  and  O_6 
REMARK    3  A    between atoms: C_3  and  C_4 
REMARK    4  A    between atoms: C_7  and  O_6 
REMARK    5  A    between atoms: C_9  and  C_10 
REMARK    6  A    between atoms: N_15  and  C_14 
REMARK    7  A    between atoms: N_20  and  C_19 
REMARK       I    between atoms: C_22  and  N_20 
ROOT
ATOM      1  C   LIG d   1      -5.880  92.420 118.786  0.00  0.00     0.161 C 
ATOM      2  C   LIG d   1      -6.122  91.409 117.841  0.00  0.00     0.016 C 
ATOM      3  C   LIG d   1      -6.862  91.615 116.654  0.00  0.00     0.038 C 
ATOM      4  C   LIG d   1      -7.285  92.892 116.256  0.00  0.00     0.028 C 
ATOM      5  C   LIG d   1      -7.501  93.850 117.423  0.00  0.00    -0.047 C 
ATOM      6  C   LIG d   1      -6.239  93.845 118.315  0.00  0.00     0.091 C 
ENDROOT
BRANCH   1   7
ATOM      7  O   LIG d   1      -4.506  92.366 119.218  0.00  0.00    -0.368 OA
BRANCH   7   8
ATOM      8  C   LIG d   1      -3.614  91.561 118.408  0.00  0.00     0.119 C 
BRANCH   8   9
ATOM      9  C   LIG d   1      -2.698  90.777 119.367  0.00  0.00     0.028 C 
ATOM     10  C   LIG d   1      -3.462  89.706 120.164  0.00  0.00     0.006 C 
ENDBRANCH   8   9
BRANCH   8  11
ATOM     11  C   LIG d   1      -2.674  92.438 117.576  0.00  0.00     0.028 C 
ATOM     12  C   LIG d   1      -2.805  93.933 117.907  0.00  0.00     0.006 C 
ENDBRANCH   8  11
ENDBRANCH   7   8
ENDBRANCH   1   7
BRANCH   6  13
ATOM     13  N   LIG d   1      -6.397  94.692 119.526  0.00  0.00    -0.311 N 
ATOM     14  C   LIG d   1      -6.031  95.971 119.579  0.00  0.00     0.210 C 
ATOM     15  C   LIG d   1      -6.264  96.655 120.930  0.00  0.00     0.109 C 
ATOM     16  O   LIG d   1      -5.566  96.614 118.626  0.00  0.00    -0.276 OA
ATOM     17  H   LIG d   1      -6.796  94.259 120.337  0.00  0.00     0.149 HD
ENDBRANCH   6  13
BRANCH   5  18
ATOM     18  N   LIG d   1      -7.805  95.178 116.859  0.00  0.00     0.381 N 
ATOM     19  H   LIG d   1      -6.989  95.555 116.420  0.00  0.00    -0.090 HD
ATOM     20  H   LIG d   1      -8.074  95.794 117.605  0.00  0.00    -0.090 HD
ATOM     21  H   LIG d   1      -8.544  95.106 116.195  0.00  0.00    -0.090 HD
ENDBRANCH   5  18
BRANCH   3  22
ATOM     22  C   LIG d   1      -7.221  90.528 115.871  0.00  0.00     0.382 C 
ATOM     23  O   LIG d   1      -8.280  89.901 116.116  0.00  0.00    -0.241 OA
ATOM     24  O   LIG d   1      -6.477  90.140 114.950  0.00  0.00    -0.241 OA
ENDBRANCH   3  22
TORSDOF 7
ENDMDL
MODEL 4
REMARK VINA RESULT:      -5.3      2.247      4.971
REMARK  7 active torsions:
REMARK  status: ('A' for Active; 'I' for Inactive)
REMARK    1  A    between atoms: C_2  and  C_3 
REMARK    2  A    between atoms: C_3  and  O_6 
REMARK    3  A    between atoms: C_3  and  C_4 
REMARK    4  A    between atoms: C_7  and  O_6 
REMARK    5  A    between atoms: C_9  and  C_10 
REMARK    6  A    between atoms: N_15  and  C_14 
REMARK    7  A    between atoms: N_20  and  C_19 
REMARK       I    between atoms: C_22  and  N_20 
ROOT
ATOM      1  C   LIG d   1      -6.623  92.195 118.626  0.00  0.00     0.161 C 
ATOM      2  C   LIG d   1      -7.223  93.452 118.446  0.00  0.00     0.016 C 
ATOM      3  C   LIG d   1      -6.527  94.674 118.587  0.00  0.00     0.038 C 
ATOM      4  C   LIG d   1      -5.137  94.719 118.769  0.00  0.00     0.028 C 
ATOM      5  C   LIG d   1      -4.576  93.479 119.458  0.00  0.00    -0.047 C 
ATOM      6  C   LIG d   1      -5.083  92.221 118.717  0.00  0.00     0.091 C 
ENDROOT
BRANCH   1   7
ATOM      7  O   LIG d   1      -7.048  91.296 117.583  0.00  0.00    -0.368 OA
BRANCH   7   8
ATOM      8  C   LIG d   1      -6.981  91.812 116.231  0.00  0.00     0.119 C 
BRANCH   8   9
ATOM      9  C   LIG d   1      -7.893  90.933 115.354  0.00  0.00     0.028 C 
ATOM     10  C   LIG d   1      -8.388  91.671 114.098  0.00  0.00     0.006 C 
ENDBRANCH   8   9
BRANCH   8  11
ATOM     11  C   LIG d   1      -5.576  91.651 115.643  0.00  0.00     0.028 C 
ATOM     12  C   LIG d   1      -5.193  90.181 115.407  0.00  0.00     0.006 C 
ENDBRANCH   8  11
ENDBRANCH   7   8
ENDBRANCH   1   7
BRANCH   6  13
ATOM     13  N   LIG d   1      -4.649  90.962 119.376  0.00  0.00    -0.311 N 
ATOM     14  C   LIG d   1      -3.575  90.270 119.001  0.00  0.00     0.210 C 
ATOM     15  C   LIG d   1      -3.318  88.989 119.802  0.00  0.00     0.109 C 
ATOM     16  O   LIG d   1      -2.791  90.612 118.103  0.00  0.00    -0.276 OA
ATOM     17  H   LIG d   1      -5.210  90.628 120.135  0.00  0.00     0.149 HD
ENDBRANCH   6  13
BRANCH   5  18
ATOM     18  N   LIG d   1      -3.106  93.597 119.461  0.00  0.00     0.381 N 
ATOM     19  H   LIG d   1      -2.824  94.305 120.108  0.00  0.00    -0.090 HD
ATOM     20  H   LIG d   1      -2.800  93.868 118.543  0.00  0.00    -0.090 HD
ATOM     21  H   LIG d   1      -2.695  92.725 119.711  0.00  0.00    -0.090 HD
ENDBRANCH   5  18
BRANCH   3  22
ATOM     22  C   LIG d   1      -7.229  95.870 118.584  0.00  0.00     0.382 C 
ATOM     23  O   LIG d   1      -7.644  96.356 119.664  0.00  0.00    -0.241 OA
ATOM     24  O   LIG d   1      -7.492  96.446 117.511  0.00  0.00    -0.241 OA
ENDBRANCH   3  22
TORSDOF 7
ENDMDL
MODEL 5
REMARK VINA RESULT:      -5.2      1.872      4.931
REMARK  7 active torsions:
REMARK  status: ('A' for Active; 'I' for Inactive)
REMARK    1  A    between atoms: C_2  and  C_3 
REMARK    2  A    between atoms: C_3  and  O_6 
REMARK    3  A    between atoms: C_3  and  C_4 
REMARK    4  A    between atoms: C_7  and  O_6 
REMARK    5  A    between atoms: C_9  and  C_10 
REMARK    6  A    between atoms: N_15  and  C_14 
REMARK    7  A    between atoms: N_20  and  C_19 
REMARK       I    between atoms: C_22  and  N_20 
ROOT
ATOM      1  C   LIG d   1      -4.855  93.326 118.120  0.00  0.00     0.161 C 
ATOM      2  C   LIG d   1      -4.615  94.369 119.030  0.00  0.00     0.016 C 
ATOM      3  C   LIG d   1      -5.566  95.368 119.337  0.00  0.00     0.038 C 
ATOM      4  C   LIG d   1      -6.886  95.306 118.866  0.00  0.00     0.028 C 
ATOM      5  C   LIG d   1      -7.023  94.552 117.547  0.00  0.00    -0.047 C 
ATOM      6  C   LIG d   1      -6.327  93.178 117.680  0.00  0.00     0.091 C 
ENDROOT
BRANCH   1   7
ATOM      7  O   LIG d   1      -4.367  92.082 118.662  0.00  0.00    -0.368 OA
BRANCH   7   8
ATOM      8  C   LIG d   1      -3.371  91.390 117.870  0.00  0.00     0.119 C 
BRANCH   8   9
ATOM      9  C   LIG d   1      -3.370  89.914 118.315  0.00  0.00     0.028 C 
ATOM     10  C   LIG d   1      -3.740  89.749 119.799  0.00  0.00     0.006 C 
ENDBRANCH   8   9
BRANCH   8  11
ATOM     11  C   LIG d   1      -1.961  91.906 118.173  0.00  0.00     0.028 C 
ATOM     12  C   LIG d   1      -0.862  91.053 117.520  0.00  0.00     0.006 C 
ENDBRANCH   8  11
ENDBRANCH   7   8
ENDBRANCH   1   7
BRANCH   6  13
ATOM     13  N   LIG d   1      -6.341  92.410 116.408  0.00  0.00    -0.311 N 
ATOM     14  C   LIG d   1      -6.997  91.261 116.253  0.00  0.00     0.210 C 
ATOM     15  C   LIG d   1      -6.864  90.623 114.867  0.00  0.00     0.109 C 
ATOM     16  O   LIG d   1      -7.703  90.727 117.121  0.00  0.00    -0.276 OA
ATOM     17  H   LIG d   1      -5.820  92.788 115.641  0.00  0.00     0.149 HD
ENDBRANCH   6  13
BRANCH   5  18
ATOM     18  N   LIG d   1      -8.462  94.444 117.243  0.00  0.00     0.381 N 
ATOM     19  H   LIG d   1      -8.896  93.807 117.880  0.00  0.00    -0.090 HD
ATOM     20  H   LIG d   1      -8.571  94.083 116.311  0.00  0.00    -0.090 HD
ATOM     21  H   LIG d   1      -8.893  95.340 117.312  0.00  0.00    -0.090 HD
ENDBRANCH   5  18
BRANCH   3  22
ATOM     22  C   LIG d   1      -5.188  96.468 120.094  0.00  0.00     0.382 C 
ATOM     23  O   LIG d   1      -5.985  96.957 120.930  0.00  0.00    -0.241 OA
ATOM     24  O   LIG d   1      -4.077  97.003 119.918  0.00  0.00    -0.241 OA
ENDBRANCH   3  22
TORSDOF 7
ENDMDL
MODEL 6
REMARK VINA RESULT:      -5.0      2.334      4.602
REMARK  7 active torsions:
REMARK  status: ('A' for Active; 'I' for Inactive)
REMARK    1  A    between atoms: C_2  and  C_3 
REMARK    2  A    between atoms: C_3  and  O_6 
REMARK    3  A    between atoms: C_3  and  C_4 
REMARK    4  A    between atoms: C_7  and  O_6 
REMARK    5  A    between atoms: C_9  and  C_10 
REMARK    6  A    between atoms: N_15  and  C_14 
REMARK    7  A    between atoms: N_20  and  C_19 
REMARK       I    between atoms: C_22  and  N_20 
ROOT
ATOM      1  C   LIG d   1      -5.081  93.347 118.330  0.00  0.00     0.161 C 
ATOM      2  C   LIG d   1      -6.013  93.181 117.292  0.00  0.00     0.016 C 
ATOM      3  C   LIG d   1      -5.984  92.095 116.386  0.00  0.00     0.038 C 
ATOM      4  C   LIG d   1      -5.105  91.015 116.552  0.00  0.00     0.028 C 
ATOM      5  C   LIG d   1      -3.820  91.386 117.284  0.00  0.00    -0.047 C 
ATOM      6  C   LIG d   1      -4.183  92.121 118.595  0.00  0.00     0.091 C 
ENDROOT
BRANCH   1   7
ATOM      7  O   LIG d   1      -5.761  93.740 119.539  0.00  0.00    -0.368 OA
BRANCH   7   8
ATOM      8  C   LIG d   1      -5.588  95.119 119.947  0.00  0.00     0.119 C 
BRANCH   8   9
ATOM      9  C   LIG d   1      -6.893  95.868 119.615  0.00  0.00     0.028 C 
ATOM     10  C   LIG d   1      -6.722  96.854 118.447  0.00  0.00     0.006 C 
ENDBRANCH   8   9
BRANCH   8  11
ATOM     11  C   LIG d   1      -4.501  95.813 119.121  0.00  0.00     0.028 C 
ATOM     12  C   LIG d   1      -3.300  96.258 119.971  0.00  0.00     0.006 C 
ENDBRANCH   8  11
ENDBRANCH   7   8
ENDBRANCH   1   7
BRANCH   6  13
ATOM     13  N   LIG d   1      -2.982  92.594 119.331  0.00  0.00    -0.311 N 
ATOM     14  C   LIG d   1      -2.379  91.884 120.283  0.00  0.00     0.210 C 
ATOM     15  C   LIG d   1      -1.168  92.565 120.929  0.00  0.00     0.109 C 
ATOM     16  O   LIG d   1      -2.712  90.741 120.632  0.00  0.00    -0.276 OA
ATOM     17  H   LIG d   1      -2.626  93.498 119.090  0.00  0.00     0.149 HD
ENDBRANCH   6  13
BRANCH   5  18
ATOM     18  N   LIG d   1      -3.060  90.142 117.510  0.00  0.00     0.381 N 
ATOM     19  H   LIG d   1      -3.204  89.822 118.447  0.00  0.00    -0.090 HD
ATOM     20  H   LIG d   1      -2.081  90.333 117.389  0.00  0.00    -0.090 HD
ATOM     21  H   LIG d   1      -3.351  89.443 116.863  0.00  0.00    -0.090 HD
ENDBRANCH   5  18
BRANCH   3  22
ATOM     22  C   LIG d   1      -6.815  92.104 115.277  0.00  0.00     0.382 C 
ATOM     23  O   LIG d   1      -6.371  92.476 114.164  0.00  0.00    -0.241 OA
ATOM     24  O   LIG d   1      -8.015  91.786 115.384  0.00  0.00    -0.241 OA
ENDBRANCH   3  22
TORSDOF 7
ENDMDL
MODEL 7
REMARK VINA RESULT:      -4.5      6.476      9.389
REMARK  7 active torsions:
REMARK  status: ('A' for Active; 'I' for Inactive)
REMARK    1  A    between atoms: C_2  and  C_3 
REMARK    2  A    between atoms: C_3  and  O_6 
REMARK    3  A    between atoms: C_3  and  C_4 
REMARK    4  A    between atoms: C_7  and  O_6 
REMARK    5  A    between atoms: C_9  and  C_10 
REMARK    6  A    between atoms: N_15  and  C_14 
REMARK    7  A    between atoms: N_20  and  C_19 
REMARK       I    between atoms: C_22  and  N_20 
ROOT
ATOM      1  C   LIG d   1       2.048  89.468 117.186  0.00  0.00     0.161 C 
ATOM      2  C   LIG d   1       2.216  90.756 117.723  0.00  0.00     0.016 C 
ATOM      3  C   LIG d   1       3.335  91.574 117.447  0.00  0.00     0.038 C 
ATOM      4  C   LIG d   1       4.296  91.218 116.489  0.00  0.00     0.028 C 
ATOM      5  C   LIG d   1       4.432  89.711 116.299  0.00  0.00    -0.047 C 
ATOM      6  C   LIG d   1       3.031  89.108 116.052  0.00  0.00     0.091 C 
ENDROOT
BRANCH   1   7
ATOM      7  O   LIG d   1       0.687  89.297 116.743  0.00  0.00    -0.368 OA
BRANCH   7   8
ATOM      8  C   LIG d   1      -0.133  88.402 117.534  0.00  0.00     0.119 C 
BRANCH   8   9
ATOM      9  C   LIG d   1      -1.193  89.260 118.252  0.00  0.00     0.028 C 
ATOM     10  C   LIG d   1      -1.877  88.504 119.404  0.00  0.00     0.006 C 
ENDBRANCH   8   9
BRANCH   8  11
ATOM     11  C   LIG d   1       0.680  87.742 118.651  0.00  0.00     0.028 C 
ATOM     12  C   LIG d   1       0.856  86.229 118.446  0.00  0.00     0.006 C 
ENDBRANCH   8  11
ENDBRANCH   7   8
ENDBRANCH   1   7
BRANCH   6  13
ATOM     13  N   LIG d   1       3.063  87.626 115.939  0.00  0.00    -0.311 N 
ATOM     14  C   LIG d   1       2.644  86.963 114.863  0.00  0.00     0.210 C 
ATOM     15  C   LIG d   1       2.746  85.438 114.962  0.00  0.00     0.109 C 
ATOM     16  O   LIG d   1       2.227  87.495 113.823  0.00  0.00    -0.276 OA
ATOM     17  H   LIG d   1       3.416  87.116 116.726  0.00  0.00     0.149 HD
ENDBRANCH   6  13
BRANCH   5  18
ATOM     18  N   LIG d   1       5.364  89.485 115.179  0.00  0.00     0.381 N 
ATOM     19  H   LIG d   1       5.000  89.902 114.345  0.00  0.00    -0.090 HD
ATOM     20  H   LIG d   1       5.454  88.497 115.024  0.00  0.00    -0.090 HD
ATOM     21  H   LIG d   1       6.255  89.878 115.392  0.00  0.00    -0.090 HD
ENDBRANCH   5  18
BRANCH   3  22
ATOM     22  C   LIG d   1       3.522  92.746 118.163  0.00  0.00     0.382 C 
ATOM     23  O   LIG d   1       2.950  92.904 119.269  0.00  0.00    -0.241 OA
ATOM     24  O   LIG d   1       4.221  93.667 117.698  0.00  0.00    -0.241 OA
ENDBRANCH   3  22
TORSDOF 7
ENDMDL
MODEL 8
REMARK VINA RESULT:      -4.4      6.387      9.776
REMARK  7 active torsions:
REMARK  status: ('A' for Active; 'I' for Inactive)
REMARK    1  A    between atoms: C_2  and  C_3 
REMARK    2  A    between atoms: C_3  and  O_6 
REMARK    3  A    between atoms: C_3  and  C_4 
REMARK    4  A    between atoms: C_7  and  O_6 
REMARK    5  A    between atoms: C_9  and  C_10 
REMARK    6  A    between atoms: N_15  and  C_14 
REMARK    7  A    between atoms: N_20  and  C_19 
REMARK       I    between atoms: C_22  and  N_20 
ROOT
ATOM      1  C   LIG d   1       2.696  90.908 117.451  0.00  0.00     0.161 C 
ATOM      2  C   LIG d   1       2.800  91.995 118.335  0.00  0.00     0.016 C 
ATOM      3  C   LIG d   1       4.025  92.623 118.656  0.00  0.00     0.038 C 
ATOM      4  C   LIG d   1       5.219  92.301 117.993  0.00  0.00     0.028 C 
ATOM      5  C   LIG d   1       5.251  90.871 117.464  0.00  0.00    -0.047 C 
ATOM      6  C   LIG d   1       3.972  90.615 116.634  0.00  0.00     0.091 C 
ENDROOT
BRANCH   1   7
ATOM      7  O   LIG d   1       1.571  91.100 116.571  0.00  0.00    -0.368 OA
BRANCH   7   8
ATOM      8  C   LIG d   1       0.420  90.254 116.815  0.00  0.00     0.119 C 
BRANCH   8   9
ATOM      9  C   LIG d   1      -0.656  91.123 117.495  0.00  0.00     0.028 C 
ATOM     10  C   LIG d   1      -0.824  90.789 118.986  0.00  0.00     0.006 C 
ENDBRANCH   8   9
BRANCH   8  11
ATOM     11  C   LIG d   1       0.745  89.148 117.823  0.00  0.00     0.028 C 
ATOM     12  C   LIG d   1       0.651  87.740 117.214  0.00  0.00     0.006 C 
ENDBRANCH   8  11
ENDBRANCH   7   8
ENDBRANCH   1   7
BRANCH   6  13
ATOM     13  N   LIG d   1       3.883  89.213 116.149  0.00  0.00    -0.311 N 
ATOM     14  C   LIG d   1       4.244  88.837 114.923  0.00  0.00     0.210 C 
ATOM     15  C   LIG d   1       4.052  87.348 114.621  0.00  0.00     0.109 C 
ATOM     16  O   LIG d   1       4.734  89.590 114.068  0.00  0.00    -0.276 OA
ATOM     17  H   LIG d   1       3.526  88.531 116.789  0.00  0.00     0.149 HD
ENDBRANCH   6  13
BRANCH   5  18
ATOM     18  N   LIG d   1       6.490  90.714 116.679  0.00  0.00     0.381 N 
ATOM     19  H   LIG d   1       6.403  91.198 115.808  0.00  0.00    -0.090 HD
ATOM     20  H   LIG d   1       6.631  89.739 116.486  0.00  0.00    -0.090 HD
ATOM     21  H   LIG d   1       7.266  91.075 117.191  0.00  0.00    -0.090 HD
ENDBRANCH   5  18
BRANCH   3  22
ATOM     22  C   LIG d   1       4.071  93.559 119.678  0.00  0.00     0.382 C 
ATOM     23  O   LIG d   1       5.057  93.593 120.453  0.00  0.00    -0.241 OA
ATOM     24  O   LIG d   1       3.119  94.340 119.863  0.00  0.00    -0.241 OA
ENDBRANCH   3  22
TORSDOF 7
ENDMDL
MODEL 9
REMARK VINA RESULT:      -4.3      5.945      8.709
REMARK  7 active torsions:
REMARK  status: ('A' for Active; 'I' for Inactive)
REMARK    1  A    between atoms: C_2  and  C_3 
REMARK    2  A    between atoms: C_3  and  O_6 
REMARK    3  A    between atoms: C_3  and  C_4 
REMARK    4  A    between atoms: C_7  and  O_6 
REMARK    5  A    between atoms: C_9  and  C_10 
REMARK    6  A    between atoms: N_15  and  C_14 
REMARK    7  A    between atoms: N_20  and  C_19 
REMARK       I    between atoms: C_22  and  N_20 
ROOT
ATOM      1  C   LIG d   1       2.151  90.007 116.704  0.00  0.00     0.161 C 
ATOM      2  C   LIG d   1       2.005  88.786 116.024  0.00  0.00     0.016 C 
ATOM      3  C   LIG d   1       3.081  88.101 115.414  0.00  0.00     0.038 C 
ATOM      4  C   LIG d   1       4.411  88.518 115.573  0.00  0.00     0.028 C 
ATOM      5  C   LIG d   1       4.550  90.016 115.824  0.00  0.00    -0.047 C 
ATOM      6  C   LIG d   1       3.611  90.420 116.984  0.00  0.00     0.091 C 
ENDROOT
BRANCH   1   7
ATOM      7  O   LIG d   1       1.395  89.976 117.930  0.00  0.00    -0.368 OA
BRANCH   7   8
ATOM      8  C   LIG d   1      -0.027  90.225 117.809  0.00  0.00     0.119 C 
BRANCH   8   9
ATOM      9  C   LIG d   1      -0.374  91.398 118.746  0.00  0.00     0.028 C 
ATOM     10  C   LIG d   1       0.808  91.803 119.642  0.00  0.00     0.006 C 
ENDBRANCH   8   9
BRANCH   8  11
ATOM     11  C   LIG d   1      -0.846  89.038 118.325  0.00  0.00     0.028 C 
ATOM     12  C   LIG d   1      -2.348  89.349 118.427  0.00  0.00     0.006 C 
ENDBRANCH   8  11
ENDBRANCH   7   8
ENDBRANCH   1   7
BRANCH   6  13
ATOM     13  N   LIG d   1       3.623  91.884 117.238  0.00  0.00    -0.311 N 
ATOM     14  C   LIG d   1       4.418  92.466 118.135  0.00  0.00     0.210 C 
ATOM     15  C   LIG d   1       4.257  93.984 118.254  0.00  0.00     0.109 C 
ATOM     16  O   LIG d   1       5.264  91.872 118.820  0.00  0.00    -0.276 OA
ATOM     17  H   LIG d   1       2.990  92.445 116.704  0.00  0.00     0.149 HD
ENDBRANCH   6  13
BRANCH   5  18
ATOM     18  N   LIG d   1       5.971  90.289 116.109  0.00  0.00     0.381 N 
ATOM     19  H   LIG d   1       6.216  91.199 115.771  0.00  0.00    -0.090 HD
ATOM     20  H   LIG d   1       6.536  89.612 115.627  0.00  0.00    -0.090 HD
ATOM     21  H   LIG d   1       6.139  90.235 117.089  0.00  0.00    -0.090 HD
ENDBRANCH   5  18
BRANCH   3  22
ATOM     22  C   LIG d   1       2.826  87.008 114.600  0.00  0.00     0.382 C 
ATOM     23  O   LIG d   1       2.190  87.157 113.529  0.00  0.00    -0.241 OA
ATOM     24  O   LIG d   1       3.187  85.866 114.945  0.00  0.00    -0.241 OA
ENDBRANCH   3  22
TORSDOF 7
ENDMDL
