MODEL 1
REMARK VINA RESULT:      -5.3      0.000      0.000
REMARK  7 active torsions:
REMARK  status: ('A' for Active; 'I' for Inactive)
REMARK    1  A    between atoms: C_2  and  C_3 
REMARK    2  A    between atoms: C_3  and  O_6 
REMARK    3  A    between atoms: C_3  and  C_4 
REMARK    4  A    between atoms: C_7  and  O_6 
REMARK    5  A    between atoms: C_9  and  C_10 
REMARK    6  A    between atoms: N_15  and  C_14 
REMARK    7  A    between atoms: N_20  and  C_19 
REMARK       I    between atoms: C_22  and  N_20 
ROOT
ATOM      1  C   LIG d   1      -3.409  91.137 117.378  0.00  0.00     0.161 C 
ATOM      2  C   LIG d   1      -3.983  90.382 116.343  0.00  0.00     0.016 C 
ATOM      3  C   LIG d   1      -5.222  90.701 115.742  0.00  0.00     0.038 C 
ATOM      4  C   LIG d   1      -5.904  91.891 116.035  0.00  0.00     0.028 C 
ATOM      5  C   LIG d   1      -5.615  92.426 117.434  0.00  0.00    -0.047 C 
ATOM      6  C   LIG d   1      -4.084  92.501 117.635  0.00  0.00     0.091 C 
ENDROOT
BRANCH   1   7
ATOM      7  O   LIG d   1      -2.000  91.314 117.131  0.00  0.00    -0.368 OA
BRANCH   7   8
ATOM      8  C   LIG d   1      -1.102  90.658 118.060  0.00  0.00     0.119 C 
BRANCH   8   9
ATOM      9  C   LIG d   1      -0.045  91.693 118.491  0.00  0.00     0.028 C 
ATOM     10  C   LIG d   1       0.229  92.742 117.400  0.00  0.00     0.006 C 
ENDBRANCH   8   9
BRANCH   8  11
ATOM     11  C   LIG d   1      -0.316  89.536 117.376  0.00  0.00     0.028 C 
ATOM     12  C   LIG d   1      -1.075  88.200 117.362  0.00  0.00     0.006 C 
ENDBRANCH   8  11
ENDBRANCH   7   8
ENDBRANCH   1   7
BRANCH   6  13
ATOM     13  N   LIG d   1      -3.713  92.935 119.008  0.00  0.00    -0.311 N 
ATOM     14  C   LIG d   1      -2.946  93.994 119.259  0.00  0.00     0.210 C 
ATOM     15  C   LIG d   1      -2.670  94.254 120.744  0.00  0.00     0.109 C 
ATOM     16  O   LIG d   1      -2.495  94.762 118.396  0.00  0.00    -0.276 OA
ATOM     17  H   LIG d   1      -4.062  92.386 119.769  0.00  0.00     0.149 HD
ENDBRANCH   6  13
BRANCH   5  18
ATOM     18  N   LIG d   1      -6.279  93.737 117.556  0.00  0.00     0.381 N 
ATOM     19  H   LIG d   1      -6.965  93.838 116.835  0.00  0.00    -0.090 HD
ATOM     20  H   LIG d   1      -5.592  94.461 117.441  0.00  0.00    -0.090 HD
ATOM     21  H   LIG d   1      -6.711  93.818 118.450  0.00  0.00    -0.090 HD
ENDBRANCH   5  18
BRANCH   3  22
ATOM     22  C   LIG d   1      -5.812  89.803 114.865  0.00  0.00     0.382 C 
ATOM     23  O   LIG d   1      -7.049  89.845 114.662  0.00  0.00    -0.241 OA
ATOM     24  O   LIG d   1      -5.129  88.923 114.307  0.00  0.00    -0.241 OA
ENDBRANCH   3  22
TORSDOF 7
ENDMDL
MODEL 2
REMARK VINA RESULT:      -5.2      0.691      1.777
REMARK  7 active torsions:
REMARK  status: ('A' for Active; 'I' for Inactive)
REMARK    1  A    between atoms: C_2  and  C_3 
REMARK    2  A    between atoms: C_3  and  O_6 
REMARK    3  A    between atoms: C_3  and  C_4 
REMARK    4  A    between atoms: C_7  and  O_6 
REMARK    5  A    between atoms: C_9  and  C_10 
REMARK    6  A    between atoms: N_15  and  C_14 
REMARK    7  A    between atoms: N_20  and  C_19 
REMARK       I    between atoms: C_22  and  N_20 
ROOT
ATOM      1  C   LIG d   1      -3.460  91.116 117.446  0.00  0.00     0.161 C 
ATOM      2  C   LIG d   1      -4.003  90.364 116.391  0.00  0.00     0.016 C 
ATOM      3  C   LIG d   1      -5.219  90.692 115.748  0.00  0.00     0.038 C 
ATOM      4  C   LIG d   1      -5.902  91.887 116.018  0.00  0.00     0.028 C 
ATOM      5  C   LIG d   1      -5.657  92.421 117.425  0.00  0.00    -0.047 C 
ATOM      6  C   LIG d   1      -4.133  92.485 117.679  0.00  0.00     0.091 C 
ENDROOT
BRANCH   1   7
ATOM      7  O   LIG d   1      -2.042  91.283 117.247  0.00  0.00    -0.368 OA
BRANCH   7   8
ATOM      8  C   LIG d   1      -1.269  90.065 117.117  0.00  0.00     0.119 C 
BRANCH   8   9
ATOM      9  C   LIG d   1      -1.220  89.397 118.505  0.00  0.00     0.028 C 
ATOM     10  C   LIG d   1      -1.817  87.980 118.497  0.00  0.00     0.006 C 
ENDBRANCH   8   9
BRANCH   8  11
ATOM     11  C   LIG d   1       0.190  90.366 116.760  0.00  0.00     0.028 C 
ATOM     12  C   LIG d   1       0.482  91.872 116.669  0.00  0.00     0.006 C 
ENDBRANCH   8  11
ENDBRANCH   7   8
ENDBRANCH   1   7
BRANCH   6  13
ATOM     13  N   LIG d   1      -3.807  92.917 119.063  0.00  0.00    -0.311 N 
ATOM     14  C   LIG d   1      -3.059  93.983 119.341  0.00  0.00     0.210 C 
ATOM     15  C   LIG d   1      -2.828  94.240 120.834  0.00  0.00     0.109 C 
ATOM     16  O   LIG d   1      -2.592  94.759 118.495  0.00  0.00    -0.276 OA
ATOM     17  H   LIG d   1      -4.172  92.362 119.812  0.00  0.00     0.149 HD
ENDBRANCH   6  13
BRANCH   5  18
ATOM     18  N   LIG d   1      -6.315  93.737 117.524  0.00  0.00     0.381 N 
ATOM     19  H   LIG d   1      -6.368  94.019 118.482  0.00  0.00    -0.090 HD
ATOM     20  H   LIG d   1      -7.251  93.660 117.166  0.00  0.00    -0.090 HD
ATOM     21  H   LIG d   1      -5.806  94.413 116.999  0.00  0.00    -0.090 HD
ENDBRANCH   5  18
BRANCH   3  22
ATOM     22  C   LIG d   1      -5.785  89.798 114.851  0.00  0.00     0.382 C 
ATOM     23  O   LIG d   1      -5.073  88.918 114.310  0.00  0.00    -0.241 OA
ATOM     24  O   LIG d   1      -6.988  89.889 114.543  0.00  0.00    -0.241 OA
ENDBRANCH   3  22
TORSDOF 7
ENDMDL
MODEL 3
REMARK VINA RESULT:      -4.9      2.877      6.627
REMARK  7 active torsions:
REMARK  status: ('A' for Active; 'I' for Inactive)
REMARK    1  A    between atoms: C_2  and  C_3 
REMARK    2  A    between atoms: C_3  and  O_6 
REMARK    3  A    between atoms: C_3  and  C_4 
REMARK    4  A    between atoms: C_7  and  O_6 
REMARK    5  A    between atoms: C_9  and  C_10 
REMARK    6  A    between atoms: N_15  and  C_14 
REMARK    7  A    between atoms: N_20  and  C_19 
REMARK       I    between atoms: C_22  and  N_20 
ROOT
ATOM      1  C   LIG d   1      -5.714  92.417 118.565  0.00  0.00     0.161 C 
ATOM      2  C   LIG d   1      -4.674  92.822 119.418  0.00  0.00     0.016 C 
ATOM      3  C   LIG d   1      -3.321  92.463 119.220  0.00  0.00     0.038 C 
ATOM      4  C   LIG d   1      -2.892  91.796 118.063  0.00  0.00     0.028 C 
ATOM      5  C   LIG d   1      -3.975  90.930 117.427  0.00  0.00    -0.047 C 
ATOM      6  C   LIG d   1      -5.251  91.782 117.237  0.00  0.00     0.091 C 
ENDROOT
BRANCH   1   7
ATOM      7  O   LIG d   1      -6.596  93.528 118.308  0.00  0.00    -0.368 OA
BRANCH   7   8
ATOM      8  C   LIG d   1      -6.659  94.543 119.340  0.00  0.00     0.119 C 
BRANCH   8   9
ATOM      9  C   LIG d   1      -7.919  94.269 120.183  0.00  0.00     0.028 C 
ATOM     10  C   LIG d   1      -9.070  95.233 119.848  0.00  0.00     0.006 C 
ENDBRANCH   8   9
BRANCH   8  11
ATOM     11  C   LIG d   1      -6.868  95.936 118.739  0.00  0.00     0.028 C 
ATOM     12  C   LIG d   1      -5.763  96.928 119.133  0.00  0.00     0.006 C 
ENDBRANCH   8  11
ENDBRANCH   7   8
ENDBRANCH   1   7
BRANCH   6  13
ATOM     13  N   LIG d   1      -6.387  90.989 116.698  0.00  0.00    -0.311 N 
ATOM     14  C   LIG d   1      -6.676  90.911 115.400  0.00  0.00     0.210 C 
ATOM     15  C   LIG d   1      -7.900  90.056 115.061  0.00  0.00     0.109 C 
ATOM     16  O   LIG d   1      -6.015  91.444 114.496  0.00  0.00    -0.276 OA
ATOM     17  H   LIG d   1      -6.956  90.500 117.360  0.00  0.00     0.149 HD
ENDBRANCH   6  13
BRANCH   5  18
ATOM     18  N   LIG d   1      -3.437  90.404 116.159  0.00  0.00     0.381 N 
ATOM     19  H   LIG d   1      -2.535  89.999 116.315  0.00  0.00    -0.090 HD
ATOM     20  H   LIG d   1      -3.334  91.163 115.509  0.00  0.00    -0.090 HD
ATOM     21  H   LIG d   1      -4.056  89.718 115.784  0.00  0.00    -0.090 HD
ENDBRANCH   5  18
BRANCH   3  22
ATOM     22  C   LIG d   1      -2.386  92.738 120.206  0.00  0.00     0.382 C 
ATOM     23  O   LIG d   1      -1.592  91.843 120.585  0.00  0.00    -0.241 OA
ATOM     24  O   LIG d   1      -2.355  93.857 120.754  0.00  0.00    -0.241 OA
ENDBRANCH   3  22
TORSDOF 7
ENDMDL
MODEL 4
REMARK VINA RESULT:      -4.8      2.304      4.468
REMARK  7 active torsions:
REMARK  status: ('A' for Active; 'I' for Inactive)
REMARK    1  A    between atoms: C_2  and  C_3 
REMARK    2  A    between atoms: C_3  and  O_6 
REMARK    3  A    between atoms: C_3  and  C_4 
REMARK    4  A    between atoms: C_7  and  O_6 
REMARK    5  A    between atoms: C_9  and  C_10 
REMARK    6  A    between atoms: N_15  and  C_14 
REMARK    7  A    between atoms: N_20  and  C_19 
REMARK       I    between atoms: C_22  and  N_20 
ROOT
ATOM      1  C   LIG d   1      -4.790  92.241 118.078  0.00  0.00     0.161 C 
ATOM      2  C   LIG d   1      -5.714  92.186 117.021  0.00  0.00     0.016 C 
ATOM      3  C   LIG d   1      -5.598  91.294 115.931  0.00  0.00     0.038 C 
ATOM      4  C   LIG d   1      -4.624  90.285 115.899  0.00  0.00     0.028 C 
ATOM      5  C   LIG d   1      -3.369  90.629 116.695  0.00  0.00    -0.047 C 
ATOM      6  C   LIG d   1      -3.783  91.073 118.117  0.00  0.00     0.091 C 
ENDROOT
BRANCH   1   7
ATOM      7  O   LIG d   1      -5.489  92.342 119.334  0.00  0.00    -0.368 OA
BRANCH   7   8
ATOM      8  C   LIG d   1      -5.430  93.630 119.995  0.00  0.00     0.119 C 
BRANCH   8   9
ATOM      9  C   LIG d   1      -6.806  94.301 119.824  0.00  0.00     0.028 C 
ATOM     10  C   LIG d   1      -6.809  95.357 118.706  0.00  0.00     0.006 C 
ENDBRANCH   8   9
BRANCH   8  11
ATOM     11  C   LIG d   1      -4.433  94.565 119.304  0.00  0.00     0.028 C 
ATOM     12  C   LIG d   1      -3.226  94.909 120.191  0.00  0.00     0.006 C 
ENDBRANCH   8  11
ENDBRANCH   7   8
ENDBRANCH   1   7
BRANCH   6  13
ATOM     13  N   LIG d   1      -2.621  91.508 118.935  0.00  0.00    -0.311 N 
ATOM     14  C   LIG d   1      -1.920  90.683 119.711  0.00  0.00     0.210 C 
ATOM     15  C   LIG d   1      -0.774  91.341 120.486  0.00  0.00     0.109 C 
ATOM     16  O   LIG d   1      -2.119  89.462 119.807  0.00  0.00    -0.276 OA
ATOM     17  H   LIG d   1      -2.370  92.477 118.893  0.00  0.00     0.149 HD
ENDBRANCH   6  13
BRANCH   5  18
ATOM     18  N   LIG d   1      -2.498  89.439 116.691  0.00  0.00     0.381 N 
ATOM     19  H   LIG d   1      -2.136  89.287 115.771  0.00  0.00    -0.090 HD
ATOM     20  H   LIG d   1      -3.044  88.636 116.952  0.00  0.00    -0.090 HD
ATOM     21  H   LIG d   1      -1.748  89.563 117.335  0.00  0.00    -0.090 HD
ENDBRANCH   5  18
BRANCH   3  22
ATOM     22  C   LIG d   1      -6.438  91.432 114.837  0.00  0.00     0.382 C 
ATOM     23  O   LIG d   1      -6.719  92.575 114.402  0.00  0.00    -0.241 OA
ATOM     24  O   LIG d   1      -6.955  90.431 114.306  0.00  0.00    -0.241 OA
ENDBRANCH   3  22
TORSDOF 7
ENDMDL
MODEL 5
REMARK VINA RESULT:      -4.7      2.501      5.172
REMARK  7 active torsions:
REMARK  status: ('A' for Active; 'I' for Inactive)
REMARK    1  A    between atoms: C_2  and  C_3 
REMARK    2  A    between atoms: C_3  and  O_6 
REMARK    3  A    between atoms: C_3  and  C_4 
REMARK    4  A    between atoms: C_7  and  O_6 
REMARK    5  A    between atoms: C_9  and  C_10 
REMARK    6  A    between atoms: N_15  and  C_14 
REMARK    7  A    between atoms: N_20  and  C_19 
REMARK       I    between atoms: C_22  and  N_20 
ROOT
ATOM      1  C   LIG d   1      -1.628  92.047 117.702  0.00  0.00     0.161 C 
ATOM      2  C   LIG d   1      -0.337  91.662 117.305  0.00  0.00     0.016 C 
ATOM      3  C   LIG d   1       0.763  92.549 117.269  0.00  0.00     0.038 C 
ATOM      4  C   LIG d   1       0.680  93.854 117.777  0.00  0.00     0.028 C 
ATOM      5  C   LIG d   1      -0.728  94.438 117.718  0.00  0.00    -0.047 C 
ATOM      6  C   LIG d   1      -1.713  93.438 118.364  0.00  0.00     0.091 C 
ENDROOT
BRANCH   1   7
ATOM      7  O   LIG d   1      -2.192  91.044 118.570  0.00  0.00    -0.368 OA
BRANCH   7   8
ATOM      8  C   LIG d   1      -3.175  90.163 117.972  0.00  0.00     0.119 C 
BRANCH   8   9
ATOM      9  C   LIG d   1      -2.429  88.912 117.469  0.00  0.00     0.028 C 
ATOM     10  C   LIG d   1      -1.938  88.019 118.621  0.00  0.00     0.006 C 
ENDBRANCH   8   9
BRANCH   8  11
ATOM     11  C   LIG d   1      -3.800  90.792 116.722  0.00  0.00     0.028 C 
ATOM     12  C   LIG d   1      -5.258  91.224 116.940  0.00  0.00     0.006 C 
ENDBRANCH   8  11
ENDBRANCH   7   8
ENDBRANCH   1   7
BRANCH   6  13
ATOM     13  N   LIG d   1      -3.125  93.895 118.273  0.00  0.00    -0.311 N 
ATOM     14  C   LIG d   1      -3.957  93.917 119.313  0.00  0.00     0.210 C 
ATOM     15  C   LIG d   1      -5.374  94.404 118.997  0.00  0.00     0.109 C 
ATOM     16  O   LIG d   1      -3.646  93.611 120.474  0.00  0.00    -0.276 OA
ATOM     17  H   LIG d   1      -3.451  94.190 117.374  0.00  0.00     0.149 HD
ENDBRANCH   6  13
BRANCH   5  18
ATOM     18  N   LIG d   1      -0.697  95.745 118.402  0.00  0.00     0.381 N 
ATOM     19  H   LIG d   1      -1.467  95.812 119.038  0.00  0.00    -0.090 HD
ATOM     20  H   LIG d   1      -0.789  96.473 117.716  0.00  0.00    -0.090 HD
ATOM     21  H   LIG d   1       0.161  95.851 118.896  0.00  0.00    -0.090 HD
ENDBRANCH   5  18
BRANCH   3  22
ATOM     22  C   LIG d   1       1.954  92.144 116.685  0.00  0.00     0.382 C 
ATOM     23  O   LIG d   1       2.936  92.924 116.659  0.00  0.00    -0.241 OA
ATOM     24  O   LIG d   1       2.044  91.026 116.145  0.00  0.00    -0.241 OA
ENDBRANCH   3  22
TORSDOF 7
ENDMDL
MODEL 6
REMARK VINA RESULT:      -4.6      1.843      4.656
REMARK  7 active torsions:
REMARK  status: ('A' for Active; 'I' for Inactive)
REMARK    1  A    between atoms: C_2  and  C_3 
REMARK    2  A    between atoms: C_3  and  O_6 
REMARK    3  A    between atoms: C_3  and  C_4 
REMARK    4  A    between atoms: C_7  and  O_6 
REMARK    5  A    between atoms: C_9  and  C_10 
REMARK    6  A    between atoms: N_15  and  C_14 
REMARK    7  A    between atoms: N_20  and  C_19 
REMARK       I    between atoms: C_22  and  N_20 
ROOT
ATOM      1  C   LIG d   1      -3.706  92.032 117.125  0.00  0.00     0.161 C 
ATOM      2  C   LIG d   1      -2.943  93.088 117.649  0.00  0.00     0.016 C 
ATOM      3  C   LIG d   1      -3.440  94.010 118.600  0.00  0.00     0.038 C 
ATOM      4  C   LIG d   1      -4.693  93.844 119.208  0.00  0.00     0.028 C 
ATOM      5  C   LIG d   1      -5.691  93.085 118.342  0.00  0.00    -0.047 C 
ATOM      6  C   LIG d   1      -5.038  91.770 117.859  0.00  0.00     0.091 C 
ENDROOT
BRANCH   1   7
ATOM      7  O   LIG d   1      -2.912  90.830 117.083  0.00  0.00    -0.368 OA
BRANCH   7   8
ATOM      8  C   LIG d   1      -1.677  90.855 117.840  0.00  0.00     0.119 C 
BRANCH   8   9
ATOM      9  C   LIG d   1      -0.576  90.247 116.950  0.00  0.00     0.028 C 
ATOM     10  C   LIG d   1       0.451  91.295 116.490  0.00  0.00     0.006 C 
ENDBRANCH   8   9
BRANCH   8  11
ATOM     11  C   LIG d   1      -1.757  89.941 119.067  0.00  0.00     0.028 C 
ATOM     12  C   LIG d   1      -2.039  90.712 120.367  0.00  0.00     0.006 C 
ENDBRANCH   8  11
ENDBRANCH   7   8
ENDBRANCH   1   7
BRANCH   6  13
ATOM     13  N   LIG d   1      -5.917  91.005 116.936  0.00  0.00    -0.311 N 
ATOM     14  C   LIG d   1      -6.320  91.470 115.754  0.00  0.00     0.210 C 
ATOM     15  C   LIG d   1      -7.239  90.529 114.969  0.00  0.00     0.109 C 
ATOM     16  O   LIG d   1      -5.977  92.558 115.268  0.00  0.00    -0.276 OA
ATOM     17  H   LIG d   1      -6.217  90.099 117.238  0.00  0.00     0.149 HD
ENDBRANCH   6  13
BRANCH   5  18
ATOM     18  N   LIG d   1      -6.906  92.865 119.149  0.00  0.00     0.381 N 
ATOM     19  H   LIG d   1      -6.662  92.803 120.118  0.00  0.00    -0.090 HD
ATOM     20  H   LIG d   1      -7.326  91.994 118.874  0.00  0.00    -0.090 HD
ATOM     21  H   LIG d   1      -7.549  93.612 119.008  0.00  0.00    -0.090 HD
ENDBRANCH   5  18
BRANCH   3  22
ATOM     22  C   LIG d   1      -2.694  95.133 118.923  0.00  0.00     0.382 C 
ATOM     23  O   LIG d   1      -1.889  95.612 118.088  0.00  0.00    -0.241 OA
ATOM     24  O   LIG d   1      -2.784  95.648 120.053  0.00  0.00    -0.241 OA
ENDBRANCH   3  22
TORSDOF 7
ENDMDL
MODEL 7
REMARK VINA RESULT:      -4.5      3.474      6.315
REMARK  7 active torsions:
REMARK  status: ('A' for Active; 'I' for Inactive)
REMARK    1  A    between atoms: C_2  and  C_3 
REMARK    2  A    between atoms: C_3  and  O_6 
REMARK    3  A    between atoms: C_3  and  C_4 
REMARK    4  A    between atoms: C_7  and  O_6 
REMARK    5  A    between atoms: C_9  and  C_10 
REMARK    6  A    between atoms: N_15  and  C_14 
REMARK    7  A    between atoms: N_20  and  C_19 
REMARK       I    between atoms: C_22  and  N_20 
ROOT
ATOM      1  C   LIG d   1       0.486  89.209 116.138  0.00  0.00     0.161 C 
ATOM      2  C   LIG d   1       1.848  89.215 115.796  0.00  0.00     0.016 C 
ATOM      3  C   LIG d   1       2.660  90.371 115.856  0.00  0.00     0.038 C 
ATOM      4  C   LIG d   1       2.198  91.574 116.410  0.00  0.00     0.028 C 
ATOM      5  C   LIG d   1       0.688  91.752 116.298  0.00  0.00    -0.047 C 
ATOM      6  C   LIG d   1      -0.008  90.486 116.850  0.00  0.00     0.091 C 
ENDROOT
BRANCH   1   7
ATOM      7  O   LIG d   1       0.186  88.045 116.933  0.00  0.00    -0.368 OA
BRANCH   7   8
ATOM      8  C   LIG d   1       0.768  88.013 118.260  0.00  0.00     0.119 C 
BRANCH   8   9
ATOM      9  C   LIG d   1       1.489  86.660 118.416  0.00  0.00     0.028 C 
ATOM     10  C   LIG d   1       1.264  85.732 117.211  0.00  0.00     0.006 C 
ENDBRANCH   8   9
BRANCH   8  11
ATOM     11  C   LIG d   1      -0.314  88.023 119.343  0.00  0.00     0.028 C 
ATOM     12  C   LIG d   1      -1.672  87.513 118.834  0.00  0.00     0.006 C 
ENDBRANCH   8  11
ENDBRANCH   7   8
ENDBRANCH   1   7
BRANCH   6  13
ATOM     13  N   LIG d   1      -1.486  90.541 116.701  0.00  0.00    -0.311 N 
ATOM     14  C   LIG d   1      -2.305  90.962 117.663  0.00  0.00     0.210 C 
ATOM     15  C   LIG d   1      -3.795  90.920 117.309  0.00  0.00     0.109 C 
ATOM     16  O   LIG d   1      -1.937  91.396 118.765  0.00  0.00    -0.276 OA
ATOM     17  H   LIG d   1      -1.868  90.237 115.827  0.00  0.00     0.149 HD
ENDBRANCH   6  13
BRANCH   5  18
ATOM     18  N   LIG d   1       0.327  92.978 117.035  0.00  0.00     0.381 N 
ATOM     19  H   LIG d   1      -0.465  93.411 116.604  0.00  0.00    -0.090 HD
ATOM     20  H   LIG d   1       1.099  93.620 116.995  0.00  0.00    -0.090 HD
ATOM     21  H   LIG d   1       0.118  92.756 117.983  0.00  0.00    -0.090 HD
ENDBRANCH   5  18
BRANCH   3  22
ATOM     22  C   LIG d   1       3.939  90.341 115.321  0.00  0.00     0.382 C 
ATOM     23  O   LIG d   1       4.937  90.400 116.079  0.00  0.00    -0.241 OA
ATOM     24  O   LIG d   1       4.107  90.300 114.088  0.00  0.00    -0.241 OA
ENDBRANCH   3  22
TORSDOF 7
ENDMDL
MODEL 8
REMARK VINA RESULT:      -4.5      3.218      5.147
REMARK  7 active torsions:
REMARK  status: ('A' for Active; 'I' for Inactive)
REMARK    1  A    between atoms: C_2  and  C_3 
REMARK    2  A    between atoms: C_3  and  O_6 
REMARK    3  A    between atoms: C_3  and  C_4 
REMARK    4  A    between atoms: C_7  and  O_6 
REMARK    5  A    between atoms: C_9  and  C_10 
REMARK    6  A    between atoms: N_15  and  C_14 
REMARK    7  A    between atoms: N_20  and  C_19 
REMARK       I    between atoms: C_22  and  N_20 
ROOT
ATOM      1  C   LIG d   1      -5.616  93.428 119.303  0.00  0.00     0.161 C 
ATOM      2  C   LIG d   1      -6.902  93.989 119.235  0.00  0.00     0.016 C 
ATOM      3  C   LIG d   1      -7.140  95.376 119.092  0.00  0.00     0.038 C 
ATOM      4  C   LIG d   1      -6.099  96.285 118.854  0.00  0.00     0.028 C 
ATOM      5  C   LIG d   1      -4.757  95.832 119.418  0.00  0.00    -0.047 C 
ATOM      6  C   LIG d   1      -4.469  94.392 118.933  0.00  0.00     0.091 C 
ENDROOT
BRANCH   1   7
ATOM      7  O   LIG d   1      -5.557  92.242 118.485  0.00  0.00    -0.368 OA
BRANCH   7   8
ATOM      8  C   LIG d   1      -4.980  92.406 117.166  0.00  0.00     0.119 C 
BRANCH   8   9
ATOM      9  C   LIG d   1      -6.136  92.374 116.148  0.00  0.00     0.028 C 
ATOM     10  C   LIG d   1      -6.029  91.187 115.176  0.00  0.00     0.006 C 
ENDBRANCH   8   9
BRANCH   8  11
ATOM     11  C   LIG d   1      -4.083  91.219 116.799  0.00  0.00     0.028 C 
ATOM     12  C   LIG d   1      -3.443  90.554 118.028  0.00  0.00     0.006 C 
ENDBRANCH   8  11
ENDBRANCH   7   8
ENDBRANCH   1   7
BRANCH   6  13
ATOM     13  N   LIG d   1      -3.215  93.840 119.507  0.00  0.00    -0.311 N 
ATOM     14  C   LIG d   1      -2.042  93.877 118.878  0.00  0.00     0.210 C 
ATOM     15  C   LIG d   1      -0.879  93.234 119.639  0.00  0.00     0.109 C 
ATOM     16  O   LIG d   1      -1.848  94.410 117.775  0.00  0.00    -0.276 OA
ATOM     17  H   LIG d   1      -3.275  93.417 120.413  0.00  0.00     0.149 HD
ENDBRANCH   6  13
BRANCH   5  18
ATOM     18  N   LIG d   1      -3.737  96.804 118.979  0.00  0.00     0.381 N 
ATOM     19  H   LIG d   1      -2.824  96.409 119.088  0.00  0.00    -0.090 HD
ATOM     20  H   LIG d   1      -3.798  97.622 119.559  0.00  0.00    -0.090 HD
ATOM     21  H   LIG d   1      -3.889  97.051 118.026  0.00  0.00    -0.090 HD
ENDBRANCH   5  18
BRANCH   3  22
ATOM     22  C   LIG d   1      -8.428  95.870 119.227  0.00  0.00     0.382 C 
ATOM     23  O   LIG d   1      -9.312  95.550 118.396  0.00  0.00    -0.241 OA
ATOM     24  O   LIG d   1      -8.707  96.666 120.144  0.00  0.00    -0.241 OA
ENDBRANCH   3  22
TORSDOF 7
ENDMDL
MODEL 9
REMARK VINA RESULT:      -4.5      4.268      6.368
REMARK  7 active torsions:
REMARK  status: ('A' for Active; 'I' for Inactive)
REMARK    1  A    between atoms: C_2  and  C_3 
REMARK    2  A    between atoms: C_3  and  O_6 
REMARK    3  A    between atoms: C_3  and  C_4 
REMARK    4  A    between atoms: C_7  and  O_6 
REMARK    5  A    between atoms: C_9  and  C_10 
REMARK    6  A    between atoms: N_15  and  C_14 
REMARK    7  A    between atoms: N_20  and  C_19 
REMARK       I    between atoms: C_22  and  N_20 
ROOT
ATOM      1  C   LIG d   1       0.497  90.784 116.050  0.00  0.00     0.161 C 
ATOM      2  C   LIG d   1      -0.702  90.545 116.741  0.00  0.00     0.016 C 
ATOM      3  C   LIG d   1      -1.081  89.272 117.226  0.00  0.00     0.038 C 
ATOM      4  C   LIG d   1      -0.210  88.174 117.186  0.00  0.00     0.028 C 
ATOM      5  C   LIG d   1       0.804  88.247 116.049  0.00  0.00    -0.047 C 
ATOM      6  C   LIG d   1       1.511  89.621 116.094  0.00  0.00     0.091 C 
ENDROOT
BRANCH   1   7
ATOM      7  O   LIG d   1       1.107  91.997 116.533  0.00  0.00    -0.368 OA
BRANCH   7   8
ATOM      8  C   LIG d   1       1.346  92.066 117.960  0.00  0.00     0.119 C 
BRANCH   8   9
ATOM      9  C   LIG d   1       1.030  93.505 118.414  0.00  0.00     0.028 C 
ATOM     10  C   LIG d   1      -0.222  94.075 117.728  0.00  0.00     0.006 C 
ENDBRANCH   8   9
BRANCH   8  11
ATOM     11  C   LIG d   1       2.827  91.853 118.288  0.00  0.00     0.028 C 
ATOM     12  C   LIG d   1       3.764  92.557 117.294  0.00  0.00     0.006 C 
ENDBRANCH   8  11
ENDBRANCH   7   8
ENDBRANCH   1   7
BRANCH   6  13
ATOM     13  N   LIG d   1       2.459  89.808 114.965  0.00  0.00    -0.311 N 
ATOM     14  C   LIG d   1       3.764  89.559 115.055  0.00  0.00     0.210 C 
ATOM     15  C   LIG d   1       4.565  89.838 113.779  0.00  0.00     0.109 C 
ATOM     16  O   LIG d   1       4.330  89.104 116.060  0.00  0.00    -0.276 OA
ATOM     17  H   LIG d   1       2.079  90.145 114.101  0.00  0.00     0.149 HD
ENDBRANCH   6  13
BRANCH   5  18
ATOM     18  N   LIG d   1       1.733  87.113 116.207  0.00  0.00     0.381 N 
ATOM     19  H   LIG d   1       1.990  87.017 117.169  0.00  0.00    -0.090 HD
ATOM     20  H   LIG d   1       2.566  87.298 115.675  0.00  0.00    -0.090 HD
ATOM     21  H   LIG d   1       1.305  86.273 115.885  0.00  0.00    -0.090 HD
ENDBRANCH   5  18
BRANCH   3  22
ATOM     22  C   LIG d   1      -2.361  89.080 117.725  0.00  0.00     0.382 C 
ATOM     23  O   LIG d   1      -3.312  89.778 117.297  0.00  0.00    -0.241 OA
ATOM     24  O   LIG d   1      -2.569  88.248 118.628  0.00  0.00    -0.241 OA
ENDBRANCH   3  22
TORSDOF 7
ENDMDL
