MODEL 1
REMARK VINA RESULT:      -5.3      0.000      0.000
REMARK  7 active torsions:
REMARK  status: ('A' for Active; 'I' for Inactive)
REMARK    1  A    between atoms: C_2  and  C_3 
REMARK    2  A    between atoms: C_3  and  O_6 
REMARK    3  A    between atoms: C_3  and  C_4 
REMARK    4  A    between atoms: C_7  and  O_6 
REMARK    5  A    between atoms: C_9  and  C_10 
REMARK    6  A    between atoms: N_15  and  C_14 
REMARK    7  A    between atoms: N_20  and  C_19 
REMARK       I    between atoms: C_22  and  N_20 
ROOT
ATOM      1  C   LIG d   1      -5.055  92.939 117.542  0.00  0.00     0.161 C 
ATOM      2  C   LIG d   1      -5.163  92.021 116.484  0.00  0.00     0.016 C 
ATOM      3  C   LIG d   1      -6.266  91.978 115.600  0.00  0.00     0.038 C 
ATOM      4  C   LIG d   1      -7.271  92.956 115.622  0.00  0.00     0.028 C 
ATOM      5  C   LIG d   1      -7.461  93.600 116.991  0.00  0.00    -0.047 C 
ATOM      6  C   LIG d   1      -6.088  94.084 117.512  0.00  0.00     0.091 C 
ENDROOT
BRANCH   1   7
ATOM      7  O   LIG d   1      -3.717  93.473 117.590  0.00  0.00    -0.368 OA
BRANCH   7   8
ATOM      8  C   LIG d   1      -2.751  92.704 118.349  0.00  0.00     0.119 C 
BRANCH   8   9
ATOM      9  C   LIG d   1      -3.339  92.482 119.756  0.00  0.00     0.028 C 
ATOM     10  C   LIG d   1      -3.153  93.705 120.670  0.00  0.00     0.006 C 
ENDBRANCH   8   9
BRANCH   8  11
ATOM     11  C   LIG d   1      -1.459  93.496 118.570  0.00  0.00     0.028 C 
ATOM     12  C   LIG d   1      -0.943  94.165 117.286  0.00  0.00     0.006 C 
ENDBRANCH   8  11
ENDBRANCH   7   8
ENDBRANCH   1   7
BRANCH   6  13
ATOM     13  N   LIG d   1      -6.171  94.651 118.884  0.00  0.00    -0.311 N 
ATOM     14  C   LIG d   1      -6.324  95.951 119.132  0.00  0.00     0.210 C 
ATOM     15  C   LIG d   1      -6.365  96.325 120.616  0.00  0.00     0.109 C 
ATOM     16  O   LIG d   1      -6.462  96.825 118.263  0.00  0.00    -0.276 OA
ATOM     17  H   LIG d   1      -6.099  94.008 119.648  0.00  0.00     0.149 HD
ENDBRANCH   6  13
BRANCH   5  18
ATOM     18  N   LIG d   1      -8.440  94.693 116.838  0.00  0.00     0.381 N 
ATOM     19  H   LIG d   1      -8.411  95.288 117.642  0.00  0.00    -0.090 HD
ATOM     20  H   LIG d   1      -9.361  94.297 116.772  0.00  0.00    -0.090 HD
ATOM     21  H   LIG d   1      -8.237  95.220 116.018  0.00  0.00    -0.090 HD
ENDBRANCH   5  18
BRANCH   3  22
ATOM     22  C   LIG d   1      -6.390  90.925 114.707  0.00  0.00     0.382 C 
ATOM     23  O   LIG d   1      -5.768  89.854 114.910  0.00  0.00    -0.241 OA
ATOM     24  O   LIG d   1      -7.082  91.047 113.678  0.00  0.00    -0.241 OA
ENDBRANCH   3  22
TORSDOF 7
ENDMDL
MODEL 2
REMARK VINA RESULT:      -5.3      0.496      1.666
REMARK  7 active torsions:
REMARK  status: ('A' for Active; 'I' for Inactive)
REMARK    1  A    between atoms: C_2  and  C_3 
REMARK    2  A    between atoms: C_3  and  O_6 
REMARK    3  A    between atoms: C_3  and  C_4 
REMARK    4  A    between atoms: C_7  and  O_6 
REMARK    5  A    between atoms: C_9  and  C_10 
REMARK    6  A    between atoms: N_15  and  C_14 
REMARK    7  A    between atoms: N_20  and  C_19 
REMARK       I    between atoms: C_22  and  N_20 
ROOT
ATOM      1  C   LIG d   1      -5.037  93.048 117.533  0.00  0.00     0.161 C 
ATOM      2  C   LIG d   1      -5.143  92.125 116.478  0.00  0.00     0.016 C 
ATOM      3  C   LIG d   1      -6.262  92.052 115.618  0.00  0.00     0.038 C 
ATOM      4  C   LIG d   1      -7.294  93.002 115.660  0.00  0.00     0.028 C 
ATOM      5  C   LIG d   1      -7.472  93.642 117.033  0.00  0.00    -0.047 C 
ATOM      6  C   LIG d   1      -6.102  94.164 117.524  0.00  0.00     0.091 C 
ENDROOT
BRANCH   1   7
ATOM      7  O   LIG d   1      -3.714  93.618 117.552  0.00  0.00    -0.368 OA
BRANCH   7   8
ATOM      8  C   LIG d   1      -2.949  93.411 118.765  0.00  0.00     0.119 C 
BRANCH   8   9
ATOM      9  C   LIG d   1      -1.503  93.078 118.350  0.00  0.00     0.028 C 
ATOM     10  C   LIG d   1      -0.921  94.111 117.371  0.00  0.00     0.006 C 
ENDBRANCH   8   9
BRANCH   8  11
ATOM     11  C   LIG d   1      -3.444  92.182 119.534  0.00  0.00     0.028 C 
ATOM     12  C   LIG d   1      -2.528  90.960 119.357  0.00  0.00     0.006 C 
ENDBRANCH   8  11
ENDBRANCH   7   8
ENDBRANCH   1   7
BRANCH   6  13
ATOM     13  N   LIG d   1      -6.171  94.731 118.896  0.00  0.00    -0.311 N 
ATOM     14  C   LIG d   1      -6.337  96.028 119.146  0.00  0.00     0.210 C 
ATOM     15  C   LIG d   1      -6.360  96.403 120.632  0.00  0.00     0.109 C 
ATOM     16  O   LIG d   1      -6.499  96.900 118.280  0.00  0.00    -0.276 OA
ATOM     17  H   LIG d   1      -6.079  94.089 119.660  0.00  0.00     0.149 HD
ENDBRANCH   6  13
BRANCH   5  18
ATOM     18  N   LIG d   1      -8.483  94.708 116.899  0.00  0.00     0.381 N 
ATOM     19  H   LIG d   1      -8.629  95.149 117.785  0.00  0.00    -0.090 HD
ATOM     20  H   LIG d   1      -9.351  94.297 116.605  0.00  0.00    -0.090 HD
ATOM     21  H   LIG d   1      -8.182  95.381 116.230  0.00  0.00    -0.090 HD
ENDBRANCH   5  18
BRANCH   3  22
ATOM     22  C   LIG d   1      -6.377  90.994 114.728  0.00  0.00     0.382 C 
ATOM     23  O   LIG d   1      -7.037  91.133 113.671  0.00  0.00    -0.241 OA
ATOM     24  O   LIG d   1      -5.866  89.889 114.992  0.00  0.00    -0.241 OA
ENDBRANCH   3  22
TORSDOF 7
ENDMDL
MODEL 3
REMARK VINA RESULT:      -5.2      1.243      1.571
REMARK  7 active torsions:
REMARK  status: ('A' for Active; 'I' for Inactive)
REMARK    1  A    between atoms: C_2  and  C_3 
REMARK    2  A    between atoms: C_3  and  O_6 
REMARK    3  A    between atoms: C_3  and  C_4 
REMARK    4  A    between atoms: C_7  and  O_6 
REMARK    5  A    between atoms: C_9  and  C_10 
REMARK    6  A    between atoms: N_15  and  C_14 
REMARK    7  A    between atoms: N_20  and  C_19 
REMARK       I    between atoms: C_22  and  N_20 
ROOT
ATOM      1  C   LIG d   1      -5.052  92.181 117.714  0.00  0.00     0.161 C 
ATOM      2  C   LIG d   1      -5.294  91.402 116.571  0.00  0.00     0.016 C 
ATOM      3  C   LIG d   1      -6.230  91.755 115.572  0.00  0.00     0.038 C 
ATOM      4  C   LIG d   1      -6.883  92.997 115.574  0.00  0.00     0.028 C 
ATOM      5  C   LIG d   1      -7.047  93.593 116.969  0.00  0.00    -0.047 C 
ATOM      6  C   LIG d   1      -5.674  93.593 117.678  0.00  0.00     0.091 C 
ENDROOT
BRANCH   1   7
ATOM      7  O   LIG d   1      -3.634  92.265 117.957  0.00  0.00    -0.368 OA
BRANCH   7   8
ATOM      8  C   LIG d   1      -3.108  91.380 118.978  0.00  0.00     0.119 C 
BRANCH   8   9
ATOM      9  C   LIG d   1      -2.501  92.261 120.086  0.00  0.00     0.028 C 
ATOM     10  C   LIG d   1      -2.175  93.682 119.595  0.00  0.00     0.006 C 
ENDBRANCH   8   9
BRANCH   8  11
ATOM     11  C   LIG d   1      -1.944  90.541 118.442  0.00  0.00     0.028 C 
ATOM     12  C   LIG d   1      -2.412  89.292 117.678  0.00  0.00     0.006 C 
ENDBRANCH   8  11
ENDBRANCH   7   8
ENDBRANCH   1   7
BRANCH   6  13
ATOM     13  N   LIG d   1      -5.760  94.082 119.079  0.00  0.00    -0.311 N 
ATOM     14  C   LIG d   1      -5.539  95.348 119.428  0.00  0.00     0.210 C 
ATOM     15  C   LIG d   1      -5.660  95.636 120.928  0.00  0.00     0.109 C 
ATOM     16  O   LIG d   1      -5.286  96.267 118.634  0.00  0.00    -0.276 OA
ATOM     17  H   LIG d   1      -5.991  93.410 119.784  0.00  0.00     0.149 HD
ENDBRANCH   6  13
BRANCH   5  18
ATOM     18  N   LIG d   1      -7.617  94.944 116.811  0.00  0.00     0.381 N 
ATOM     19  H   LIG d   1      -8.595  94.878 116.613  0.00  0.00    -0.090 HD
ATOM     20  H   LIG d   1      -7.167  95.398 116.036  0.00  0.00    -0.090 HD
ATOM     21  H   LIG d   1      -7.475  95.473 117.644  0.00  0.00    -0.090 HD
ENDBRANCH   5  18
BRANCH   3  22
ATOM     22  C   LIG d   1      -6.550  90.844 114.577  0.00  0.00     0.382 C 
ATOM     23  O   LIG d   1      -6.202  89.644 114.690  0.00  0.00    -0.241 OA
ATOM     24  O   LIG d   1      -7.145  91.216 113.548  0.00  0.00    -0.241 OA
ENDBRANCH   3  22
TORSDOF 7
ENDMDL
MODEL 4
REMARK VINA RESULT:      -4.9      1.799      4.813
REMARK  7 active torsions:
REMARK  status: ('A' for Active; 'I' for Inactive)
REMARK    1  A    between atoms: C_2  and  C_3 
REMARK    2  A    between atoms: C_3  and  O_6 
REMARK    3  A    between atoms: C_3  and  C_4 
REMARK    4  A    between atoms: C_7  and  O_6 
REMARK    5  A    between atoms: C_9  and  C_10 
REMARK    6  A    between atoms: N_15  and  C_14 
REMARK    7  A    between atoms: N_20  and  C_19 
REMARK       I    between atoms: C_22  and  N_20 
ROOT
ATOM      1  C   LIG d   1      -4.739  93.521 117.878  0.00  0.00     0.161 C 
ATOM      2  C   LIG d   1      -4.705  94.701 118.639  0.00  0.00     0.016 C 
ATOM      3  C   LIG d   1      -5.770  95.630 118.682  0.00  0.00     0.038 C 
ATOM      4  C   LIG d   1      -7.009  95.365 118.081  0.00  0.00     0.028 C 
ATOM      5  C   LIG d   1      -6.915  94.422 116.887  0.00  0.00    -0.047 C 
ATOM      6  C   LIG d   1      -6.125  93.160 117.305  0.00  0.00     0.091 C 
ENDROOT
BRANCH   1   7
ATOM      7  O   LIG d   1      -4.217  92.424 118.655  0.00  0.00    -0.368 OA
BRANCH   7   8
ATOM      8  C   LIG d   1      -3.042  91.767 118.120  0.00  0.00     0.119 C 
BRANCH   8   9
ATOM      9  C   LIG d   1      -3.179  90.261 118.416  0.00  0.00     0.028 C 
ATOM     10  C   LIG d   1      -2.208  89.408 117.582  0.00  0.00     0.006 C 
ENDBRANCH   8   9
BRANCH   8  11
ATOM     11  C   LIG d   1      -1.773  92.210 118.853  0.00  0.00     0.028 C 
ATOM     12  C   LIG d   1      -0.824  93.027 117.962  0.00  0.00     0.006 C 
ENDBRANCH   8  11
ENDBRANCH   7   8
ENDBRANCH   1   7
BRANCH   6  13
ATOM     13  N   LIG d   1      -5.914  92.222 116.172  0.00  0.00    -0.311 N 
ATOM     14  C   LIG d   1      -6.728  91.203 115.902  0.00  0.00     0.210 C 
ATOM     15  C   LIG d   1      -6.316  90.347 114.701  0.00  0.00     0.109 C 
ATOM     16  O   LIG d   1      -7.769  90.946 116.524  0.00  0.00    -0.276 OA
ATOM     17  H   LIG d   1      -5.109  92.376 115.597  0.00  0.00     0.149 HD
ENDBRANCH   6  13
BRANCH   5  18
ATOM     18  N   LIG d   1      -8.290  94.123 116.445  0.00  0.00     0.381 N 
ATOM     19  H   LIG d   1      -8.334  93.193 116.080  0.00  0.00    -0.090 HD
ATOM     20  H   LIG d   1      -8.541  94.762 115.711  0.00  0.00    -0.090 HD
ATOM     21  H   LIG d   1      -8.922  94.218 117.209  0.00  0.00    -0.090 HD
ENDBRANCH   5  18
BRANCH   3  22
ATOM     22  C   LIG d   1      -5.585  96.859 119.298  0.00  0.00     0.382 C 
ATOM     23  O   LIG d   1      -4.447  97.386 119.318  0.00  0.00    -0.241 OA
ATOM     24  O   LIG d   1      -6.534  97.425 119.874  0.00  0.00    -0.241 OA
ENDBRANCH   3  22
TORSDOF 7
ENDMDL
MODEL 5
REMARK VINA RESULT:      -4.6      1.410      1.886
REMARK  7 active torsions:
REMARK  status: ('A' for Active; 'I' for Inactive)
REMARK    1  A    between atoms: C_2  and  C_3 
REMARK    2  A    between atoms: C_3  and  O_6 
REMARK    3  A    between atoms: C_3  and  C_4 
REMARK    4  A    between atoms: C_7  and  O_6 
REMARK    5  A    between atoms: C_9  and  C_10 
REMARK    6  A    between atoms: N_15  and  C_14 
REMARK    7  A    between atoms: N_20  and  C_19 
REMARK       I    between atoms: C_22  and  N_20 
ROOT
ATOM      1  C   LIG d   1      -5.464  92.868 118.845  0.00  0.00     0.161 C 
ATOM      2  C   LIG d   1      -5.168  91.872 117.900  0.00  0.00     0.016 C 
ATOM      3  C   LIG d   1      -5.882  91.710 116.690  0.00  0.00     0.038 C 
ATOM      4  C   LIG d   1      -6.849  92.636 116.270  0.00  0.00     0.028 C 
ATOM      5  C   LIG d   1      -7.528  93.366 117.424  0.00  0.00    -0.047 C 
ATOM      6  C   LIG d   1      -6.443  93.955 118.354  0.00  0.00     0.091 C 
ENDROOT
BRANCH   1   7
ATOM      7  O   LIG d   1      -4.243  93.470 119.319  0.00  0.00    -0.368 OA
BRANCH   7   8
ATOM      8  C   LIG d   1      -3.722  94.563 118.523  0.00  0.00     0.119 C 
BRANCH   8   9
ATOM      9  C   LIG d   1      -2.431  94.066 117.844  0.00  0.00     0.028 C 
ATOM     10  C   LIG d   1      -1.604  93.145 118.756  0.00  0.00     0.006 C 
ENDBRANCH   8   9
BRANCH   8  11
ATOM     11  C   LIG d   1      -3.289  95.737 119.406  0.00  0.00     0.028 C 
ATOM     12  C   LIG d   1      -3.857  97.083 118.929  0.00  0.00     0.006 C 
ENDBRANCH   8  11
ENDBRANCH   7   8
ENDBRANCH   1   7
BRANCH   6  13
ATOM     13  N   LIG d   1      -7.021  94.615 119.553  0.00  0.00    -0.311 N 
ATOM     14  C   LIG d   1      -7.367  95.901 119.588  0.00  0.00     0.210 C 
ATOM     15  C   LIG d   1      -7.926  96.384 120.930  0.00  0.00     0.109 C 
ATOM     16  O   LIG d   1      -7.293  96.679 118.625  0.00  0.00    -0.276 OA
ATOM     17  H   LIG d   1      -7.145  94.049 120.370  0.00  0.00     0.149 HD
ENDBRANCH   6  13
BRANCH   5  18
ATOM     18  N   LIG d   1      -8.411  94.395 116.841  0.00  0.00     0.381 N 
ATOM     19  H   LIG d   1      -8.292  94.420 115.848  0.00  0.00    -0.090 HD
ATOM     20  H   LIG d   1      -8.153  95.293 117.213  0.00  0.00    -0.090 HD
ATOM     21  H   LIG d   1      -9.361  94.196 117.065  0.00  0.00    -0.090 HD
ENDBRANCH   5  18
BRANCH   3  22
ATOM     22  C   LIG d   1      -5.657  90.590 115.904  0.00  0.00     0.382 C 
ATOM     23  O   LIG d   1      -4.501  90.114 115.807  0.00  0.00    -0.241 OA
ATOM     24  O   LIG d   1      -6.588  90.077 115.255  0.00  0.00    -0.241 OA
ENDBRANCH   3  22
TORSDOF 7
ENDMDL
MODEL 6
REMARK VINA RESULT:      -4.6      4.944      7.741
REMARK  7 active torsions:
REMARK  status: ('A' for Active; 'I' for Inactive)
REMARK    1  A    between atoms: C_2  and  C_3 
REMARK    2  A    between atoms: C_3  and  O_6 
REMARK    3  A    between atoms: C_3  and  C_4 
REMARK    4  A    between atoms: C_7  and  O_6 
REMARK    5  A    between atoms: C_9  and  C_10 
REMARK    6  A    between atoms: N_15  and  C_14 
REMARK    7  A    between atoms: N_20  and  C_19 
REMARK       I    between atoms: C_22  and  N_20 
ROOT
ATOM      1  C   LIG d   1       0.654  91.192 118.713  0.00  0.00     0.161 C 
ATOM      2  C   LIG d   1       1.801  91.709 118.088  0.00  0.00     0.016 C 
ATOM      3  C   LIG d   1       2.395  91.125 116.946  0.00  0.00     0.038 C 
ATOM      4  C   LIG d   1       1.792  90.062 116.258  0.00  0.00     0.028 C 
ATOM      5  C   LIG d   1       0.907  89.191 117.144  0.00  0.00    -0.047 C 
ATOM      6  C   LIG d   1      -0.082  90.098 117.911  0.00  0.00     0.091 C 
ENDROOT
BRANCH   1   7
ATOM      7  O   LIG d   1      -0.250  92.265 119.043  0.00  0.00    -0.368 OA
BRANCH   7   8
ATOM      8  C   LIG d   1      -1.197  92.639 118.012  0.00  0.00     0.119 C 
BRANCH   8   9
ATOM      9  C   LIG d   1      -0.781  94.025 117.482  0.00  0.00     0.028 C 
ATOM     10  C   LIG d   1      -1.308  95.172 118.360  0.00  0.00     0.006 C 
ENDBRANCH   8   9
BRANCH   8  11
ATOM     11  C   LIG d   1      -2.602  92.832 118.591  0.00  0.00     0.028 C 
ATOM     12  C   LIG d   1      -2.753  92.239 120.001  0.00  0.00     0.006 C 
ENDBRANCH   8  11
ENDBRANCH   7   8
ENDBRANCH   1   7
BRANCH   6  13
ATOM     13  N   LIG d   1      -0.928  89.334 118.865  0.00  0.00    -0.311 N 
ATOM     14  C   LIG d   1      -2.159  88.915 118.579  0.00  0.00     0.210 C 
ATOM     15  C   LIG d   1      -2.866  88.162 119.711  0.00  0.00     0.109 C 
ATOM     16  O   LIG d   1      -2.722  89.067 117.484  0.00  0.00    -0.276 OA
ATOM     17  H   LIG d   1      -0.538  89.139 119.766  0.00  0.00     0.149 HD
ENDBRANCH   6  13
BRANCH   5  18
ATOM     18  N   LIG d   1       0.234  88.208 116.274  0.00  0.00     0.381 N 
ATOM     19  H   LIG d   1      -0.463  88.666 115.721  0.00  0.00    -0.090 HD
ATOM     20  H   LIG d   1      -0.220  87.521 116.850  0.00  0.00    -0.090 HD
ATOM     21  H   LIG d   1       0.901  87.766 115.680  0.00  0.00    -0.090 HD
ENDBRANCH   5  18
BRANCH   3  22
ATOM     22  C   LIG d   1       3.629  91.579 116.505  0.00  0.00     0.382 C 
ATOM     23  O   LIG d   1       4.062  92.691 116.891  0.00  0.00    -0.241 OA
ATOM     24  O   LIG d   1       4.294  90.911 115.690  0.00  0.00    -0.241 OA
ENDBRANCH   3  22
TORSDOF 7
ENDMDL
MODEL 7
REMARK VINA RESULT:      -4.5      2.261      3.455
REMARK  7 active torsions:
REMARK  status: ('A' for Active; 'I' for Inactive)
REMARK    1  A    between atoms: C_2  and  C_3 
REMARK    2  A    between atoms: C_3  and  O_6 
REMARK    3  A    between atoms: C_3  and  C_4 
REMARK    4  A    between atoms: C_7  and  O_6 
REMARK    5  A    between atoms: C_9  and  C_10 
REMARK    6  A    between atoms: N_15  and  C_14 
REMARK    7  A    between atoms: N_20  and  C_19 
REMARK       I    between atoms: C_22  and  N_20 
ROOT
ATOM      1  C   LIG d   1      -5.312  92.983 119.629  0.00  0.00     0.161 C 
ATOM      2  C   LIG d   1      -4.260  92.136 119.242  0.00  0.00     0.016 C 
ATOM      3  C   LIG d   1      -4.235  91.439 118.012  0.00  0.00     0.038 C 
ATOM      4  C   LIG d   1      -5.196  91.661 117.015  0.00  0.00     0.028 C 
ATOM      5  C   LIG d   1      -6.543  92.122 117.562  0.00  0.00    -0.047 C 
ATOM      6  C   LIG d   1      -6.315  93.324 118.507  0.00  0.00     0.091 C 
ENDROOT
BRANCH   1   7
ATOM      7  O   LIG d   1      -4.779  94.191 120.209  0.00  0.00    -0.368 OA
BRANCH   7   8
ATOM      8  C   LIG d   1      -4.498  95.271 119.285  0.00  0.00     0.119 C 
BRANCH   8   9
ATOM      9  C   LIG d   1      -2.970  95.466 119.251  0.00  0.00     0.028 C 
ATOM     10  C   LIG d   1      -2.332  94.882 117.979  0.00  0.00     0.006 C 
ENDBRANCH   8   9
BRANCH   8  11
ATOM     11  C   LIG d   1      -5.065  96.600 119.793  0.00  0.00     0.028 C 
ATOM     12  C   LIG d   1      -5.735  97.425 118.682  0.00  0.00     0.006 C 
ENDBRANCH   8  11
ENDBRANCH   7   8
ENDBRANCH   1   7
BRANCH   6  13
ATOM     13  N   LIG d   1      -7.572  93.785 119.152  0.00  0.00    -0.311 N 
ATOM     14  C   LIG d   1      -8.371  94.710 118.623  0.00  0.00     0.210 C 
ATOM     15  C   LIG d   1      -9.606  95.053 119.462  0.00  0.00     0.109 C 
ATOM     16  O   LIG d   1      -8.190  95.257 117.525  0.00  0.00    -0.276 OA
ATOM     17  H   LIG d   1      -7.812  93.371 120.032  0.00  0.00     0.149 HD
ENDBRANCH   6  13
BRANCH   5  18
ATOM     18  N   LIG d   1      -7.404  92.448 116.410  0.00  0.00     0.381 N 
ATOM     19  H   LIG d   1      -7.519  93.440 116.342  0.00  0.00    -0.090 HD
ATOM     20  H   LIG d   1      -8.309  92.035 116.553  0.00  0.00    -0.090 HD
ATOM     21  H   LIG d   1      -6.999  92.096 115.571  0.00  0.00    -0.090 HD
ENDBRANCH   5  18
BRANCH   3  22
ATOM     22  C   LIG d   1      -3.262  90.477 117.787  0.00  0.00     0.382 C 
ATOM     23  O   LIG d   1      -2.222  90.462 118.488  0.00  0.00    -0.241 OA
ATOM     24  O   LIG d   1      -3.391  89.652 116.863  0.00  0.00    -0.241 OA
ENDBRANCH   3  22
TORSDOF 7
ENDMDL
MODEL 8
REMARK VINA RESULT:      -4.5      2.753      3.892
REMARK  7 active torsions:
REMARK  status: ('A' for Active; 'I' for Inactive)
REMARK    1  A    between atoms: C_2  and  C_3 
REMARK    2  A    between atoms: C_3  and  O_6 
REMARK    3  A    between atoms: C_3  and  C_4 
REMARK    4  A    between atoms: C_7  and  O_6 
REMARK    5  A    between atoms: C_9  and  C_10 
REMARK    6  A    between atoms: N_15  and  C_14 
REMARK    7  A    between atoms: N_20  and  C_19 
REMARK       I    between atoms: C_22  and  N_20 
ROOT
ATOM      1  C   LIG d   1      -3.572  91.312 118.113  0.00  0.00     0.161 C 
ATOM      2  C   LIG d   1      -4.655  91.002 117.274  0.00  0.00     0.016 C 
ATOM      3  C   LIG d   1      -5.554  91.971 116.772  0.00  0.00     0.038 C 
ATOM      4  C   LIG d   1      -5.339  93.346 116.954  0.00  0.00     0.028 C 
ATOM      5  C   LIG d   1      -4.544  93.673 118.214  0.00  0.00    -0.047 C 
ATOM      6  C   LIG d   1      -3.257  92.818 118.231  0.00  0.00     0.091 C 
ENDROOT
BRANCH   1   7
ATOM      7  O   LIG d   1      -2.401  90.587 117.687  0.00  0.00    -0.368 OA
BRANCH   7   8
ATOM      8  C   LIG d   1      -2.359  89.182 118.040  0.00  0.00     0.119 C 
BRANCH   8   9
ATOM      9  C   LIG d   1      -2.594  89.079 119.560  0.00  0.00     0.028 C 
ATOM     10  C   LIG d   1      -2.684  87.622 120.042  0.00  0.00     0.006 C 
ENDBRANCH   8   9
BRANCH   8  11
ATOM     11  C   LIG d   1      -0.966  88.591 117.804  0.00  0.00     0.028 C 
ATOM     12  C   LIG d   1       0.165  89.531 118.252  0.00  0.00     0.006 C 
ENDBRANCH   8  11
ENDBRANCH   7   8
ENDBRANCH   1   7
BRANCH   6  13
ATOM     13  N   LIG d   1      -2.462  93.015 119.472  0.00  0.00    -0.311 N 
ATOM     14  C   LIG d   1      -1.446  93.871 119.563  0.00  0.00     0.210 C 
ATOM     15  C   LIG d   1      -0.749  93.904 120.927  0.00  0.00     0.109 C 
ATOM     16  O   LIG d   1      -1.076  94.629 118.654  0.00  0.00    -0.276 OA
ATOM     17  H   LIG d   1      -2.715  92.462 120.268  0.00  0.00     0.149 HD
ENDBRANCH   6  13
BRANCH   5  18
ATOM     18  N   LIG d   1      -4.275  95.123 118.206  0.00  0.00     0.381 N 
ATOM     19  H   LIG d   1      -3.987  95.419 119.118  0.00  0.00    -0.090 HD
ATOM     20  H   LIG d   1      -5.122  95.610 117.969  0.00  0.00    -0.090 HD
ATOM     21  H   LIG d   1      -3.564  95.335 117.541  0.00  0.00    -0.090 HD
ENDBRANCH   5  18
BRANCH   3  22
ATOM     22  C   LIG d   1      -6.704  91.566 116.113  0.00  0.00     0.382 C 
ATOM     23  O   LIG d   1      -6.888  90.351 115.862  0.00  0.00    -0.241 OA
ATOM     24  O   LIG d   1      -7.540  92.405 115.727  0.00  0.00    -0.241 OA
ENDBRANCH   3  22
TORSDOF 7
ENDMDL
MODEL 9
REMARK VINA RESULT:      -4.5      1.755      4.774
REMARK  7 active torsions:
REMARK  status: ('A' for Active; 'I' for Inactive)
REMARK    1  A    between atoms: C_2  and  C_3 
REMARK    2  A    between atoms: C_3  and  O_6 
REMARK    3  A    between atoms: C_3  and  C_4 
REMARK    4  A    between atoms: C_7  and  O_6 
REMARK    5  A    between atoms: C_9  and  C_10 
REMARK    6  A    between atoms: N_15  and  C_14 
REMARK    7  A    between atoms: N_20  and  C_19 
REMARK       I    between atoms: C_22  and  N_20 
ROOT
ATOM      1  C   LIG d   1      -5.136  93.108 117.558  0.00  0.00     0.161 C 
ATOM      2  C   LIG d   1      -5.646  94.318 118.058  0.00  0.00     0.016 C 
ATOM      3  C   LIG d   1      -6.824  94.927 117.567  0.00  0.00     0.038 C 
ATOM      4  C   LIG d   1      -7.659  94.287 116.640  0.00  0.00     0.028 C 
ATOM      5  C   LIG d   1      -6.922  93.300 115.741  0.00  0.00    -0.047 C 
ATOM      6  C   LIG d   1      -6.094  92.339 116.624  0.00  0.00     0.091 C 
ENDROOT
BRANCH   1   7
ATOM      7  O   LIG d   1      -4.718  92.266 118.650  0.00  0.00    -0.368 OA
BRANCH   7   8
ATOM      8  C   LIG d   1      -3.374  92.484 119.146  0.00  0.00     0.119 C 
BRANCH   8   9
ATOM      9  C   LIG d   1      -2.589  93.222 118.044  0.00  0.00     0.028 C 
ATOM     10  C   LIG d   1      -1.074  92.971 118.135  0.00  0.00     0.006 C 
ENDBRANCH   8   9
BRANCH   8  11
ATOM     11  C   LIG d   1      -2.634  91.159 119.352  0.00  0.00     0.028 C 
ATOM     12  C   LIG d   1      -3.259  89.998 118.563  0.00  0.00     0.006 C 
ENDBRANCH   8  11
ENDBRANCH   7   8
ENDBRANCH   1   7
BRANCH   6  13
ATOM     13  N   LIG d   1      -5.275  91.394 115.819  0.00  0.00    -0.311 N 
ATOM     14  C   LIG d   1      -5.745  90.246 115.336  0.00  0.00     0.210 C 
ATOM     15  C   LIG d   1      -4.729  89.411 114.551  0.00  0.00     0.109 C 
ATOM     16  O   LIG d   1      -6.916  89.854 115.456  0.00  0.00    -0.276 OA
ATOM     17  H   LIG d   1      -4.322  91.649 115.648  0.00  0.00     0.149 HD
ENDBRANCH   6  13
BRANCH   5  18
ATOM     18  N   LIG d   1      -7.932  92.606 114.920  0.00  0.00     0.381 N 
ATOM     19  H   LIG d   1      -8.501  93.276 114.443  0.00  0.00    -0.090 HD
ATOM     20  H   LIG d   1      -8.524  92.062 115.523  0.00  0.00    -0.090 HD
ATOM     21  H   LIG d   1      -7.483  92.010 114.259  0.00  0.00    -0.090 HD
ENDBRANCH   5  18
BRANCH   3  22
ATOM     22  C   LIG d   1      -7.155  96.210 117.976  0.00  0.00     0.382 C 
ATOM     23  O   LIG d   1      -6.255  97.070 118.133  0.00  0.00    -0.241 OA
ATOM     24  O   LIG d   1      -8.337  96.506 118.233  0.00  0.00    -0.241 OA
ENDBRANCH   3  22
TORSDOF 7
ENDMDL
