MODEL 1
REMARK VINA RESULT:      -5.5      0.000      0.000
REMARK  7 active torsions:
REMARK  status: ('A' for Active; 'I' for Inactive)
REMARK    1  A    between atoms: C_2  and  C_3 
REMARK    2  A    between atoms: C_3  and  O_6 
REMARK    3  A    between atoms: C_3  and  C_4 
REMARK    4  A    between atoms: C_7  and  O_6 
REMARK    5  A    between atoms: C_9  and  C_10 
REMARK    6  A    between atoms: N_15  and  C_14 
REMARK    7  A    between atoms: N_20  and  C_19 
REMARK       I    between atoms: C_22  and  N_20 
ROOT
ATOM      1  C   LIG d   1      -4.003  90.553 116.909  0.00  0.00     0.161 C 
ATOM      2  C   LIG d   1      -4.866  90.322 115.824  0.00  0.00     0.016 C 
ATOM      3  C   LIG d   1      -5.885  91.221 115.435  0.00  0.00     0.038 C 
ATOM      4  C   LIG d   1      -6.013  92.492 116.014  0.00  0.00     0.028 C 
ATOM      5  C   LIG d   1      -5.490  92.561 117.445  0.00  0.00    -0.047 C 
ATOM      6  C   LIG d   1      -4.056  91.984 117.484  0.00  0.00     0.091 C 
ENDROOT
BRANCH   1   7
ATOM      7  O   LIG d   1      -2.653  90.211 116.541  0.00  0.00    -0.368 OA
BRANCH   7   8
ATOM      8  C   LIG d   1      -2.232  88.859 116.849  0.00  0.00     0.119 C 
BRANCH   8   9
ATOM      9  C   LIG d   1      -2.474  88.629 118.353  0.00  0.00     0.028 C 
ATOM     10  C   LIG d   1      -1.628  87.474 118.914  0.00  0.00     0.006 C 
ENDBRANCH   8   9
BRANCH   8  11
ATOM     11  C   LIG d   1      -0.723  88.686 116.650  0.00  0.00     0.028 C 
ATOM     12  C   LIG d   1       0.028  90.026 116.597  0.00  0.00     0.006 C 
ENDBRANCH   8  11
ENDBRANCH   7   8
ENDBRANCH   1   7
BRANCH   6  13
ATOM     13  N   LIG d   1      -3.501  91.937 118.861  0.00  0.00    -0.311 N 
ATOM     14  C   LIG d   1      -2.286  92.380 119.178  0.00  0.00     0.210 C 
ATOM     15  C   LIG d   1      -1.902  92.219 120.652  0.00  0.00     0.109 C 
ATOM     16  O   LIG d   1      -1.501  92.921 118.384  0.00  0.00    -0.276 OA
ATOM     17  H   LIG d   1      -4.083  91.542 119.574  0.00  0.00     0.149 HD
ENDBRANCH   6  13
BRANCH   5  18
ATOM     18  N   LIG d   1      -5.558  93.970 117.877  0.00  0.00     0.381 N 
ATOM     19  H   LIG d   1      -5.524  94.571 117.078  0.00  0.00    -0.090 HD
ATOM     20  H   LIG d   1      -4.762  94.171 118.457  0.00  0.00    -0.090 HD
ATOM     21  H   LIG d   1      -6.399  94.130 118.387  0.00  0.00    -0.090 HD
ENDBRANCH   5  18
BRANCH   3  22
ATOM     22  C   LIG d   1      -6.814  90.835 114.481  0.00  0.00     0.382 C 
ATOM     23  O   LIG d   1      -7.082  89.620 114.322  0.00  0.00    -0.241 OA
ATOM     24  O   LIG d   1      -7.356  91.684 113.747  0.00  0.00    -0.241 OA
ENDBRANCH   3  22
TORSDOF 7
ENDMDL
MODEL 2
REMARK VINA RESULT:      -5.4      0.995      1.751
REMARK  7 active torsions:
REMARK  status: ('A' for Active; 'I' for Inactive)
REMARK    1  A    between atoms: C_2  and  C_3 
REMARK    2  A    between atoms: C_3  and  O_6 
REMARK    3  A    between atoms: C_3  and  C_4 
REMARK    4  A    between atoms: C_7  and  O_6 
REMARK    5  A    between atoms: C_9  and  C_10 
REMARK    6  A    between atoms: N_15  and  C_14 
REMARK    7  A    between atoms: N_20  and  C_19 
REMARK       I    between atoms: C_22  and  N_20 
ROOT
ATOM      1  C   LIG d   1      -4.064  90.885 117.072  0.00  0.00     0.161 C 
ATOM      2  C   LIG d   1      -5.099  90.321 116.308  0.00  0.00     0.016 C 
ATOM      3  C   LIG d   1      -6.305  90.998 116.010  0.00  0.00     0.038 C 
ATOM      4  C   LIG d   1      -6.495  92.350 116.332  0.00  0.00     0.028 C 
ATOM      5  C   LIG d   1      -5.685  92.804 117.541  0.00  0.00    -0.047 C 
ATOM      6  C   LIG d   1      -4.207  92.399 117.337  0.00  0.00     0.091 C 
ENDROOT
BRANCH   1   7
ATOM      7  O   LIG d   1      -2.792  90.602 116.456  0.00  0.00    -0.368 OA
BRANCH   7   8
ATOM      8  C   LIG d   1      -1.844  89.861 117.263  0.00  0.00     0.119 C 
BRANCH   8   9
ATOM      9  C   LIG d   1      -0.475  89.942 116.560  0.00  0.00     0.028 C 
ATOM     10  C   LIG d   1       0.329  91.183 116.983  0.00  0.00     0.006 C 
ENDBRANCH   8   9
BRANCH   8  11
ATOM     11  C   LIG d   1      -2.192  88.370 117.303  0.00  0.00     0.028 C 
ATOM     12  C   LIG d   1      -1.357  87.590 118.330  0.00  0.00     0.006 C 
ENDBRANCH   8  11
ENDBRANCH   7   8
ENDBRANCH   1   7
BRANCH   6  13
ATOM     13  N   LIG d   1      -3.361  92.731 118.513  0.00  0.00    -0.311 N 
ATOM     14  C   LIG d   1      -2.252  93.465 118.433  0.00  0.00     0.210 C 
ATOM     15  C   LIG d   1      -1.517  93.672 119.761  0.00  0.00     0.109 C 
ATOM     16  O   LIG d   1      -1.825  93.991 117.395  0.00  0.00    -0.276 OA
ATOM     17  H   LIG d   1      -3.651  92.371 119.400  0.00  0.00     0.149 HD
ENDBRANCH   6  13
BRANCH   5  18
ATOM     18  N   LIG d   1      -5.870  94.261 117.680  0.00  0.00     0.381 N 
ATOM     19  H   LIG d   1      -5.972  94.677 116.776  0.00  0.00    -0.090 HD
ATOM     20  H   LIG d   1      -5.055  94.653 118.118  0.00  0.00    -0.090 HD
ATOM     21  H   LIG d   1      -6.677  94.451 118.234  0.00  0.00    -0.090 HD
ENDBRANCH   5  18
BRANCH   3  22
ATOM     22  C   LIG d   1      -7.352  90.308 115.418  0.00  0.00     0.382 C 
ATOM     23  O   LIG d   1      -7.814  89.279 115.967  0.00  0.00    -0.241 OA
ATOM     24  O   LIG d   1      -7.810  90.676 114.320  0.00  0.00    -0.241 OA
ENDBRANCH   3  22
TORSDOF 7
ENDMDL
MODEL 3
REMARK VINA RESULT:      -5.2      3.183      4.955
REMARK  7 active torsions:
REMARK  status: ('A' for Active; 'I' for Inactive)
REMARK    1  A    between atoms: C_2  and  C_3 
REMARK    2  A    between atoms: C_3  and  O_6 
REMARK    3  A    between atoms: C_3  and  C_4 
REMARK    4  A    between atoms: C_7  and  O_6 
REMARK    5  A    between atoms: C_9  and  C_10 
REMARK    6  A    between atoms: N_15  and  C_14 
REMARK    7  A    between atoms: N_20  and  C_19 
REMARK       I    between atoms: C_22  and  N_20 
ROOT
ATOM      1  C   LIG d   1      -5.815  93.367 117.886  0.00  0.00     0.161 C 
ATOM      2  C   LIG d   1      -6.903  94.253 117.811  0.00  0.00     0.016 C 
ATOM      3  C   LIG d   1      -6.958  95.479 118.513  0.00  0.00     0.038 C 
ATOM      4  C   LIG d   1      -5.855  95.976 119.224  0.00  0.00     0.028 C 
ATOM      5  C   LIG d   1      -4.924  94.884 119.739  0.00  0.00    -0.047 C 
ATOM      6  C   LIG d   1      -4.557  93.944 118.568  0.00  0.00     0.091 C 
ENDROOT
BRANCH   1   7
ATOM      7  O   LIG d   1      -5.491  92.878 116.569  0.00  0.00    -0.368 OA
BRANCH   7   8
ATOM      8  C   LIG d   1      -6.384  91.876 116.024  0.00  0.00     0.119 C 
BRANCH   8   9
ATOM      9  C   LIG d   1      -5.852  90.497 116.457  0.00  0.00     0.028 C 
ATOM     10  C   LIG d   1      -4.562  90.106 115.716  0.00  0.00     0.006 C 
ENDBRANCH   8   9
BRANCH   8  11
ATOM     11  C   LIG d   1      -6.341  91.865 114.493  0.00  0.00     0.028 C 
ATOM     12  C   LIG d   1      -7.647  91.355 113.864  0.00  0.00     0.006 C 
ENDBRANCH   8  11
ENDBRANCH   7   8
ENDBRANCH   1   7
BRANCH   6  13
ATOM     13  N   LIG d   1      -3.716  92.799 119.003  0.00  0.00    -0.311 N 
ATOM     14  C   LIG d   1      -2.628  92.397 118.347  0.00  0.00     0.210 C 
ATOM     15  C   LIG d   1      -1.918  91.184 118.955  0.00  0.00     0.109 C 
ATOM     16  O   LIG d   1      -2.167  92.950 117.338  0.00  0.00    -0.276 OA
ATOM     17  H   LIG d   1      -4.000  92.312 119.831  0.00  0.00     0.149 HD
ENDBRANCH   6  13
BRANCH   5  18
ATOM     18  N   LIG d   1      -3.750  95.546 120.339  0.00  0.00     0.381 N 
ATOM     19  H   LIG d   1      -2.911  95.148 119.968  0.00  0.00    -0.090 HD
ATOM     20  H   LIG d   1      -3.761  95.391 121.332  0.00  0.00    -0.090 HD
ATOM     21  H   LIG d   1      -3.775  96.524 120.148  0.00  0.00    -0.090 HD
ENDBRANCH   5  18
BRANCH   3  22
ATOM     22  C   LIG d   1      -8.140  96.202 118.540  0.00  0.00     0.382 C 
ATOM     23  O   LIG d   1      -8.237  97.217 119.272  0.00  0.00    -0.241 OA
ATOM     24  O   LIG d   1      -9.126  95.828 117.877  0.00  0.00    -0.241 OA
ENDBRANCH   3  22
TORSDOF 7
ENDMDL
MODEL 4
REMARK VINA RESULT:      -5.1      1.385      2.054
REMARK  7 active torsions:
REMARK  status: ('A' for Active; 'I' for Inactive)
REMARK    1  A    between atoms: C_2  and  C_3 
REMARK    2  A    between atoms: C_3  and  O_6 
REMARK    3  A    between atoms: C_3  and  C_4 
REMARK    4  A    between atoms: C_7  and  O_6 
REMARK    5  A    between atoms: C_9  and  C_10 
REMARK    6  A    between atoms: N_15  and  C_14 
REMARK    7  A    between atoms: N_20  and  C_19 
REMARK       I    between atoms: C_22  and  N_20 
ROOT
ATOM      1  C   LIG d   1      -2.759  90.188 117.097  0.00  0.00     0.161 C 
ATOM      2  C   LIG d   1      -3.854  89.977 116.242  0.00  0.00     0.016 C 
ATOM      3  C   LIG d   1      -4.853  90.948 116.001  0.00  0.00     0.038 C 
ATOM      4  C   LIG d   1      -4.742  92.261 116.485  0.00  0.00     0.028 C 
ATOM      5  C   LIG d   1      -3.915  92.368 117.761  0.00  0.00    -0.047 C 
ATOM      6  C   LIG d   1      -2.562  91.651 117.545  0.00  0.00     0.091 C 
ENDROOT
BRANCH   1   7
ATOM      7  O   LIG d   1      -1.556  89.686 116.482  0.00  0.00    -0.368 OA
BRANCH   7   8
ATOM      8  C   LIG d   1      -0.842  88.665 117.220  0.00  0.00     0.119 C 
BRANCH   8   9
ATOM      9  C   LIG d   1      -0.453  87.558 116.221  0.00  0.00     0.028 C 
ATOM     10  C   LIG d   1       1.062  87.510 115.959  0.00  0.00     0.006 C 
ENDBRANCH   8   9
BRANCH   8  11
ATOM     11  C   LIG d   1      -1.750  87.982 118.248  0.00  0.00     0.028 C 
ATOM     12  C   LIG d   1      -1.106  86.737 118.877  0.00  0.00     0.006 C 
ENDBRANCH   8  11
ENDBRANCH   7   8
ENDBRANCH   1   7
BRANCH   6  13
ATOM     13  N   LIG d   1      -1.726  91.637 118.773  0.00  0.00    -0.311 N 
ATOM     14  C   LIG d   1      -0.478  92.101 118.816  0.00  0.00     0.210 C 
ATOM     15  C   LIG d   1       0.213  91.972 120.177  0.00  0.00     0.109 C 
ATOM     16  O   LIG d   1       0.110  92.636 117.865  0.00  0.00    -0.276 OA
ATOM     17  H   LIG d   1      -2.136  91.248 119.600  0.00  0.00     0.149 HD
ENDBRANCH   6  13
BRANCH   5  18
ATOM     18  N   LIG d   1      -3.766  93.801 118.076  0.00  0.00     0.381 N 
ATOM     19  H   LIG d   1      -4.537  94.314 117.698  0.00  0.00    -0.090 HD
ATOM     20  H   LIG d   1      -2.922  94.142 117.650  0.00  0.00    -0.090 HD
ATOM     21  H   LIG d   1      -3.724  93.931 119.063  0.00  0.00    -0.090 HD
ENDBRANCH   5  18
BRANCH   3  22
ATOM     22  C   LIG d   1      -5.998  90.599 115.302  0.00  0.00     0.382 C 
ATOM     23  O   LIG d   1      -6.592  89.526 115.569  0.00  0.00    -0.241 OA
ATOM     24  O   LIG d   1      -6.419  91.320 114.378  0.00  0.00    -0.241 OA
ENDBRANCH   3  22
TORSDOF 7
ENDMDL
MODEL 5
REMARK VINA RESULT:      -5.1      1.798      4.646
REMARK  7 active torsions:
REMARK  status: ('A' for Active; 'I' for Inactive)
REMARK    1  A    between atoms: C_2  and  C_3 
REMARK    2  A    between atoms: C_3  and  O_6 
REMARK    3  A    between atoms: C_3  and  C_4 
REMARK    4  A    between atoms: C_7  and  O_6 
REMARK    5  A    between atoms: C_9  and  C_10 
REMARK    6  A    between atoms: N_15  and  C_14 
REMARK    7  A    between atoms: N_20  and  C_19 
REMARK       I    between atoms: C_22  and  N_20 
ROOT
ATOM      1  C   LIG d   1      -4.275  91.359 117.161  0.00  0.00     0.161 C 
ATOM      2  C   LIG d   1      -3.194  92.095 117.676  0.00  0.00     0.016 C 
ATOM      3  C   LIG d   1      -3.345  93.320 118.366  0.00  0.00     0.038 C 
ATOM      4  C   LIG d   1      -4.606  93.820 118.721  0.00  0.00     0.028 C 
ATOM      5  C   LIG d   1      -5.722  93.371 117.784  0.00  0.00    -0.047 C 
ATOM      6  C   LIG d   1      -5.664  91.833 117.636  0.00  0.00     0.091 C 
ENDROOT
BRANCH   1   7
ATOM      7  O   LIG d   1      -4.096  89.959 117.453  0.00  0.00    -0.368 OA
BRANCH   7   8
ATOM      8  C   LIG d   1      -2.733  89.524 117.680  0.00  0.00     0.119 C 
BRANCH   8   9
ATOM      9  C   LIG d   1      -2.375  88.524 116.564  0.00  0.00     0.028 C 
ATOM     10  C   LIG d   1      -0.912  88.055 116.644  0.00  0.00     0.006 C 
ENDBRANCH   8   9
BRANCH   8  11
ATOM     11  C   LIG d   1      -2.610  88.735 118.987  0.00  0.00     0.028 C 
ATOM     12  C   LIG d   1      -1.878  89.517 120.089  0.00  0.00     0.006 C 
ENDBRANCH   8  11
ENDBRANCH   7   8
ENDBRANCH   1   7
BRANCH   6  13
ATOM     13  N   LIG d   1      -6.670  91.319 116.670  0.00  0.00    -0.311 N 
ATOM     14  C   LIG d   1      -6.721  91.698 115.394  0.00  0.00     0.210 C 
ATOM     15  C   LIG d   1      -7.848  91.061 114.575  0.00  0.00     0.109 C 
ATOM     16  O   LIG d   1      -5.922  92.478 114.855  0.00  0.00    -0.276 OA
ATOM     17  H   LIG d   1      -7.338  90.658 117.015  0.00  0.00     0.149 HD
ENDBRANCH   6  13
BRANCH   5  18
ATOM     18  N   LIG d   1      -6.998  93.850 118.349  0.00  0.00     0.381 N 
ATOM     19  H   LIG d   1      -6.884  94.051 119.322  0.00  0.00    -0.090 HD
ATOM     20  H   LIG d   1      -7.688  93.124 118.256  0.00  0.00    -0.090 HD
ATOM     21  H   LIG d   1      -7.299  94.668 117.866  0.00  0.00    -0.090 HD
ENDBRANCH   5  18
BRANCH   3  22
ATOM     22  C   LIG d   1      -2.225  94.078 118.672  0.00  0.00     0.382 C 
ATOM     23  O   LIG d   1      -1.716  94.824 117.801  0.00  0.00    -0.241 OA
ATOM     24  O   LIG d   1      -1.692  93.993 119.795  0.00  0.00    -0.241 OA
ENDBRANCH   3  22
TORSDOF 7
ENDMDL
MODEL 6
REMARK VINA RESULT:      -5.0      2.188      4.565
REMARK  7 active torsions:
REMARK  status: ('A' for Active; 'I' for Inactive)
REMARK    1  A    between atoms: C_2  and  C_3 
REMARK    2  A    between atoms: C_3  and  O_6 
REMARK    3  A    between atoms: C_3  and  C_4 
REMARK    4  A    between atoms: C_7  and  O_6 
REMARK    5  A    between atoms: C_9  and  C_10 
REMARK    6  A    between atoms: N_15  and  C_14 
REMARK    7  A    between atoms: N_20  and  C_19 
REMARK       I    between atoms: C_22  and  N_20 
ROOT
ATOM      1  C   LIG d   1      -4.947  92.420 117.224  0.00  0.00     0.161 C 
ATOM      2  C   LIG d   1      -5.950  92.105 116.292  0.00  0.00     0.016 C 
ATOM      3  C   LIG d   1      -5.920  90.949 115.478  0.00  0.00     0.038 C 
ATOM      4  C   LIG d   1      -4.953  89.947 115.648  0.00  0.00     0.028 C 
ATOM      5  C   LIG d   1      -3.640  90.464 116.227  0.00  0.00    -0.047 C 
ATOM      6  C   LIG d   1      -3.942  91.283 117.503  0.00  0.00     0.091 C 
ENDROOT
BRANCH   1   7
ATOM      7  O   LIG d   1      -5.548  92.871 118.454  0.00  0.00    -0.368 OA
BRANCH   7   8
ATOM      8  C   LIG d   1      -5.557  94.303 118.672  0.00  0.00     0.119 C 
BRANCH   8   9
ATOM      9  C   LIG d   1      -4.615  94.598 119.855  0.00  0.00     0.028 C 
ATOM     10  C   LIG d   1      -3.280  95.214 119.403  0.00  0.00     0.006 C 
ENDBRANCH   8   9
BRANCH   8  11
ATOM     11  C   LIG d   1      -6.938  94.790 119.122  0.00  0.00     0.028 C 
ATOM     12  C   LIG d   1      -7.488  95.921 118.239  0.00  0.00     0.006 C 
ENDBRANCH   8  11
ENDBRANCH   7   8
ENDBRANCH   1   7
BRANCH   6  13
ATOM     13  N   LIG d   1      -2.720  91.896 118.086  0.00  0.00    -0.311 N 
ATOM     14  C   LIG d   1      -2.022  91.340 119.075  0.00  0.00     0.210 C 
ATOM     15  C   LIG d   1      -0.807  92.148 119.541  0.00  0.00     0.109 C 
ATOM     16  O   LIG d   1      -2.276  90.240 119.589  0.00  0.00    -0.276 OA
ATOM     17  H   LIG d   1      -2.425  92.774 117.707  0.00  0.00     0.149 HD
ENDBRANCH   6  13
BRANCH   5  18
ATOM     18  N   LIG d   1      -2.775  89.297 116.481  0.00  0.00     0.381 N 
ATOM     19  H   LIG d   1      -2.141  89.172 115.717  0.00  0.00    -0.090 HD
ATOM     20  H   LIG d   1      -3.350  88.475 116.551  0.00  0.00    -0.090 HD
ATOM     21  H   LIG d   1      -2.266  89.427 117.327  0.00  0.00    -0.090 HD
ENDBRANCH   5  18
BRANCH   3  22
ATOM     22  C   LIG d   1      -6.842  90.808 114.452  0.00  0.00     0.382 C 
ATOM     23  O   LIG d   1      -7.245  89.665 114.125  0.00  0.00    -0.241 OA
ATOM     24  O   LIG d   1      -7.241  91.803 113.819  0.00  0.00    -0.241 OA
ENDBRANCH   3  22
TORSDOF 7
ENDMDL
MODEL 7
REMARK VINA RESULT:      -4.6      2.862      5.871
REMARK  7 active torsions:
REMARK  status: ('A' for Active; 'I' for Inactive)
REMARK    1  A    between atoms: C_2  and  C_3 
REMARK    2  A    between atoms: C_3  and  O_6 
REMARK    3  A    between atoms: C_3  and  C_4 
REMARK    4  A    between atoms: C_7  and  O_6 
REMARK    5  A    between atoms: C_9  and  C_10 
REMARK    6  A    between atoms: N_15  and  C_14 
REMARK    7  A    between atoms: N_20  and  C_19 
REMARK       I    between atoms: C_22  and  N_20 
ROOT
ATOM      1  C   LIG d   1      -0.763  91.811 117.399  0.00  0.00     0.161 C 
ATOM      2  C   LIG d   1       0.533  91.413 117.032  0.00  0.00     0.016 C 
ATOM      3  C   LIG d   1       1.703  92.083 117.459  0.00  0.00     0.038 C 
ATOM      4  C   LIG d   1       1.661  93.113 118.412  0.00  0.00     0.028 C 
ATOM      5  C   LIG d   1       0.341  93.875 118.422  0.00  0.00    -0.047 C 
ATOM      6  C   LIG d   1      -0.823  92.863 118.526  0.00  0.00     0.091 C 
ENDROOT
BRANCH   1   7
ATOM      7  O   LIG d   1      -1.547  90.654 117.752  0.00  0.00    -0.368 OA
BRANCH   7   8
ATOM      8  C   LIG d   1      -2.274  90.022 116.670  0.00  0.00     0.119 C 
BRANCH   8   9
ATOM      9  C   LIG d   1      -3.705  90.595 116.676  0.00  0.00     0.028 C 
ATOM     10  C   LIG d   1      -4.607  89.934 115.620  0.00  0.00     0.006 C 
ENDBRANCH   8   9
BRANCH   8  11
ATOM     11  C   LIG d   1      -2.439  88.519 116.912  0.00  0.00     0.028 C 
ATOM     12  C   LIG d   1      -1.815  88.057 118.238  0.00  0.00     0.006 C 
ENDBRANCH   8  11
ENDBRANCH   7   8
ENDBRANCH   1   7
BRANCH   6  13
ATOM     13  N   LIG d   1      -2.154  93.520 118.458  0.00  0.00    -0.311 N 
ATOM     14  C   LIG d   1      -3.108  93.339 119.369  0.00  0.00     0.210 C 
ATOM     15  C   LIG d   1      -4.413  94.095 119.098  0.00  0.00     0.109 C 
ATOM     16  O   LIG d   1      -2.988  92.649 120.392  0.00  0.00    -0.276 OA
ATOM     17  H   LIG d   1      -2.326  94.122 117.677  0.00  0.00     0.149 HD
ENDBRANCH   6  13
BRANCH   5  18
ATOM     18  N   LIG d   1       0.384  94.825 119.550  0.00  0.00     0.381 N 
ATOM     19  H   LIG d   1       0.579  94.333 120.400  0.00  0.00    -0.090 HD
ATOM     20  H   LIG d   1      -0.516  95.264 119.640  0.00  0.00    -0.090 HD
ATOM     21  H   LIG d   1       1.084  95.515 119.389  0.00  0.00    -0.090 HD
ENDBRANCH   5  18
BRANCH   3  22
ATOM     22  C   LIG d   1       2.928  91.750 116.902  0.00  0.00     0.382 C 
ATOM     23  O   LIG d   1       3.856  92.595 116.878  0.00  0.00    -0.241 OA
ATOM     24  O   LIG d   1       3.103  90.632 116.383  0.00  0.00    -0.241 OA
ENDBRANCH   3  22
TORSDOF 7
ENDMDL
MODEL 8
REMARK VINA RESULT:      -4.6      2.638      6.667
REMARK  7 active torsions:
REMARK  status: ('A' for Active; 'I' for Inactive)
REMARK    1  A    between atoms: C_2  and  C_3 
REMARK    2  A    between atoms: C_3  and  O_6 
REMARK    3  A    between atoms: C_3  and  C_4 
REMARK    4  A    between atoms: C_7  and  O_6 
REMARK    5  A    between atoms: C_9  and  C_10 
REMARK    6  A    between atoms: N_15  and  C_14 
REMARK    7  A    between atoms: N_20  and  C_19 
REMARK       I    between atoms: C_22  and  N_20 
ROOT
ATOM      1  C   LIG d   1      -5.137  92.319 118.198  0.00  0.00     0.161 C 
ATOM      2  C   LIG d   1      -4.056  92.267 119.094  0.00  0.00     0.016 C 
ATOM      3  C   LIG d   1      -2.936  91.423 118.914  0.00  0.00     0.038 C 
ATOM      4  C   LIG d   1      -2.749  90.679 117.740  0.00  0.00     0.028 C 
ATOM      5  C   LIG d   1      -4.054  90.315 117.040  0.00  0.00    -0.047 C 
ATOM      6  C   LIG d   1      -4.899  91.596 116.856  0.00  0.00     0.091 C 
ENDROOT
BRANCH   1   7
ATOM      7  O   LIG d   1      -5.516  93.690 117.969  0.00  0.00    -0.368 OA
BRANCH   7   8
ATOM      8  C   LIG d   1      -6.774  94.110 118.553  0.00  0.00     0.119 C 
BRANCH   8   9
ATOM      9  C   LIG d   1      -7.014  95.573 118.134  0.00  0.00     0.028 C 
ATOM     10  C   LIG d   1      -8.493  95.980 118.244  0.00  0.00     0.006 C 
ENDBRANCH   8   9
BRANCH   8  11
ATOM     11  C   LIG d   1      -6.697  94.133 120.083  0.00  0.00     0.028 C 
ATOM     12  C   LIG d   1      -7.733  93.211 120.745  0.00  0.00     0.006 C 
ENDBRANCH   8  11
ENDBRANCH   7   8
ENDBRANCH   1   7
BRANCH   6  13
ATOM     13  N   LIG d   1      -6.229  91.317 116.254  0.00  0.00    -0.311 N 
ATOM     14  C   LIG d   1      -6.593  91.750 115.048  0.00  0.00     0.210 C 
ATOM     15  C   LIG d   1      -8.015  91.367 114.626  0.00  0.00     0.109 C 
ATOM     16  O   LIG d   1      -5.863  92.388 114.275  0.00  0.00    -0.276 OA
ATOM     17  H   LIG d   1      -6.872  90.778 116.800  0.00  0.00     0.149 HD
ENDBRANCH   6  13
BRANCH   5  18
ATOM     18  N   LIG d   1      -3.707  89.663 115.763  0.00  0.00     0.381 N 
ATOM     19  H   LIG d   1      -3.517  88.693 115.919  0.00  0.00    -0.090 HD
ATOM     20  H   LIG d   1      -2.877  90.091 115.394  0.00  0.00    -0.090 HD
ATOM     21  H   LIG d   1      -4.457  89.761 115.115  0.00  0.00    -0.090 HD
ENDBRANCH   5  18
BRANCH   3  22
ATOM     22  C   LIG d   1      -2.007  91.288 119.935  0.00  0.00     0.382 C 
ATOM     23  O   LIG d   1      -1.187  92.210 120.162  0.00  0.00    -0.241 OA
ATOM     24  O   LIG d   1      -1.949  90.237 120.601  0.00  0.00    -0.241 OA
ENDBRANCH   3  22
TORSDOF 7
ENDMDL
MODEL 9
REMARK VINA RESULT:      -4.6      2.420      4.740
REMARK  7 active torsions:
REMARK  status: ('A' for Active; 'I' for Inactive)
REMARK    1  A    between atoms: C_2  and  C_3 
REMARK    2  A    between atoms: C_3  and  O_6 
REMARK    3  A    between atoms: C_3  and  C_4 
REMARK    4  A    between atoms: C_7  and  O_6 
REMARK    5  A    between atoms: C_9  and  C_10 
REMARK    6  A    between atoms: N_15  and  C_14 
REMARK    7  A    between atoms: N_20  and  C_19 
REMARK       I    between atoms: C_22  and  N_20 
ROOT
ATOM      1  C   LIG d   1      -3.696  92.760 117.489  0.00  0.00     0.161 C 
ATOM      2  C   LIG d   1      -4.918  92.186 117.100  0.00  0.00     0.016 C 
ATOM      3  C   LIG d   1      -5.033  90.873 116.587  0.00  0.00     0.038 C 
ATOM      4  C   LIG d   1      -3.946  89.987 116.569  0.00  0.00     0.028 C 
ATOM      5  C   LIG d   1      -2.594  90.687 116.480  0.00  0.00    -0.047 C 
ATOM      6  C   LIG d   1      -2.516  91.770 117.581  0.00  0.00     0.091 C 
ENDROOT
BRANCH   1   7
ATOM      7  O   LIG d   1      -3.861  93.461 118.737  0.00  0.00    -0.368 OA
BRANCH   7   8
ATOM      8  C   LIG d   1      -5.226  93.698 119.160  0.00  0.00     0.119 C 
BRANCH   8   9
ATOM      9  C   LIG d   1      -5.494  95.210 119.032  0.00  0.00     0.028 C 
ATOM     10  C   LIG d   1      -6.821  95.512 118.316  0.00  0.00     0.006 C 
ENDBRANCH   8   9
BRANCH   8  11
ATOM     11  C   LIG d   1      -5.413  93.378 120.646  0.00  0.00     0.028 C 
ATOM     12  C   LIG d   1      -6.599  92.435 120.908  0.00  0.00     0.006 C 
ENDBRANCH   8  11
ENDBRANCH   7   8
ENDBRANCH   1   7
BRANCH   6  13
ATOM     13  N   LIG d   1      -1.260  92.560 117.511  0.00  0.00    -0.311 N 
ATOM     14  C   LIG d   1      -0.416  92.687 118.533  0.00  0.00     0.210 C 
ATOM     15  C   LIG d   1       0.810  93.562 118.255  0.00  0.00     0.109 C 
ATOM     16  O   LIG d   1      -0.551  92.133 119.635  0.00  0.00    -0.276 OA
ATOM     17  H   LIG d   1      -1.056  93.017 116.644  0.00  0.00     0.149 HD
ENDBRANCH   6  13
BRANCH   5  18
ATOM     18  N   LIG d   1      -1.548  89.655 116.609  0.00  0.00     0.381 N 
ATOM     19  H   LIG d   1      -1.972  88.754 116.709  0.00  0.00    -0.090 HD
ATOM     20  H   LIG d   1      -1.008  89.842 117.436  0.00  0.00    -0.090 HD
ATOM     21  H   LIG d   1      -0.957  89.666 115.807  0.00  0.00    -0.090 HD
ENDBRANCH   5  18
BRANCH   3  22
ATOM     22  C   LIG d   1      -6.238  90.449 116.048  0.00  0.00     0.382 C 
ATOM     23  O   LIG d   1      -7.310  91.000 116.398  0.00  0.00    -0.241 OA
ATOM     24  O   LIG d   1      -6.271  89.494 115.249  0.00  0.00    -0.241 OA
ENDBRANCH   3  22
TORSDOF 7
ENDMDL
