MODEL 1
REMARK VINA RESULT:      -5.2      0.000      0.000
REMARK  7 active torsions:
REMARK  status: ('A' for Active; 'I' for Inactive)
REMARK    1  A    between atoms: C_2  and  C_3 
REMARK    2  A    between atoms: C_3  and  O_6 
REMARK    3  A    between atoms: C_3  and  C_4 
REMARK    4  A    between atoms: C_7  and  O_6 
REMARK    5  A    between atoms: C_9  and  C_10 
REMARK    6  A    between atoms: N_15  and  C_14 
REMARK    7  A    between atoms: N_20  and  C_19 
REMARK       I    between atoms: C_22  and  N_20 
ROOT
ATOM      1  C   LIG d   1      -5.173  92.622 117.536  0.00  0.00     0.161 C 
ATOM      2  C   LIG d   1      -6.219  91.763 117.160  0.00  0.00     0.016 C 
ATOM      3  C   LIG d   1      -6.023  90.409 116.804  0.00  0.00     0.038 C 
ATOM      4  C   LIG d   1      -4.778  89.777 116.946  0.00  0.00     0.028 C 
ATOM      5  C   LIG d   1      -3.597  90.736 116.841  0.00  0.00    -0.047 C 
ATOM      6  C   LIG d   1      -3.825  91.922 117.805  0.00  0.00     0.091 C 
ENDROOT
BRANCH   1   7
ATOM      7  O   LIG d   1      -5.570  93.402 118.682  0.00  0.00    -0.368 OA
BRANCH   7   8
ATOM      8  C   LIG d   1      -6.941  93.873 118.689  0.00  0.00     0.119 C 
BRANCH   8   9
ATOM      9  C   LIG d   1      -6.924  95.352 118.258  0.00  0.00     0.028 C 
ATOM     10  C   LIG d   1      -5.986  96.206 119.129  0.00  0.00     0.006 C 
ENDBRANCH   8   9
BRANCH   8  11
ATOM     11  C   LIG d   1      -7.524  93.869 120.105  0.00  0.00     0.028 C 
ATOM     12  C   LIG d   1      -9.046  94.083 120.123  0.00  0.00     0.006 C 
ENDBRANCH   8  11
ENDBRANCH   7   8
ENDBRANCH   1   7
BRANCH   6  13
ATOM     13  N   LIG d   1      -2.756  92.949 117.703  0.00  0.00    -0.311 N 
ATOM     14  C   LIG d   1      -2.011  93.337 118.737  0.00  0.00     0.210 C 
ATOM     15  C   LIG d   1      -0.978  94.423 118.418  0.00  0.00     0.109 C 
ATOM     16  O   LIG d   1      -2.084  92.861 119.880  0.00  0.00    -0.276 OA
ATOM     17  H   LIG d   1      -2.608  93.365 116.805  0.00  0.00     0.149 HD
ENDBRANCH   6  13
BRANCH   5  18
ATOM     18  N   LIG d   1      -2.373  89.970 117.145  0.00  0.00     0.381 N 
ATOM     19  H   LIG d   1      -2.571  88.990 117.116  0.00  0.00    -0.090 HD
ATOM     20  H   LIG d   1      -2.067  90.203 118.073  0.00  0.00    -0.090 HD
ATOM     21  H   LIG d   1      -1.660  90.192 116.486  0.00  0.00    -0.090 HD
ENDBRANCH   5  18
BRANCH   3  22
ATOM     22  C   LIG d   1      -7.071  89.682 116.260  0.00  0.00     0.382 C 
ATOM     23  O   LIG d   1      -7.168  89.556 115.015  0.00  0.00    -0.241 OA
ATOM     24  O   LIG d   1      -7.947  89.189 116.996  0.00  0.00    -0.241 OA
ENDBRANCH   3  22
TORSDOF 7
ENDMDL
MODEL 2
REMARK VINA RESULT:      -5.1      2.312      4.851
REMARK  7 active torsions:
REMARK  status: ('A' for Active; 'I' for Inactive)
REMARK    1  A    between atoms: C_2  and  C_3 
REMARK    2  A    between atoms: C_3  and  O_6 
REMARK    3  A    between atoms: C_3  and  C_4 
REMARK    4  A    between atoms: C_7  and  O_6 
REMARK    5  A    between atoms: C_9  and  C_10 
REMARK    6  A    between atoms: N_15  and  C_14 
REMARK    7  A    between atoms: N_20  and  C_19 
REMARK       I    between atoms: C_22  and  N_20 
ROOT
ATOM      1  C   LIG d   1      -3.743  90.460 117.908  0.00  0.00     0.161 C 
ATOM      2  C   LIG d   1      -4.719  89.815 117.131  0.00  0.00     0.016 C 
ATOM      3  C   LIG d   1      -5.892  90.455 116.667  0.00  0.00     0.038 C 
ATOM      4  C   LIG d   1      -6.095  91.834 116.824  0.00  0.00     0.028 C 
ATOM      5  C   LIG d   1      -5.379  92.418 118.037  0.00  0.00    -0.047 C 
ATOM      6  C   LIG d   1      -3.893  91.993 117.995  0.00  0.00     0.091 C 
ENDROOT
BRANCH   1   7
ATOM      7  O   LIG d   1      -2.429  90.112 117.429  0.00  0.00    -0.368 OA
BRANCH   7   8
ATOM      8  C   LIG d   1      -1.686  89.165 118.236  0.00  0.00     0.119 C 
BRANCH   8   9
ATOM      9  C   LIG d   1      -1.716  87.809 117.504  0.00  0.00     0.028 C 
ATOM     10  C   LIG d   1      -0.357  87.447 116.884  0.00  0.00     0.006 C 
ENDBRANCH   8   9
BRANCH   8  11
ATOM     11  C   LIG d   1      -2.377  88.915 119.580  0.00  0.00     0.028 C 
ATOM     12  C   LIG d   1      -2.738  87.438 119.800  0.00  0.00     0.006 C 
ENDBRANCH   8  11
ENDBRANCH   7   8
ENDBRANCH   1   7
BRANCH   6  13
ATOM     13  N   LIG d   1      -3.138  92.452 119.190  0.00  0.00    -0.311 N 
ATOM     14  C   LIG d   1      -2.029  93.185 119.120  0.00  0.00     0.210 C 
ATOM     15  C   LIG d   1      -1.397  93.534 120.471  0.00  0.00     0.109 C 
ATOM     16  O   LIG d   1      -1.526  93.607 118.067  0.00  0.00    -0.276 OA
ATOM     17  H   LIG d   1      -3.494  92.181 120.086  0.00  0.00     0.149 HD
ENDBRANCH   6  13
BRANCH   5  18
ATOM     18  N   LIG d   1      -5.563  93.881 118.002  0.00  0.00     0.381 N 
ATOM     19  H   LIG d   1      -5.555  94.201 117.053  0.00  0.00    -0.090 HD
ATOM     20  H   LIG d   1      -4.798  94.317 118.487  0.00  0.00    -0.090 HD
ATOM     21  H   LIG d   1      -6.425  94.128 118.436  0.00  0.00    -0.090 HD
ENDBRANCH   5  18
BRANCH   3  22
ATOM     22  C   LIG d   1      -6.895  89.705 116.073  0.00  0.00     0.382 C 
ATOM     23  O   LIG d   1      -6.926  89.576 114.826  0.00  0.00    -0.241 OA
ATOM     24  O   LIG d   1      -7.795  89.192 116.766  0.00  0.00    -0.241 OA
ENDBRANCH   3  22
TORSDOF 7
ENDMDL
MODEL 3
REMARK VINA RESULT:      -5.0      2.490      5.171
REMARK  7 active torsions:
REMARK  status: ('A' for Active; 'I' for Inactive)
REMARK    1  A    between atoms: C_2  and  C_3 
REMARK    2  A    between atoms: C_3  and  O_6 
REMARK    3  A    between atoms: C_3  and  C_4 
REMARK    4  A    between atoms: C_7  and  O_6 
REMARK    5  A    between atoms: C_9  and  C_10 
REMARK    6  A    between atoms: N_15  and  C_14 
REMARK    7  A    between atoms: N_20  and  C_19 
REMARK       I    between atoms: C_22  and  N_20 
ROOT
ATOM      1  C   LIG d   1      -3.617  90.089 117.778  0.00  0.00     0.161 C 
ATOM      2  C   LIG d   1      -4.708  89.648 117.010  0.00  0.00     0.016 C 
ATOM      3  C   LIG d   1      -5.804  90.473 116.669  0.00  0.00     0.038 C 
ATOM      4  C   LIG d   1      -5.812  91.848 116.948  0.00  0.00     0.028 C 
ATOM      5  C   LIG d   1      -4.966  92.225 118.160  0.00  0.00    -0.047 C 
ATOM      6  C   LIG d   1      -3.555  91.615 117.996  0.00  0.00     0.091 C 
ENDROOT
BRANCH   1   7
ATOM      7  O   LIG d   1      -2.386  89.616 117.195  0.00  0.00    -0.368 OA
BRANCH   7   8
ATOM      8  C   LIG d   1      -1.946  88.301 117.616  0.00  0.00     0.119 C 
BRANCH   8   9
ATOM      9  C   LIG d   1      -1.914  88.295 119.157  0.00  0.00     0.028 C 
ATOM     10  C   LIG d   1      -2.572  87.039 119.753  0.00  0.00     0.006 C 
ENDBRANCH   8   9
BRANCH   8  11
ATOM     11  C   LIG d   1      -0.503  88.031 117.180  0.00  0.00     0.028 C 
ATOM     12  C   LIG d   1       0.357  89.304 117.144  0.00  0.00     0.006 C 
ENDBRANCH   8  11
ENDBRANCH   7   8
ENDBRANCH   1   7
BRANCH   6  13
ATOM     13  N   LIG d   1      -2.689  91.866 119.178  0.00  0.00    -0.311 N 
ATOM     14  C   LIG d   1      -1.441  92.324 119.088  0.00  0.00     0.210 C 
ATOM     15  C   LIG d   1      -0.717  92.493 120.428  0.00  0.00     0.109 C 
ATOM     16  O   LIG d   1      -0.877  92.638 118.029  0.00  0.00    -0.276 OA
ATOM     17  H   LIG d   1      -3.078  91.668 120.079  0.00  0.00     0.149 HD
ENDBRANCH   6  13
BRANCH   5  18
ATOM     18  N   LIG d   1      -4.952  93.698 118.252  0.00  0.00     0.381 N 
ATOM     19  H   LIG d   1      -4.534  93.979 119.117  0.00  0.00    -0.090 HD
ATOM     20  H   LIG d   1      -5.899  94.033 118.236  0.00  0.00    -0.090 HD
ATOM     21  H   LIG d   1      -4.442  94.083 117.488  0.00  0.00    -0.090 HD
ENDBRANCH   5  18
BRANCH   3  22
ATOM     22  C   LIG d   1      -6.926  89.915 116.077  0.00  0.00     0.382 C 
ATOM     23  O   LIG d   1      -7.184  90.154 114.873  0.00  0.00    -0.241 OA
ATOM     24  O   LIG d   1      -7.709  89.212 116.744  0.00  0.00    -0.241 OA
ENDBRANCH   3  22
TORSDOF 7
ENDMDL
MODEL 4
REMARK VINA RESULT:      -4.9      2.156      4.904
REMARK  7 active torsions:
REMARK  status: ('A' for Active; 'I' for Inactive)
REMARK    1  A    between atoms: C_2  and  C_3 
REMARK    2  A    between atoms: C_3  and  O_6 
REMARK    3  A    between atoms: C_3  and  C_4 
REMARK    4  A    between atoms: C_7  and  O_6 
REMARK    5  A    between atoms: C_9  and  C_10 
REMARK    6  A    between atoms: N_15  and  C_14 
REMARK    7  A    between atoms: N_20  and  C_19 
REMARK       I    between atoms: C_22  and  N_20 
ROOT
ATOM      1  C   LIG d   1      -5.430  92.976 118.468  0.00  0.00     0.161 C 
ATOM      2  C   LIG d   1      -6.711  93.528 118.299  0.00  0.00     0.016 C 
ATOM      3  C   LIG d   1      -7.094  94.781 118.830  0.00  0.00     0.038 C 
ATOM      4  C   LIG d   1      -6.170  95.641 119.442  0.00  0.00     0.028 C 
ATOM      5  C   LIG d   1      -4.992  94.911 120.078  0.00  0.00    -0.047 C 
ATOM      6  C   LIG d   1      -4.376  93.949 119.036  0.00  0.00     0.091 C 
ENDROOT
BRANCH   1   7
ATOM      7  O   LIG d   1      -4.972  92.414 117.222  0.00  0.00    -0.368 OA
BRANCH   7   8
ATOM      8  C   LIG d   1      -5.259  91.010 117.012  0.00  0.00     0.119 C 
BRANCH   8   9
ATOM      9  C   LIG d   1      -3.933  90.239 117.159  0.00  0.00     0.028 C 
ATOM     10  C   LIG d   1      -3.775  89.603 118.550  0.00  0.00     0.006 C 
ENDBRANCH   8   9
BRANCH   8  11
ATOM     11  C   LIG d   1      -5.726  90.744 115.578  0.00  0.00     0.028 C 
ATOM     12  C   LIG d   1      -6.385  91.971 114.929  0.00  0.00     0.006 C 
ENDBRANCH   8  11
ENDBRANCH   7   8
ENDBRANCH   1   7
BRANCH   6  13
ATOM     13  N   LIG d   1      -3.270  93.134 119.602  0.00  0.00    -0.311 N 
ATOM     14  C   LIG d   1      -2.097  92.966 118.994  0.00  0.00     0.210 C 
ATOM     15  C   LIG d   1      -1.103  92.071 119.740  0.00  0.00     0.109 C 
ATOM     16  O   LIG d   1      -1.774  93.500 117.922  0.00  0.00    -0.276 OA
ATOM     17  H   LIG d   1      -3.436  92.690 120.484  0.00  0.00     0.149 HD
ENDBRANCH   6  13
BRANCH   5  18
ATOM     18  N   LIG d   1      -4.041  95.932 120.556  0.00  0.00     0.381 N 
ATOM     19  H   LIG d   1      -3.123  95.538 120.617  0.00  0.00    -0.090 HD
ATOM     20  H   LIG d   1      -4.318  96.230 121.475  0.00  0.00    -0.090 HD
ATOM     21  H   LIG d   1      -4.035  96.711 119.934  0.00  0.00    -0.090 HD
ENDBRANCH   5  18
BRANCH   3  22
ATOM     22  C   LIG d   1      -8.425  95.167 118.787  0.00  0.00     0.382 C 
ATOM     23  O   LIG d   1      -8.722  96.378 118.648  0.00  0.00    -0.241 OA
ATOM     24  O   LIG d   1      -9.332  94.326 118.930  0.00  0.00    -0.241 OA
ENDBRANCH   3  22
TORSDOF 7
ENDMDL
MODEL 5
REMARK VINA RESULT:      -4.9      2.516      6.315
REMARK  7 active torsions:
REMARK  status: ('A' for Active; 'I' for Inactive)
REMARK    1  A    between atoms: C_2  and  C_3 
REMARK    2  A    between atoms: C_3  and  O_6 
REMARK    3  A    between atoms: C_3  and  C_4 
REMARK    4  A    between atoms: C_7  and  O_6 
REMARK    5  A    between atoms: C_9  and  C_10 
REMARK    6  A    between atoms: N_15  and  C_14 
REMARK    7  A    between atoms: N_20  and  C_19 
REMARK       I    between atoms: C_22  and  N_20 
ROOT
ATOM      1  C   LIG d   1      -3.960  91.776 117.488  0.00  0.00     0.161 C 
ATOM      2  C   LIG d   1      -3.146  92.416 118.438  0.00  0.00     0.016 C 
ATOM      3  C   LIG d   1      -3.656  93.192 119.504  0.00  0.00     0.038 C 
ATOM      4  C   LIG d   1      -5.030  93.257 119.782  0.00  0.00     0.028 C 
ATOM      5  C   LIG d   1      -5.908  93.040 118.554  0.00  0.00    -0.047 C 
ATOM      6  C   LIG d   1      -5.462  91.743 117.841  0.00  0.00     0.091 C 
ENDROOT
BRANCH   1   7
ATOM      7  O   LIG d   1      -3.473  90.441 117.248  0.00  0.00    -0.368 OA
BRANCH   7   8
ATOM      8  C   LIG d   1      -2.581  89.897 118.252  0.00  0.00     0.119 C 
BRANCH   8   9
ATOM      9  C   LIG d   1      -1.421  89.202 117.513  0.00  0.00     0.028 C 
ATOM     10  C   LIG d   1      -0.356  90.198 117.024  0.00  0.00     0.006 C 
ENDBRANCH   8   9
BRANCH   8  11
ATOM     11  C   LIG d   1      -3.264  88.793 119.064  0.00  0.00     0.028 C 
ATOM     12  C   LIG d   1      -2.458  87.484 119.087  0.00  0.00     0.006 C 
ENDBRANCH   8  11
ENDBRANCH   7   8
ENDBRANCH   1   7
BRANCH   6  13
ATOM     13  N   LIG d   1      -6.214  91.502 116.582  0.00  0.00    -0.311 N 
ATOM     14  C   LIG d   1      -6.587  90.290 116.172  0.00  0.00     0.210 C 
ATOM     15  C   LIG d   1      -7.336  90.262 114.836  0.00  0.00     0.109 C 
ATOM     16  O   LIG d   1      -6.396  89.240 116.803  0.00  0.00    -0.276 OA
ATOM     17  H   LIG d   1      -6.438  92.302 116.024  0.00  0.00     0.149 HD
ENDBRANCH   6  13
BRANCH   5  18
ATOM     18  N   LIG d   1      -7.310  92.996 119.011  0.00  0.00     0.381 N 
ATOM     19  H   LIG d   1      -7.903  93.418 118.325  0.00  0.00    -0.090 HD
ATOM     20  H   LIG d   1      -7.390  93.521 119.864  0.00  0.00    -0.090 HD
ATOM     21  H   LIG d   1      -7.588  92.052 119.166  0.00  0.00    -0.090 HD
ENDBRANCH   5  18
BRANCH   3  22
ATOM     22  C   LIG d   1      -2.791  93.947 120.280  0.00  0.00     0.382 C 
ATOM     23  O   LIG d   1      -1.772  93.413 120.782  0.00  0.00    -0.241 OA
ATOM     24  O   LIG d   1      -3.039  95.143 120.523  0.00  0.00    -0.241 OA
ENDBRANCH   3  22
TORSDOF 7
ENDMDL
MODEL 6
REMARK VINA RESULT:      -4.9      2.170      4.792
REMARK  7 active torsions:
REMARK  status: ('A' for Active; 'I' for Inactive)
REMARK    1  A    between atoms: C_2  and  C_3 
REMARK    2  A    between atoms: C_3  and  O_6 
REMARK    3  A    between atoms: C_3  and  C_4 
REMARK    4  A    between atoms: C_7  and  O_6 
REMARK    5  A    between atoms: C_9  and  C_10 
REMARK    6  A    between atoms: N_15  and  C_14 
REMARK    7  A    between atoms: N_20  and  C_19 
REMARK       I    between atoms: C_22  and  N_20 
ROOT
ATOM      1  C   LIG d   1      -5.829  92.826 119.620  0.00  0.00     0.161 C 
ATOM      2  C   LIG d   1      -7.115  93.318 119.343  0.00  0.00     0.016 C 
ATOM      3  C   LIG d   1      -7.379  94.669 119.018  0.00  0.00     0.038 C 
ATOM      4  C   LIG d   1      -6.347  95.593 118.798  0.00  0.00     0.028 C 
ATOM      5  C   LIG d   1      -5.067  95.265 119.560  0.00  0.00    -0.047 C 
ATOM      6  C   LIG d   1      -4.678  93.795 119.277  0.00  0.00     0.091 C 
ENDROOT
BRANCH   1   7
ATOM      7  O   LIG d   1      -5.635  91.563 118.955  0.00  0.00    -0.368 OA
BRANCH   7   8
ATOM      8  C   LIG d   1      -4.990  91.617 117.659  0.00  0.00     0.119 C 
BRANCH   8   9
ATOM      9  C   LIG d   1      -6.031  91.190 116.605  0.00  0.00     0.028 C 
ATOM     10  C   LIG d   1      -6.171  92.217 115.469  0.00  0.00     0.006 C 
ENDBRANCH   8   9
BRANCH   8  11
ATOM     11  C   LIG d   1      -3.861  90.587 117.554  0.00  0.00     0.028 C 
ATOM     12  C   LIG d   1      -3.632  89.819 118.866  0.00  0.00     0.006 C 
ENDBRANCH   8  11
ENDBRANCH   7   8
ENDBRANCH   1   7
BRANCH   6  13
ATOM     13  N   LIG d   1      -3.483  93.366 120.050  0.00  0.00    -0.311 N 
ATOM     14  C   LIG d   1      -2.250  93.357 119.547  0.00  0.00     0.210 C 
ATOM     15  C   LIG d   1      -1.165  92.860 120.507  0.00  0.00     0.109 C 
ATOM     16  O   LIG d   1      -1.947  93.744 118.409  0.00  0.00    -0.276 OA
ATOM     17  H   LIG d   1      -3.634  93.066 120.993  0.00  0.00     0.149 HD
ENDBRANCH   6  13
BRANCH   5  18
ATOM     18  N   LIG d   1      -4.034  96.228 119.133  0.00  0.00     0.381 N 
ATOM     19  H   LIG d   1      -4.455  96.960 118.596  0.00  0.00    -0.090 HD
ATOM     20  H   LIG d   1      -3.367  95.753 118.550  0.00  0.00    -0.090 HD
ATOM     21  H   LIG d   1      -3.576  96.612 119.930  0.00  0.00    -0.090 HD
ENDBRANCH   5  18
BRANCH   3  22
ATOM     22  C   LIG d   1      -8.689  95.116 118.948  0.00  0.00     0.382 C 
ATOM     23  O   LIG d   1      -9.636  94.314 119.133  0.00  0.00    -0.241 OA
ATOM     24  O   LIG d   1      -8.938  96.302 118.659  0.00  0.00    -0.241 OA
ENDBRANCH   3  22
TORSDOF 7
ENDMDL
MODEL 7
REMARK VINA RESULT:      -4.6      1.976      2.510
REMARK  7 active torsions:
REMARK  status: ('A' for Active; 'I' for Inactive)
REMARK    1  A    between atoms: C_2  and  C_3 
REMARK    2  A    between atoms: C_3  and  O_6 
REMARK    3  A    between atoms: C_3  and  C_4 
REMARK    4  A    between atoms: C_7  and  O_6 
REMARK    5  A    between atoms: C_9  and  C_10 
REMARK    6  A    between atoms: N_15  and  C_14 
REMARK    7  A    between atoms: N_20  and  C_19 
REMARK       I    between atoms: C_22  and  N_20 
ROOT
ATOM      1  C   LIG d   1      -4.585  92.228 117.932  0.00  0.00     0.161 C 
ATOM      2  C   LIG d   1      -5.519  92.145 116.886  0.00  0.00     0.016 C 
ATOM      3  C   LIG d   1      -5.659  91.010 116.056  0.00  0.00     0.038 C 
ATOM      4  C   LIG d   1      -4.974  89.813 116.314  0.00  0.00     0.028 C 
ATOM      5  C   LIG d   1      -3.653  90.018 117.050  0.00  0.00    -0.047 C 
ATOM      6  C   LIG d   1      -3.906  90.892 118.300  0.00  0.00     0.091 C 
ENDROOT
BRANCH   1   7
ATOM      7  O   LIG d   1      -5.205  92.811 119.095  0.00  0.00    -0.368 OA
BRANCH   7   8
ATOM      8  C   LIG d   1      -4.771  94.148 119.446  0.00  0.00     0.119 C 
BRANCH   8   9
ATOM      9  C   LIG d   1      -4.028  94.056 120.793  0.00  0.00     0.028 C 
ATOM     10  C   LIG d   1      -2.555  94.481 120.681  0.00  0.00     0.006 C 
ENDBRANCH   8   9
BRANCH   8  11
ATOM     11  C   LIG d   1      -5.965  95.072 119.703  0.00  0.00     0.028 C 
ATOM     12  C   LIG d   1      -6.830  95.291 118.452  0.00  0.00     0.006 C 
ENDBRANCH   8  11
ENDBRANCH   7   8
ENDBRANCH   1   7
BRANCH   6  13
ATOM     13  N   LIG d   1      -2.652  91.211 119.031  0.00  0.00    -0.311 N 
ATOM     14  C   LIG d   1      -2.218  90.515 120.081  0.00  0.00     0.210 C 
ATOM     15  C   LIG d   1      -0.913  91.025 120.700  0.00  0.00     0.109 C 
ATOM     16  O   LIG d   1      -2.774  89.505 120.538  0.00  0.00    -0.276 OA
ATOM     17  H   LIG d   1      -2.123  91.997 118.707  0.00  0.00     0.149 HD
ENDBRANCH   6  13
BRANCH   5  18
ATOM     18  N   LIG d   1      -3.113  88.685 117.376  0.00  0.00     0.381 N 
ATOM     19  H   LIG d   1      -3.371  88.434 118.309  0.00  0.00    -0.090 HD
ATOM     20  H   LIG d   1      -2.110  88.719 117.323  0.00  0.00    -0.090 HD
ATOM     21  H   LIG d   1      -3.464  88.008 116.734  0.00  0.00    -0.090 HD
ENDBRANCH   5  18
BRANCH   3  22
ATOM     22  C   LIG d   1      -6.464  91.077 114.929  0.00  0.00     0.382 C 
ATOM     23  O   LIG d   1      -7.071  90.054 114.529  0.00  0.00    -0.241 OA
ATOM     24  O   LIG d   1      -6.555  92.137 114.280  0.00  0.00    -0.241 OA
ENDBRANCH   3  22
TORSDOF 7
ENDMDL
MODEL 8
REMARK VINA RESULT:      -4.6      2.443      4.681
REMARK  7 active torsions:
REMARK  status: ('A' for Active; 'I' for Inactive)
REMARK    1  A    between atoms: C_2  and  C_3 
REMARK    2  A    between atoms: C_3  and  O_6 
REMARK    3  A    between atoms: C_3  and  C_4 
REMARK    4  A    between atoms: C_7  and  O_6 
REMARK    5  A    between atoms: C_9  and  C_10 
REMARK    6  A    between atoms: N_15  and  C_14 
REMARK    7  A    between atoms: N_20  and  C_19 
REMARK       I    between atoms: C_22  and  N_20 
ROOT
ATOM      1  C   LIG d   1      -3.516  92.328 118.927  0.00  0.00     0.161 C 
ATOM      2  C   LIG d   1      -2.651  91.311 118.490  0.00  0.00     0.016 C 
ATOM      3  C   LIG d   1      -3.088  90.169 117.780  0.00  0.00     0.038 C 
ATOM      4  C   LIG d   1      -4.408  90.040 117.323  0.00  0.00     0.028 C 
ATOM      5  C   LIG d   1      -5.421  90.799 118.175  0.00  0.00    -0.047 C 
ATOM      6  C   LIG d   1      -4.942  92.260 118.341  0.00  0.00     0.091 C 
ENDROOT
BRANCH   1   7
ATOM      7  O   LIG d   1      -2.928  93.617 118.662  0.00  0.00    -0.368 OA
BRANCH   7   8
ATOM      8  C   LIG d   1      -2.168  94.205 119.747  0.00  0.00     0.119 C 
BRANCH   8   9
ATOM      9  C   LIG d   1      -3.164  94.933 120.669  0.00  0.00     0.028 C 
ATOM     10  C   LIG d   1      -3.908  96.070 119.949  0.00  0.00     0.006 C 
ENDBRANCH   8   9
BRANCH   8  11
ATOM     11  C   LIG d   1      -1.219  95.293 119.236  0.00  0.00     0.028 C 
ATOM     12  C   LIG d   1      -0.910  95.159 117.736  0.00  0.00     0.006 C 
ENDBRANCH   8  11
ENDBRANCH   7   8
ENDBRANCH   1   7
BRANCH   6  13
ATOM     13  N   LIG d   1      -5.832  93.050 119.231  0.00  0.00    -0.311 N 
ATOM     14  C   LIG d   1      -6.787  93.862 118.780  0.00  0.00     0.210 C 
ATOM     15  C   LIG d   1      -7.577  94.598 119.867  0.00  0.00     0.109 C 
ATOM     16  O   LIG d   1      -7.075  94.019 117.584  0.00  0.00    -0.276 OA
ATOM     17  H   LIG d   1      -5.688  92.959 120.218  0.00  0.00     0.149 HD
ENDBRANCH   6  13
BRANCH   5  18
ATOM     18  N   LIG d   1      -6.733  90.692 117.509  0.00  0.00     0.381 N 
ATOM     19  H   LIG d   1      -6.953  89.730 117.348  0.00  0.00    -0.090 HD
ATOM     20  H   LIG d   1      -6.684  91.158 116.620  0.00  0.00    -0.090 HD
ATOM     21  H   LIG d   1      -7.437  91.112 118.075  0.00  0.00    -0.090 HD
ENDBRANCH   5  18
BRANCH   3  22
ATOM     22  C   LIG d   1      -2.208  89.122 117.555  0.00  0.00     0.382 C 
ATOM     23  O   LIG d   1      -1.053  89.355 117.126  0.00  0.00    -0.241 OA
ATOM     24  O   LIG d   1      -2.570  87.943 117.733  0.00  0.00    -0.241 OA
ENDBRANCH   3  22
TORSDOF 7
ENDMDL
MODEL 9
REMARK VINA RESULT:      -4.6      2.119      3.493
REMARK  7 active torsions:
REMARK  status: ('A' for Active; 'I' for Inactive)
REMARK    1  A    between atoms: C_2  and  C_3 
REMARK    2  A    between atoms: C_3  and  O_6 
REMARK    3  A    between atoms: C_3  and  C_4 
REMARK    4  A    between atoms: C_7  and  O_6 
REMARK    5  A    between atoms: C_9  and  C_10 
REMARK    6  A    between atoms: N_15  and  C_14 
REMARK    7  A    between atoms: N_20  and  C_19 
REMARK       I    between atoms: C_22  and  N_20 
ROOT
ATOM      1  C   LIG d   1      -3.428  92.157 118.091  0.00  0.00     0.161 C 
ATOM      2  C   LIG d   1      -4.578  92.319 117.301  0.00  0.00     0.016 C 
ATOM      3  C   LIG d   1      -5.180  91.263 116.578  0.00  0.00     0.038 C 
ATOM      4  C   LIG d   1      -4.756  89.933 116.717  0.00  0.00     0.028 C 
ATOM      5  C   LIG d   1      -3.287  89.803 117.107  0.00  0.00    -0.047 C 
ATOM      6  C   LIG d   1      -3.016  90.692 118.343  0.00  0.00     0.091 C 
ENDROOT
BRANCH   1   7
ATOM      7  O   LIG d   1      -3.592  92.854 119.342  0.00  0.00    -0.368 OA
BRANCH   7   8
ATOM      8  C   LIG d   1      -2.645  93.917 119.609  0.00  0.00     0.119 C 
BRANCH   8   9
ATOM      9  C   LIG d   1      -3.447  95.222 119.771  0.00  0.00     0.028 C 
ATOM     10  C   LIG d   1      -4.951  94.966 119.968  0.00  0.00     0.006 C 
ENDBRANCH   8   9
BRANCH   8  11
ATOM     11  C   LIG d   1      -1.721  94.155 118.411  0.00  0.00     0.028 C 
ATOM     12  C   LIG d   1      -1.272  95.619 118.286  0.00  0.00     0.006 C 
ENDBRANCH   8  11
ENDBRANCH   7   8
ENDBRANCH   1   7
BRANCH   6  13
ATOM     13  N   LIG d   1      -1.584  90.689 118.740  0.00  0.00    -0.311 N 
ATOM     14  C   LIG d   1      -1.082  89.875 119.668  0.00  0.00     0.210 C 
ATOM     15  C   LIG d   1       0.415  90.050 119.939  0.00  0.00     0.109 C 
ATOM     16  O   LIG d   1      -1.729  89.004 120.269  0.00  0.00    -0.276 OA
ATOM     17  H   LIG d   1      -0.982  91.343 118.280  0.00  0.00     0.149 HD
ENDBRANCH   6  13
BRANCH   5  18
ATOM     18  N   LIG d   1      -3.016  88.374 117.352  0.00  0.00     0.381 N 
ATOM     19  H   LIG d   1      -3.577  88.048 118.113  0.00  0.00    -0.090 HD
ATOM     20  H   LIG d   1      -2.049  88.265 117.603  0.00  0.00    -0.090 HD
ATOM     21  H   LIG d   1      -3.216  87.844 116.532  0.00  0.00    -0.090 HD
ENDBRANCH   5  18
BRANCH   3  22
ATOM     22  C   LIG d   1      -6.193  91.540 115.673  0.00  0.00     0.382 C 
ATOM     23  O   LIG d   1      -7.168  90.757 115.564  0.00  0.00    -0.241 OA
ATOM     24  O   LIG d   1      -6.124  92.540 114.933  0.00  0.00    -0.241 OA
ENDBRANCH   3  22
TORSDOF 7
ENDMDL
