MODEL 1
REMARK VINA RESULT:      -5.4      0.000      0.000
REMARK  7 active torsions:
REMARK  status: ('A' for Active; 'I' for Inactive)
REMARK    1  A    between atoms: C_2  and  C_3 
REMARK    2  A    between atoms: C_3  and  O_6 
REMARK    3  A    between atoms: C_3  and  C_4 
REMARK    4  A    between atoms: C_7  and  O_6 
REMARK    5  A    between atoms: C_9  and  C_10 
REMARK    6  A    between atoms: N_15  and  C_14 
REMARK    7  A    between atoms: N_20  and  C_19 
REMARK       I    between atoms: C_22  and  N_20 
ROOT
ATOM      1  C   LIG d   1      -6.568  93.723 118.082  0.00  0.00     0.161 C 
ATOM      2  C   LIG d   1      -7.253  92.942 117.138  0.00  0.00     0.016 C 
ATOM      3  C   LIG d   1      -6.651  91.883 116.420  0.00  0.00     0.038 C 
ATOM      4  C   LIG d   1      -5.355  91.433 116.710  0.00  0.00     0.028 C 
ATOM      5  C   LIG d   1      -4.456  92.514 117.301  0.00  0.00    -0.047 C 
ATOM      6  C   LIG d   1      -5.185  93.175 118.493  0.00  0.00     0.091 C 
ENDROOT
BRANCH   1   7
ATOM      7  O   LIG d   1      -7.394  93.919 119.247  0.00  0.00    -0.368 OA
BRANCH   7   8
ATOM      8  C   LIG d   1      -7.971  95.239 119.404  0.00  0.00     0.119 C 
BRANCH   8   9
ATOM      9  C   LIG d   1      -9.463  95.140 119.031  0.00  0.00     0.028 C 
ATOM     10  C   LIG d   1     -10.355  94.853 120.250  0.00  0.00     0.006 C 
ENDBRANCH   8   9
BRANCH   8  11
ATOM     11  C   LIG d   1      -7.369  96.232 118.406  0.00  0.00     0.028 C 
ATOM     12  C   LIG d   1      -6.502  97.306 119.083  0.00  0.00     0.006 C 
ENDBRANCH   8  11
ENDBRANCH   7   8
ENDBRANCH   1   7
BRANCH   6  13
ATOM     13  N   LIG d   1      -4.410  94.302 119.076  0.00  0.00    -0.311 N 
ATOM     14  C   LIG d   1      -3.579  94.163 120.108  0.00  0.00     0.210 C 
ATOM     15  C   LIG d   1      -2.895  95.456 120.565  0.00  0.00     0.109 C 
ATOM     16  O   LIG d   1      -3.318  93.087 120.667  0.00  0.00    -0.276 OA
ATOM     17  H   LIG d   1      -4.537  95.205 118.663  0.00  0.00     0.149 HD
ENDBRANCH   6  13
BRANCH   5  18
ATOM     18  N   LIG d   1      -3.183  91.876 117.683  0.00  0.00     0.381 N 
ATOM     19  H   LIG d   1      -3.067  91.021 117.176  0.00  0.00    -0.090 HD
ATOM     20  H   LIG d   1      -3.209  91.659 118.664  0.00  0.00    -0.090 HD
ATOM     21  H   LIG d   1      -2.422  92.490 117.491  0.00  0.00    -0.090 HD
ENDBRANCH   5  18
BRANCH   3  22
ATOM     22  C   LIG d   1      -7.335  91.288 115.370  0.00  0.00     0.382 C 
ATOM     23  O   LIG d   1      -8.002  91.994 114.576  0.00  0.00    -0.241 OA
ATOM     24  O   LIG d   1      -7.330  90.050 115.234  0.00  0.00    -0.241 OA
ENDBRANCH   3  22
TORSDOF 7
ENDMDL
MODEL 2
REMARK VINA RESULT:      -4.7      1.325      1.555
REMARK  7 active torsions:
REMARK  status: ('A' for Active; 'I' for Inactive)
REMARK    1  A    between atoms: C_2  and  C_3 
REMARK    2  A    between atoms: C_3  and  O_6 
REMARK    3  A    between atoms: C_3  and  C_4 
REMARK    4  A    between atoms: C_7  and  O_6 
REMARK    5  A    between atoms: C_9  and  C_10 
REMARK    6  A    between atoms: N_15  and  C_14 
REMARK    7  A    between atoms: N_20  and  C_19 
REMARK       I    between atoms: C_22  and  N_20 
ROOT
ATOM      1  C   LIG d   1      -5.683  93.598 118.686  0.00  0.00     0.161 C 
ATOM      2  C   LIG d   1      -6.403  92.983 117.648  0.00  0.00     0.016 C 
ATOM      3  C   LIG d   1      -5.851  92.003 116.792  0.00  0.00     0.038 C 
ATOM      4  C   LIG d   1      -4.577  91.458 117.014  0.00  0.00     0.028 C 
ATOM      5  C   LIG d   1      -3.630  92.407 117.740  0.00  0.00    -0.047 C 
ATOM      6  C   LIG d   1      -4.329  92.937 119.013  0.00  0.00     0.091 C 
ENDROOT
BRANCH   1   7
ATOM      7  O   LIG d   1      -6.502  93.676 119.869  0.00  0.00    -0.368 OA
BRANCH   7   8
ATOM      8  C   LIG d   1      -6.982  94.995 120.227  0.00  0.00     0.119 C 
BRANCH   8   9
ATOM      9  C   LIG d   1      -8.484  95.050 119.889  0.00  0.00     0.028 C 
ATOM     10  C   LIG d   1      -8.762  95.795 118.572  0.00  0.00     0.006 C 
ENDBRANCH   8   9
BRANCH   8  11
ATOM     11  C   LIG d   1      -6.331  96.078 119.362  0.00  0.00     0.028 C 
ATOM     12  C   LIG d   1      -5.441  97.034 120.172  0.00  0.00     0.006 C 
ENDBRANCH   8  11
ENDBRANCH   7   8
ENDBRANCH   1   7
BRANCH   6  13
ATOM     13  N   LIG d   1      -3.503  93.937 119.738  0.00  0.00    -0.311 N 
ATOM     14  C   LIG d   1      -2.612  94.725 119.139  0.00  0.00     0.210 C 
ATOM     15  C   LIG d   1      -1.853  95.672 120.074  0.00  0.00     0.109 C 
ATOM     16  O   LIG d   1      -2.402  94.753 117.917  0.00  0.00    -0.276 OA
ATOM     17  H   LIG d   1      -3.632  94.004 120.729  0.00  0.00     0.149 HD
ENDBRANCH   6  13
BRANCH   5  18
ATOM     18  N   LIG d   1      -2.389  91.664 118.028  0.00  0.00     0.381 N 
ATOM     19  H   LIG d   1      -2.016  91.956 118.909  0.00  0.00    -0.090 HD
ATOM     20  H   LIG d   1      -1.712  91.873 117.315  0.00  0.00    -0.090 HD
ATOM     21  H   LIG d   1      -2.573  90.685 118.045  0.00  0.00    -0.090 HD
ENDBRANCH   5  18
BRANCH   3  22
ATOM     22  C   LIG d   1      -6.560  91.586 115.676  0.00  0.00     0.382 C 
ATOM     23  O   LIG d   1      -7.274  90.556 115.735  0.00  0.00    -0.241 OA
ATOM     24  O   LIG d   1      -6.461  92.202 114.598  0.00  0.00    -0.241 OA
ENDBRANCH   3  22
TORSDOF 7
ENDMDL
MODEL 3
REMARK VINA RESULT:      -4.6      5.339      8.232
REMARK  7 active torsions:
REMARK  status: ('A' for Active; 'I' for Inactive)
REMARK    1  A    between atoms: C_2  and  C_3 
REMARK    2  A    between atoms: C_3  and  O_6 
REMARK    3  A    between atoms: C_3  and  C_4 
REMARK    4  A    between atoms: C_7  and  O_6 
REMARK    5  A    between atoms: C_9  and  C_10 
REMARK    6  A    between atoms: N_15  and  C_14 
REMARK    7  A    between atoms: N_20  and  C_19 
REMARK       I    between atoms: C_22  and  N_20 
ROOT
ATOM      1  C   LIG d   1      -0.065  91.140 117.548  0.00  0.00     0.161 C 
ATOM      2  C   LIG d   1       1.317  91.202 117.307  0.00  0.00     0.016 C 
ATOM      3  C   LIG d   1       2.042  92.415 117.240  0.00  0.00     0.038 C 
ATOM      4  C   LIG d   1       1.455  93.648 117.563  0.00  0.00     0.028 C 
ATOM      5  C   LIG d   1      -0.050  93.685 117.318  0.00  0.00    -0.047 C 
ATOM      6  C   LIG d   1      -0.701  92.467 118.012  0.00  0.00     0.091 C 
ENDROOT
BRANCH   1   7
ATOM      7  O   LIG d   1      -0.349  90.091 118.494  0.00  0.00    -0.368 OA
BRANCH   7   8
ATOM      8  C   LIG d   1      -1.203  89.020 118.021  0.00  0.00     0.119 C 
BRANCH   8   9
ATOM      9  C   LIG d   1      -2.423  88.951 118.959  0.00  0.00     0.028 C 
ATOM     10  C   LIG d   1      -2.191  89.704 120.280  0.00  0.00     0.006 C 
ENDBRANCH   8   9
BRANCH   8  11
ATOM     11  C   LIG d   1      -0.513  87.658 118.152  0.00  0.00     0.028 C 
ATOM     12  C   LIG d   1       0.583  87.442 117.096  0.00  0.00     0.006 C 
ENDBRANCH   8  11
ENDBRANCH   7   8
ENDBRANCH   1   7
BRANCH   6  13
ATOM     13  N   LIG d   1      -2.162  92.381 117.752  0.00  0.00    -0.311 N 
ATOM     14  C   LIG d   1      -3.082  92.910 118.556  0.00  0.00     0.210 C 
ATOM     15  C   LIG d   1      -4.532  92.689 118.113  0.00  0.00     0.109 C 
ATOM     16  O   LIG d   1      -2.835  93.568 119.578  0.00  0.00    -0.276 OA
ATOM     17  H   LIG d   1      -2.450  91.891 116.928  0.00  0.00     0.149 HD
ENDBRANCH   6  13
BRANCH   5  18
ATOM     18  N   LIG d   1      -0.552  94.976 117.824  0.00  0.00     0.381 N 
ATOM     19  H   LIG d   1       0.201  95.497 118.228  0.00  0.00    -0.090 HD
ATOM     20  H   LIG d   1      -1.234  94.801 118.541  0.00  0.00    -0.090 HD
ATOM     21  H   LIG d   1      -0.965  95.496 117.082  0.00  0.00    -0.090 HD
ENDBRANCH   5  18
BRANCH   3  22
ATOM     22  C   LIG d   1       3.359  92.405 116.809  0.00  0.00     0.382 C 
ATOM     23  O   LIG d   1       3.838  91.374 116.278  0.00  0.00    -0.241 OA
ATOM     24  O   LIG d   1       4.089  93.400 116.984  0.00  0.00    -0.241 OA
ENDBRANCH   3  22
TORSDOF 7
ENDMDL
MODEL 4
REMARK VINA RESULT:      -4.4      9.497     11.357
REMARK  7 active torsions:
REMARK  status: ('A' for Active; 'I' for Inactive)
REMARK    1  A    between atoms: C_2  and  C_3 
REMARK    2  A    between atoms: C_3  and  O_6 
REMARK    3  A    between atoms: C_3  and  C_4 
REMARK    4  A    between atoms: C_7  and  O_6 
REMARK    5  A    between atoms: C_9  and  C_10 
REMARK    6  A    between atoms: N_15  and  C_14 
REMARK    7  A    between atoms: N_20  and  C_19 
REMARK       I    between atoms: C_22  and  N_20 
ROOT
ATOM      1  C   LIG d   1       4.293  89.849 115.156  0.00  0.00     0.161 C 
ATOM      2  C   LIG d   1       3.480  88.871 114.561  0.00  0.00     0.016 C 
ATOM      3  C   LIG d   1       3.559  87.495 114.878  0.00  0.00     0.038 C 
ATOM      4  C   LIG d   1       4.359  87.021 115.929  0.00  0.00     0.028 C 
ATOM      5  C   LIG d   1       5.568  87.905 116.215  0.00  0.00    -0.047 C 
ATOM      6  C   LIG d   1       5.094  89.366 116.383  0.00  0.00     0.091 C 
ENDROOT
BRANCH   1   7
ATOM      7  O   LIG d   1       3.500  91.003 115.498  0.00  0.00    -0.368 OA
BRANCH   7   8
ATOM      8  C   LIG d   1       3.061  91.089 116.876  0.00  0.00     0.119 C 
BRANCH   8   9
ATOM      9  C   LIG d   1       1.547  90.806 116.899  0.00  0.00     0.028 C 
ATOM     10  C   LIG d   1       1.221  89.399 117.426  0.00  0.00     0.006 C 
ENDBRANCH   8   9
BRANCH   8  11
ATOM     11  C   LIG d   1       3.216  92.512 117.422  0.00  0.00     0.028 C 
ATOM     12  C   LIG d   1       1.877  93.257 117.531  0.00  0.00     0.006 C 
ENDBRANCH   8  11
ENDBRANCH   7   8
ENDBRANCH   1   7
BRANCH   6  13
ATOM     13  N   LIG d   1       6.225  90.310 116.583  0.00  0.00    -0.311 N 
ATOM     14  C   LIG d   1       6.665  90.683 117.783  0.00  0.00     0.210 C 
ATOM     15  C   LIG d   1       7.829  91.679 117.764  0.00  0.00     0.109 C 
ATOM     16  O   LIG d   1       6.224  90.258 118.862  0.00  0.00    -0.276 OA
ATOM     17  H   LIG d   1       6.661  90.679 115.761  0.00  0.00     0.149 HD
ENDBRANCH   6  13
BRANCH   5  18
ATOM     18  N   LIG d   1       6.235  87.371 117.418  0.00  0.00     0.381 N 
ATOM     19  H   LIG d   1       6.365  88.104 118.086  0.00  0.00    -0.090 HD
ATOM     20  H   LIG d   1       7.139  87.017 117.158  0.00  0.00    -0.090 HD
ATOM     21  H   LIG d   1       5.686  86.642 117.817  0.00  0.00    -0.090 HD
ENDBRANCH   5  18
BRANCH   3  22
ATOM     22  C   LIG d   1       2.862  86.572 114.113  0.00  0.00     0.382 C 
ATOM     23  O   LIG d   1       1.672  86.801 113.785  0.00  0.00    -0.241 OA
ATOM     24  O   LIG d   1       3.392  85.494 113.785  0.00  0.00    -0.241 OA
ENDBRANCH   3  22
TORSDOF 7
ENDMDL
MODEL 5
REMARK VINA RESULT:      -4.3      5.211      7.629
REMARK  7 active torsions:
REMARK  status: ('A' for Active; 'I' for Inactive)
REMARK    1  A    between atoms: C_2  and  C_3 
REMARK    2  A    between atoms: C_3  and  O_6 
REMARK    3  A    between atoms: C_3  and  C_4 
REMARK    4  A    between atoms: C_7  and  O_6 
REMARK    5  A    between atoms: C_9  and  C_10 
REMARK    6  A    between atoms: N_15  and  C_14 
REMARK    7  A    between atoms: N_20  and  C_19 
REMARK       I    between atoms: C_22  and  N_20 
ROOT
ATOM      1  C   LIG d   1       0.273  91.680 119.150  0.00  0.00     0.161 C 
ATOM      2  C   LIG d   1       1.312  92.207 118.365  0.00  0.00     0.016 C 
ATOM      3  C   LIG d   1       1.896  91.514 117.280  0.00  0.00     0.038 C 
ATOM      4  C   LIG d   1       1.373  90.301 116.808  0.00  0.00     0.028 C 
ATOM      5  C   LIG d   1       0.650  89.494 117.881  0.00  0.00    -0.047 C 
ATOM      6  C   LIG d   1      -0.384  90.405 118.581  0.00  0.00     0.091 C 
ENDROOT
BRANCH   1   7
ATOM      7  O   LIG d   1      -0.723  92.694 119.387  0.00  0.00    -0.368 OA
BRANCH   7   8
ATOM      8  C   LIG d   1      -1.665  92.926 118.311  0.00  0.00     0.119 C 
BRANCH   8   9
ATOM      9  C   LIG d   1      -1.583  94.419 117.937  0.00  0.00     0.028 C 
ATOM     10  C   LIG d   1      -0.642  94.675 116.747  0.00  0.00     0.006 C 
ENDBRANCH   8   9
BRANCH   8  11
ATOM     11  C   LIG d   1      -3.108  92.703 118.775  0.00  0.00     0.028 C 
ATOM     12  C   LIG d   1      -4.054  92.333 117.622  0.00  0.00     0.006 C 
ENDBRANCH   8  11
ENDBRANCH   7   8
ENDBRANCH   1   7
BRANCH   6  13
ATOM     13  N   LIG d   1      -1.078  89.718 119.702  0.00  0.00    -0.311 N 
ATOM     14  C   LIG d   1      -2.260  89.118 119.574  0.00  0.00     0.210 C 
ATOM     15  C   LIG d   1      -2.807  88.488 120.859  0.00  0.00     0.109 C 
ATOM     16  O   LIG d   1      -2.893  89.020 118.512  0.00  0.00    -0.276 OA
ATOM     17  H   LIG d   1      -0.620  89.723 120.592  0.00  0.00     0.149 HD
ENDBRANCH   6  13
BRANCH   5  18
ATOM     18  N   LIG d   1       0.039  88.324 117.223  0.00  0.00     0.381 N 
ATOM     19  H   LIG d   1      -0.391  88.605 116.364  0.00  0.00    -0.090 HD
ATOM     20  H   LIG d   1      -0.674  87.949 117.824  0.00  0.00    -0.090 HD
ATOM     21  H   LIG d   1       0.732  87.632 117.045  0.00  0.00    -0.090 HD
ENDBRANCH   5  18
BRANCH   3  22
ATOM     22  C   LIG d   1       3.040  92.017 116.679  0.00  0.00     0.382 C 
ATOM     23  O   LIG d   1       3.403  93.195 116.909  0.00  0.00    -0.241 OA
ATOM     24  O   LIG d   1       3.690  91.321 115.876  0.00  0.00    -0.241 OA
ENDBRANCH   3  22
TORSDOF 7
ENDMDL
MODEL 6
REMARK VINA RESULT:      -4.2      3.196      5.512
REMARK  7 active torsions:
REMARK  status: ('A' for Active; 'I' for Inactive)
REMARK    1  A    between atoms: C_2  and  C_3 
REMARK    2  A    between atoms: C_3  and  O_6 
REMARK    3  A    between atoms: C_3  and  C_4 
REMARK    4  A    between atoms: C_7  and  O_6 
REMARK    5  A    between atoms: C_9  and  C_10 
REMARK    6  A    between atoms: N_15  and  C_14 
REMARK    7  A    between atoms: N_20  and  C_19 
REMARK       I    between atoms: C_22  and  N_20 
ROOT
ATOM      1  C   LIG d   1      -2.719  92.956 119.301  0.00  0.00     0.161 C 
ATOM      2  C   LIG d   1      -2.615  94.318 118.977  0.00  0.00     0.016 C 
ATOM      3  C   LIG d   1      -1.651  94.833 118.079  0.00  0.00     0.038 C 
ATOM      4  C   LIG d   1      -0.818  93.994 117.325  0.00  0.00     0.028 C 
ATOM      5  C   LIG d   1      -0.546  92.651 117.993  0.00  0.00    -0.047 C 
ATOM      6  C   LIG d   1      -1.892  92.012 118.403  0.00  0.00     0.091 C 
ENDROOT
BRANCH   1   7
ATOM      7  O   LIG d   1      -4.105  92.558 119.303  0.00  0.00    -0.368 OA
BRANCH   7   8
ATOM      8  C   LIG d   1      -4.946  93.174 118.296  0.00  0.00     0.119 C 
BRANCH   8   9
ATOM      9  C   LIG d   1      -6.277  93.553 118.974  0.00  0.00     0.028 C 
ATOM     10  C   LIG d   1      -6.322  95.033 119.391  0.00  0.00     0.006 C 
ENDBRANCH   8   9
BRANCH   8  11
ATOM     11  C   LIG d   1      -5.320  92.176 117.197  0.00  0.00     0.028 C 
ATOM     12  C   LIG d   1      -6.754  92.371 116.679  0.00  0.00     0.006 C 
ENDBRANCH   8  11
ENDBRANCH   7   8
ENDBRANCH   1   7
BRANCH   6  13
ATOM     13  N   LIG d   1      -1.712  90.734 119.140  0.00  0.00    -0.311 N 
ATOM     14  C   LIG d   1      -2.356  89.610 118.827  0.00  0.00     0.210 C 
ATOM     15  C   LIG d   1      -2.040  88.412 119.727  0.00  0.00     0.109 C 
ATOM     16  O   LIG d   1      -3.135  89.485 117.870  0.00  0.00    -0.276 OA
ATOM     17  H   LIG d   1      -1.075  90.738 119.912  0.00  0.00     0.149 HD
ENDBRANCH   6  13
BRANCH   5  18
ATOM     18  N   LIG d   1       0.219  91.825 117.039  0.00  0.00     0.381 N 
ATOM     19  H   LIG d   1       1.190  92.061 117.090  0.00  0.00    -0.090 HD
ATOM     20  H   LIG d   1      -0.105  92.020 116.108  0.00  0.00    -0.090 HD
ATOM     21  H   LIG d   1       0.093  90.859 117.247  0.00  0.00    -0.090 HD
ENDBRANCH   5  18
BRANCH   3  22
ATOM     22  C   LIG d   1      -1.487  96.205 117.960  0.00  0.00     0.382 C 
ATOM     23  O   LIG d   1      -0.526  96.666 117.298  0.00  0.00    -0.241 OA
ATOM     24  O   LIG d   1      -2.262  96.987 118.542  0.00  0.00    -0.241 OA
ENDBRANCH   3  22
TORSDOF 7
ENDMDL
MODEL 7
REMARK VINA RESULT:      -4.2      1.388      2.227
REMARK  7 active torsions:
REMARK  status: ('A' for Active; 'I' for Inactive)
REMARK    1  A    between atoms: C_2  and  C_3 
REMARK    2  A    between atoms: C_3  and  O_6 
REMARK    3  A    between atoms: C_3  and  C_4 
REMARK    4  A    between atoms: C_7  and  O_6 
REMARK    5  A    between atoms: C_9  and  C_10 
REMARK    6  A    between atoms: N_15  and  C_14 
REMARK    7  A    between atoms: N_20  and  C_19 
REMARK       I    between atoms: C_22  and  N_20 
ROOT
ATOM      1  C   LIG d   1      -5.638  93.456 118.240  0.00  0.00     0.161 C 
ATOM      2  C   LIG d   1      -6.363  92.867 117.192  0.00  0.00     0.016 C 
ATOM      3  C   LIG d   1      -5.890  91.765 116.442  0.00  0.00     0.038 C 
ATOM      4  C   LIG d   1      -4.717  91.080 116.791  0.00  0.00     0.028 C 
ATOM      5  C   LIG d   1      -3.702  91.950 117.525  0.00  0.00    -0.047 C 
ATOM      6  C   LIG d   1      -4.407  92.652 118.708  0.00  0.00     0.091 C 
ENDROOT
BRANCH   1   7
ATOM      7  O   LIG d   1      -6.515  93.721 119.353  0.00  0.00    -0.368 OA
BRANCH   7   8
ATOM      8  C   LIG d   1      -6.806  95.116 119.618  0.00  0.00     0.119 C 
BRANCH   8   9
ATOM      9  C   LIG d   1      -6.092  95.496 120.930  0.00  0.00     0.028 C 
ATOM     10  C   LIG d   1      -5.308  96.814 120.810  0.00  0.00     0.006 C 
ENDBRANCH   8   9
BRANCH   8  11
ATOM     11  C   LIG d   1      -8.297  95.332 119.890  0.00  0.00     0.028 C 
ATOM     12  C   LIG d   1      -9.189  94.868 118.727  0.00  0.00     0.006 C 
ENDBRANCH   8  11
ENDBRANCH   7   8
ENDBRANCH   1   7
BRANCH   6  13
ATOM     13  N   LIG d   1      -3.506  93.588 119.429  0.00  0.00    -0.311 N 
ATOM     14  C   LIG d   1      -2.514  94.253 118.838  0.00  0.00     0.210 C 
ATOM     15  C   LIG d   1      -1.693  95.151 119.769  0.00  0.00     0.109 C 
ATOM     16  O   LIG d   1      -2.257  94.209 117.626  0.00  0.00    -0.276 OA
ATOM     17  H   LIG d   1      -3.663  93.708 120.411  0.00  0.00     0.149 HD
ENDBRANCH   6  13
BRANCH   5  18
ATOM     18  N   LIG d   1      -2.591  91.077 117.949  0.00  0.00     0.381 N 
ATOM     19  H   LIG d   1      -1.883  91.624 118.396  0.00  0.00    -0.090 HD
ATOM     20  H   LIG d   1      -2.190  90.643 117.137  0.00  0.00    -0.090 HD
ATOM     21  H   LIG d   1      -2.927  90.378 118.576  0.00  0.00    -0.090 HD
ENDBRANCH   5  18
BRANCH   3  22
ATOM     22  C   LIG d   1      -6.573  91.365 115.303  0.00  0.00     0.382 C 
ATOM     23  O   LIG d   1      -6.592  90.154 114.977  0.00  0.00    -0.241 OA
ATOM     24  O   LIG d   1      -7.134  92.205 114.574  0.00  0.00    -0.241 OA
ENDBRANCH   3  22
TORSDOF 7
ENDMDL
MODEL 8
REMARK VINA RESULT:      -4.1      5.066      8.339
REMARK  7 active torsions:
REMARK  status: ('A' for Active; 'I' for Inactive)
REMARK    1  A    between atoms: C_2  and  C_3 
REMARK    2  A    between atoms: C_3  and  O_6 
REMARK    3  A    between atoms: C_3  and  C_4 
REMARK    4  A    between atoms: C_7  and  O_6 
REMARK    5  A    between atoms: C_9  and  C_10 
REMARK    6  A    between atoms: N_15  and  C_14 
REMARK    7  A    between atoms: N_20  and  C_19 
REMARK       I    between atoms: C_22  and  N_20 
ROOT
ATOM      1  C   LIG d   1      -0.529  91.541 118.103  0.00  0.00     0.161 C 
ATOM      2  C   LIG d   1       0.849  91.810 118.151  0.00  0.00     0.016 C 
ATOM      3  C   LIG d   1       1.398  93.099 117.960  0.00  0.00     0.038 C 
ATOM      4  C   LIG d   1       0.589  94.241 117.856  0.00  0.00     0.028 C 
ATOM      5  C   LIG d   1      -0.800  93.951 117.298  0.00  0.00    -0.047 C 
ATOM      6  C   LIG d   1      -1.432  92.792 118.102  0.00  0.00     0.091 C 
ENDROOT
BRANCH   1   7
ATOM      7  O   LIG d   1      -0.893  90.661 119.185  0.00  0.00    -0.368 OA
BRANCH   7   8
ATOM      8  C   LIG d   1      -0.141  89.427 119.284  0.00  0.00     0.119 C 
BRANCH   8   9
ATOM      9  C   LIG d   1      -0.845  88.383 118.396  0.00  0.00     0.028 C 
ATOM     10  C   LIG d   1       0.030  87.930 117.216  0.00  0.00     0.006 C 
ENDBRANCH   8   9
BRANCH   8  11
ATOM     11  C   LIG d   1      -0.193  88.854 120.703  0.00  0.00     0.028 C 
ATOM     12  C   LIG d   1       0.286  87.396 120.776  0.00  0.00     0.006 C 
ENDBRANCH   8  11
ENDBRANCH   7   8
ENDBRANCH   1   7
BRANCH   6  13
ATOM     13  N   LIG d   1      -2.759  92.388 117.567  0.00  0.00    -0.311 N 
ATOM     14  C   LIG d   1      -3.913  92.858 118.038  0.00  0.00     0.210 C 
ATOM     15  C   LIG d   1      -5.165  92.296 117.357  0.00  0.00     0.109 C 
ATOM     16  O   LIG d   1      -4.017  93.710 118.933  0.00  0.00    -0.276 OA
ATOM     17  H   LIG d   1      -2.765  91.724 116.818  0.00  0.00     0.149 HD
ENDBRANCH   6  13
BRANCH   5  18
ATOM     18  N   LIG d   1      -1.580  95.200 117.373  0.00  0.00     0.381 N 
ATOM     19  H   LIG d   1      -1.448  95.733 116.537  0.00  0.00    -0.090 HD
ATOM     20  H   LIG d   1      -1.248  95.744 118.150  0.00  0.00    -0.090 HD
ATOM     21  H   LIG d   1      -2.547  94.992 117.493  0.00  0.00    -0.090 HD
ENDBRANCH   5  18
BRANCH   3  22
ATOM     22  C   LIG d   1       2.770  93.249 117.830  0.00  0.00     0.382 C 
ATOM     23  O   LIG d   1       3.463  93.567 118.826  0.00  0.00    -0.241 OA
ATOM     24  O   LIG d   1       3.318  93.115 116.719  0.00  0.00    -0.241 OA
ENDBRANCH   3  22
TORSDOF 7
ENDMDL
MODEL 9
REMARK VINA RESULT:      -4.0      7.028      9.460
REMARK  7 active torsions:
REMARK  status: ('A' for Active; 'I' for Inactive)
REMARK    1  A    between atoms: C_2  and  C_3 
REMARK    2  A    between atoms: C_3  and  O_6 
REMARK    3  A    between atoms: C_3  and  C_4 
REMARK    4  A    between atoms: C_7  and  O_6 
REMARK    5  A    between atoms: C_9  and  C_10 
REMARK    6  A    between atoms: N_15  and  C_14 
REMARK    7  A    between atoms: N_20  and  C_19 
REMARK       I    between atoms: C_22  and  N_20 
ROOT
ATOM      1  C   LIG d   1       1.258  89.637 117.320  0.00  0.00     0.161 C 
ATOM      2  C   LIG d   1       2.231  89.229 116.392  0.00  0.00     0.016 C 
ATOM      3  C   LIG d   1       3.308  90.048 115.984  0.00  0.00     0.038 C 
ATOM      4  C   LIG d   1       3.573  91.284 116.593  0.00  0.00     0.028 C 
ATOM      5  C   LIG d   1       2.331  91.951 117.174  0.00  0.00    -0.047 C 
ATOM      6  C   LIG d   1       1.593  90.938 118.079  0.00  0.00     0.091 C 
ENDROOT
BRANCH   1   7
ATOM      7  O   LIG d   1       0.993  88.569 118.251  0.00  0.00    -0.368 OA
BRANCH   7   8
ATOM      8  C   LIG d   1      -0.159  87.740 117.958  0.00  0.00     0.119 C 
BRANCH   8   9
ATOM      9  C   LIG d   1      -1.277  88.136 118.942  0.00  0.00     0.028 C 
ATOM     10  C   LIG d   1      -2.328  89.055 118.297  0.00  0.00     0.006 C 
ENDBRANCH   8   9
BRANCH   8  11
ATOM     11  C   LIG d   1       0.129  86.264 118.245  0.00  0.00     0.028 C 
ATOM     12  C   LIG d   1      -0.915  85.622 119.172  0.00  0.00     0.006 C 
ENDBRANCH   8  11
ENDBRANCH   7   8
ENDBRANCH   1   7
BRANCH   6  13
ATOM     13  N   LIG d   1       0.321  91.484 118.620  0.00  0.00    -0.311 N 
ATOM     14  C   LIG d   1       0.038  91.529 119.921  0.00  0.00     0.210 C 
ATOM     15  C   LIG d   1      -1.337  92.111 120.263  0.00  0.00     0.109 C 
ATOM     16  O   LIG d   1       0.807  91.171 120.825  0.00  0.00    -0.276 OA
ATOM     17  H   LIG d   1      -0.347  91.825 117.958  0.00  0.00     0.149 HD
ENDBRANCH   6  13
BRANCH   5  18
ATOM     18  N   LIG d   1       2.772  93.159 117.897  0.00  0.00     0.381 N 
ATOM     19  H   LIG d   1       2.118  93.901 117.747  0.00  0.00    -0.090 HD
ATOM     20  H   LIG d   1       3.664  93.447 117.536  0.00  0.00    -0.090 HD
ATOM     21  H   LIG d   1       2.846  92.965 118.872  0.00  0.00    -0.090 HD
ENDBRANCH   5  18
BRANCH   3  22
ATOM     22  C   LIG d   1       4.112  89.650 114.926  0.00  0.00     0.382 C 
ATOM     23  O   LIG d   1       4.822  88.621 115.031  0.00  0.00    -0.241 OA
ATOM     24  O   LIG d   1       4.169  90.332 113.885  0.00  0.00    -0.241 OA
ENDBRANCH   3  22
TORSDOF 7
ENDMDL
