MODEL 1
REMARK VINA RESULT:      -5.5      0.000      0.000
REMARK  7 active torsions:
REMARK  status: ('A' for Active; 'I' for Inactive)
REMARK    1  A    between atoms: C_2  and  C_3 
REMARK    2  A    between atoms: C_3  and  O_6 
REMARK    3  A    between atoms: C_3  and  C_4 
REMARK    4  A    between atoms: C_7  and  O_6 
REMARK    5  A    between atoms: C_9  and  C_10 
REMARK    6  A    between atoms: N_15  and  C_14 
REMARK    7  A    between atoms: N_20  and  C_19 
REMARK       I    between atoms: C_22  and  N_20 
ROOT
ATOM      1  C   LIG d   1      -6.142  92.185 118.242  0.00  0.00     0.161 C 
ATOM      2  C   LIG d   1      -7.066  91.664 117.322  0.00  0.00     0.016 C 
ATOM      3  C   LIG d   1      -6.723  90.733 116.315  0.00  0.00     0.038 C 
ATOM      4  C   LIG d   1      -5.453  90.140 116.256  0.00  0.00     0.028 C 
ATOM      5  C   LIG d   1      -4.350  91.010 116.850  0.00  0.00    -0.047 C 
ATOM      6  C   LIG d   1      -4.776  91.466 118.264  0.00  0.00     0.091 C 
ENDROOT
BRANCH   1   7
ATOM      7  O   LIG d   1      -6.721  92.199 119.562  0.00  0.00    -0.368 OA
BRANCH   7   8
ATOM      8  C   LIG d   1      -7.083  93.501 120.085  0.00  0.00     0.119 C 
BRANCH   8   9
ATOM      9  C   LIG d   1      -8.602  93.672 119.889  0.00  0.00     0.028 C 
ATOM     10  C   LIG d   1      -8.940  94.664 118.763  0.00  0.00     0.006 C 
ENDBRANCH   8   9
BRANCH   8  11
ATOM     11  C   LIG d   1      -6.439  94.627 119.271  0.00  0.00     0.028 C 
ATOM     12  C   LIG d   1      -5.377  95.404 120.065  0.00  0.00     0.006 C 
ENDBRANCH   8  11
ENDBRANCH   7   8
ENDBRANCH   1   7
BRANCH   6  13
ATOM     13  N   LIG d   1      -3.791  92.390 118.883  0.00  0.00    -0.311 N 
ATOM     14  C   LIG d   1      -2.819  91.987 119.699  0.00  0.00     0.210 C 
ATOM     15  C   LIG d   1      -1.925  93.105 120.243  0.00  0.00     0.109 C 
ATOM     16  O   LIG d   1      -2.593  90.805 120.000  0.00  0.00    -0.276 OA
ATOM     17  H   LIG d   1      -3.882  93.364 118.668  0.00  0.00     0.149 HD
ENDBRANCH   6  13
BRANCH   5  18
ATOM     18  N   LIG d   1      -3.106  90.216 116.848  0.00  0.00     0.381 N 
ATOM     19  H   LIG d   1      -3.324  89.246 116.740  0.00  0.00    -0.090 HD
ATOM     20  H   LIG d   1      -2.642  90.339 117.731  0.00  0.00    -0.090 HD
ATOM     21  H   LIG d   1      -2.512  90.515 116.107  0.00  0.00    -0.090 HD
ENDBRANCH   5  18
BRANCH   3  22
ATOM     22  C   LIG d   1      -7.644  90.415 115.329  0.00  0.00     0.382 C 
ATOM     23  O   LIG d   1      -8.507  89.530 115.539  0.00  0.00    -0.241 OA
ATOM     24  O   LIG d   1      -7.595  90.972 114.216  0.00  0.00    -0.241 OA
ENDBRANCH   3  22
TORSDOF 7
ENDMDL
MODEL 2
REMARK VINA RESULT:      -5.3      1.854      4.417
REMARK  7 active torsions:
REMARK  status: ('A' for Active; 'I' for Inactive)
REMARK    1  A    between atoms: C_2  and  C_3 
REMARK    2  A    between atoms: C_3  and  O_6 
REMARK    3  A    between atoms: C_3  and  C_4 
REMARK    4  A    between atoms: C_7  and  O_6 
REMARK    5  A    between atoms: C_9  and  C_10 
REMARK    6  A    between atoms: N_15  and  C_14 
REMARK    7  A    between atoms: N_20  and  C_19 
REMARK       I    between atoms: C_22  and  N_20 
ROOT
ATOM      1  C   LIG d   1      -6.381  91.840 118.984  0.00  0.00     0.161 C 
ATOM      2  C   LIG d   1      -7.543  92.601 118.776  0.00  0.00     0.016 C 
ATOM      3  C   LIG d   1      -7.591  94.005 118.929  0.00  0.00     0.038 C 
ATOM      4  C   LIG d   1      -6.435  94.767 119.155  0.00  0.00     0.028 C 
ATOM      5  C   LIG d   1      -5.332  93.995 119.870  0.00  0.00    -0.047 C 
ATOM      6  C   LIG d   1      -5.084  92.665 119.122  0.00  0.00     0.091 C 
ENDROOT
BRANCH   1   7
ATOM      7  O   LIG d   1      -6.243  90.862 117.934  0.00  0.00    -0.368 OA
BRANCH   7   8
ATOM      8  C   LIG d   1      -5.990  91.383 116.606  0.00  0.00     0.119 C 
BRANCH   8   9
ATOM      9  C   LIG d   1      -7.327  91.367 115.840  0.00  0.00     0.028 C 
ATOM     10  C   LIG d   1      -8.050  90.014 115.951  0.00  0.00     0.006 C 
ENDBRANCH   8   9
BRANCH   8  11
ATOM     11  C   LIG d   1      -5.058  90.462 115.814  0.00  0.00     0.028 C 
ATOM     12  C   LIG d   1      -3.898  89.916 116.661  0.00  0.00     0.006 C 
ENDBRANCH   8  11
ENDBRANCH   7   8
ENDBRANCH   1   7
BRANCH   6  13
ATOM     13  N   LIG d   1      -4.078  91.810 119.804  0.00  0.00    -0.311 N 
ATOM     14  C   LIG d   1      -2.778  91.835 119.515  0.00  0.00     0.210 C 
ATOM     15  C   LIG d   1      -1.917  90.859 120.323  0.00  0.00     0.109 C 
ATOM     16  O   LIG d   1      -2.251  92.597 118.690  0.00  0.00    -0.276 OA
ATOM     17  H   LIG d   1      -4.414  91.184 120.510  0.00  0.00     0.149 HD
ENDBRANCH   6  13
BRANCH   5  18
ATOM     18  N   LIG d   1      -4.140  94.862 119.918  0.00  0.00     0.381 N 
ATOM     19  H   LIG d   1      -3.622  94.774 119.066  0.00  0.00    -0.090 HD
ATOM     20  H   LIG d   1      -3.551  94.565 120.676  0.00  0.00    -0.090 HD
ATOM     21  H   LIG d   1      -4.413  95.811 120.052  0.00  0.00    -0.090 HD
ENDBRANCH   5  18
BRANCH   3  22
ATOM     22  C   LIG d   1      -8.814  94.659 118.895  0.00  0.00     0.382 C 
ATOM     23  O   LIG d   1      -8.863  95.885 118.637  0.00  0.00    -0.241 OA
ATOM     24  O   LIG d   1      -9.865  94.046 119.164  0.00  0.00    -0.241 OA
ENDBRANCH   3  22
TORSDOF 7
ENDMDL
MODEL 3
REMARK VINA RESULT:      -5.2      1.557      4.692
REMARK  7 active torsions:
REMARK  status: ('A' for Active; 'I' for Inactive)
REMARK    1  A    between atoms: C_2  and  C_3 
REMARK    2  A    between atoms: C_3  and  O_6 
REMARK    3  A    between atoms: C_3  and  C_4 
REMARK    4  A    between atoms: C_7  and  O_6 
REMARK    5  A    between atoms: C_9  and  C_10 
REMARK    6  A    between atoms: N_15  and  C_14 
REMARK    7  A    between atoms: N_20  and  C_19 
REMARK       I    between atoms: C_22  and  N_20 
ROOT
ATOM      1  C   LIG d   1      -5.071  91.817 118.925  0.00  0.00     0.161 C 
ATOM      2  C   LIG d   1      -3.884  91.942 119.666  0.00  0.00     0.016 C 
ATOM      3  C   LIG d   1      -2.657  91.358 119.273  0.00  0.00     0.038 C 
ATOM      4  C   LIG d   1      -2.498  90.733 118.028  0.00  0.00     0.028 C 
ATOM      5  C   LIG d   1      -3.792  90.145 117.475  0.00  0.00    -0.047 C 
ATOM      6  C   LIG d   1      -4.891  91.233 117.508  0.00  0.00     0.091 C 
ENDROOT
BRANCH   1   7
ATOM      7  O   LIG d   1      -5.742  93.091 118.860  0.00  0.00    -0.368 OA
BRANCH   7   8
ATOM      8  C   LIG d   1      -7.024  93.170 119.530  0.00  0.00     0.119 C 
BRANCH   8   9
ATOM      9  C   LIG d   1      -8.051  93.689 118.505  0.00  0.00     0.028 C 
ATOM     10  C   LIG d   1      -9.140  94.560 119.154  0.00  0.00     0.006 C 
ENDBRANCH   8   9
BRANCH   8  11
ATOM     11  C   LIG d   1      -7.004  94.217 120.648  0.00  0.00     0.028 C 
ATOM     12  C   LIG d   1      -5.770  95.131 120.587  0.00  0.00     0.006 C 
ENDBRANCH   8  11
ENDBRANCH   7   8
ENDBRANCH   1   7
BRANCH   6  13
ATOM     13  N   LIG d   1      -6.212  90.717 117.063  0.00  0.00    -0.311 N 
ATOM     14  C   LIG d   1      -6.684  90.879 115.828  0.00  0.00     0.210 C 
ATOM     15  C   LIG d   1      -8.076  90.288 115.585  0.00  0.00     0.109 C 
ATOM     16  O   LIG d   1      -6.069  91.429 114.902  0.00  0.00    -0.276 OA
ATOM     17  H   LIG d   1      -6.764  90.231 117.742  0.00  0.00     0.149 HD
ENDBRANCH   6  13
BRANCH   5  18
ATOM     18  N   LIG d   1      -3.512  89.648 116.115  0.00  0.00     0.381 N 
ATOM     19  H   LIG d   1      -2.700  90.105 115.749  0.00  0.00    -0.090 HD
ATOM     20  H   LIG d   1      -4.292  89.867 115.522  0.00  0.00    -0.090 HD
ATOM     21  H   LIG d   1      -3.366  88.663 116.136  0.00  0.00    -0.090 HD
ENDBRANCH   5  18
BRANCH   3  22
ATOM     22  C   LIG d   1      -1.583  91.363 120.150  0.00  0.00     0.382 C 
ATOM     23  O   LIG d   1      -1.405  90.396 120.929  0.00  0.00    -0.241 OA
ATOM     24  O   LIG d   1      -0.814  92.341 120.202  0.00  0.00    -0.241 OA
ENDBRANCH   3  22
TORSDOF 7
ENDMDL
MODEL 4
REMARK VINA RESULT:      -4.7      1.737      2.091
REMARK  7 active torsions:
REMARK  status: ('A' for Active; 'I' for Inactive)
REMARK    1  A    between atoms: C_2  and  C_3 
REMARK    2  A    between atoms: C_3  and  O_6 
REMARK    3  A    between atoms: C_3  and  C_4 
REMARK    4  A    between atoms: C_7  and  O_6 
REMARK    5  A    between atoms: C_9  and  C_10 
REMARK    6  A    between atoms: N_15  and  C_14 
REMARK    7  A    between atoms: N_20  and  C_19 
REMARK       I    between atoms: C_22  and  N_20 
ROOT
ATOM      1  C   LIG d   1      -4.218  91.773 118.814  0.00  0.00     0.161 C 
ATOM      2  C   LIG d   1      -5.289  91.501 117.947  0.00  0.00     0.016 C 
ATOM      3  C   LIG d   1      -5.163  90.717 116.776  0.00  0.00     0.038 C 
ATOM      4  C   LIG d   1      -3.983  90.022 116.473  0.00  0.00     0.028 C 
ATOM      5  C   LIG d   1      -2.731  90.673 117.050  0.00  0.00    -0.047 C 
ATOM      6  C   LIG d   1      -2.950  90.931 118.559  0.00  0.00     0.091 C 
ENDROOT
BRANCH   1   7
ATOM      7  O   LIG d   1      -4.648  91.628 120.182  0.00  0.00    -0.368 OA
BRANCH   7   8
ATOM      8  C   LIG d   1      -4.960  92.855 120.885  0.00  0.00     0.119 C 
BRANCH   8   9
ATOM      9  C   LIG d   1      -6.490  93.036 120.843  0.00  0.00     0.028 C 
ATOM     10  C   LIG d   1      -6.916  94.225 119.965  0.00  0.00     0.006 C 
ENDBRANCH   8   9
BRANCH   8  11
ATOM     11  C   LIG d   1      -4.387  94.075 120.158  0.00  0.00     0.028 C 
ATOM     12  C   LIG d   1      -3.238  94.743 120.930  0.00  0.00     0.006 C 
ENDBRANCH   8  11
ENDBRANCH   7   8
ENDBRANCH   1   7
BRANCH   6  13
ATOM     13  N   LIG d   1      -1.804  91.643 119.184  0.00  0.00    -0.311 N 
ATOM     14  C   LIG d   1      -1.246  92.734 118.662  0.00  0.00     0.210 C 
ATOM     15  C   LIG d   1      -0.064  93.298 119.456  0.00  0.00     0.109 C 
ATOM     16  O   LIG d   1      -1.637  93.306 117.633  0.00  0.00    -0.276 OA
ATOM     17  H   LIG d   1      -1.444  91.265 120.038  0.00  0.00     0.149 HD
ENDBRANCH   6  13
BRANCH   5  18
ATOM     18  N   LIG d   1      -1.594  89.774 116.776  0.00  0.00     0.381 N 
ATOM     19  H   LIG d   1      -1.815  89.174 116.007  0.00  0.00    -0.090 HD
ATOM     20  H   LIG d   1      -1.431  89.201 117.585  0.00  0.00    -0.090 HD
ATOM     21  H   LIG d   1      -0.780  90.308 116.568  0.00  0.00    -0.090 HD
ENDBRANCH   5  18
BRANCH   3  22
ATOM     22  C   LIG d   1      -6.215  90.656 115.874  0.00  0.00     0.382 C 
ATOM     23  O   LIG d   1      -7.096  89.771 115.998  0.00  0.00    -0.241 OA
ATOM     24  O   LIG d   1      -6.269  91.446 114.913  0.00  0.00    -0.241 OA
ENDBRANCH   3  22
TORSDOF 7
ENDMDL
MODEL 5
REMARK VINA RESULT:      -4.5      2.330      5.453
REMARK  7 active torsions:
REMARK  status: ('A' for Active; 'I' for Inactive)
REMARK    1  A    between atoms: C_2  and  C_3 
REMARK    2  A    between atoms: C_3  and  O_6 
REMARK    3  A    between atoms: C_3  and  C_4 
REMARK    4  A    between atoms: C_7  and  O_6 
REMARK    5  A    between atoms: C_9  and  C_10 
REMARK    6  A    between atoms: N_15  and  C_14 
REMARK    7  A    between atoms: N_20  and  C_19 
REMARK       I    between atoms: C_22  and  N_20 
ROOT
ATOM      1  C   LIG d   1      -5.935  92.957 119.403  0.00  0.00     0.161 C 
ATOM      2  C   LIG d   1      -6.559  93.931 120.201  0.00  0.00     0.016 C 
ATOM      3  C   LIG d   1      -7.810  94.510 119.886  0.00  0.00     0.038 C 
ATOM      4  C   LIG d   1      -8.597  94.042 118.824  0.00  0.00     0.028 C 
ATOM      5  C   LIG d   1      -7.784  93.411 117.699  0.00  0.00    -0.047 C 
ATOM      6  C   LIG d   1      -6.830  92.354 118.301  0.00  0.00     0.091 C 
ENDROOT
BRANCH   1   7
ATOM      7  O   LIG d   1      -5.397  91.913 120.238  0.00  0.00    -0.368 OA
BRANCH   7   8
ATOM      8  C   LIG d   1      -4.021  92.081 120.661  0.00  0.00     0.119 C 
BRANCH   8   9
ATOM      9  C   LIG d   1      -3.377  93.131 119.736  0.00  0.00     0.028 C 
ATOM     10  C   LIG d   1      -1.925  93.450 120.131  0.00  0.00     0.006 C 
ENDBRANCH   8   9
BRANCH   8  11
ATOM     11  C   LIG d   1      -3.211  90.799 120.446  0.00  0.00     0.028 C 
ATOM     12  C   LIG d   1      -3.370  90.225 119.029  0.00  0.00     0.006 C 
ENDBRANCH   8  11
ENDBRANCH   7   8
ENDBRANCH   1   7
BRANCH   6  13
ATOM     13  N   LIG d   1      -5.938  91.748 117.278  0.00  0.00    -0.311 N 
ATOM     14  C   LIG d   1      -6.257  90.662 116.577  0.00  0.00     0.210 C 
ATOM     15  C   LIG d   1      -5.186  90.192 115.588  0.00  0.00     0.109 C 
ATOM     16  O   LIG d   1      -7.340  90.062 116.656  0.00  0.00    -0.276 OA
ATOM     17  H   LIG d   1      -5.052  92.189 117.127  0.00  0.00     0.149 HD
ENDBRANCH   6  13
BRANCH   5  18
ATOM     18  N   LIG d   1      -8.735  92.844 116.725  0.00  0.00     0.381 N 
ATOM     19  H   LIG d   1      -9.552  92.516 117.200  0.00  0.00    -0.090 HD
ATOM     20  H   LIG d   1      -8.302  92.062 116.265  0.00  0.00    -0.090 HD
ATOM     21  H   LIG d   1      -8.988  93.535 116.053  0.00  0.00    -0.090 HD
ENDBRANCH   5  18
BRANCH   3  22
ATOM     22  C   LIG d   1      -8.266  95.597 120.615  0.00  0.00     0.382 C 
ATOM     23  O   LIG d   1      -9.479  95.679 120.926  0.00  0.00    -0.241 OA
ATOM     24  O   LIG d   1      -7.490  96.519 120.928  0.00  0.00    -0.241 OA
ENDBRANCH   3  22
TORSDOF 7
ENDMDL
MODEL 6
REMARK VINA RESULT:      -4.4      4.837      7.706
REMARK  7 active torsions:
REMARK  status: ('A' for Active; 'I' for Inactive)
REMARK    1  A    between atoms: C_2  and  C_3 
REMARK    2  A    between atoms: C_3  and  O_6 
REMARK    3  A    between atoms: C_3  and  C_4 
REMARK    4  A    between atoms: C_7  and  O_6 
REMARK    5  A    between atoms: C_9  and  C_10 
REMARK    6  A    between atoms: N_15  and  C_14 
REMARK    7  A    between atoms: N_20  and  C_19 
REMARK       I    between atoms: C_22  and  N_20 
ROOT
ATOM      1  C   LIG d   1       0.145  90.656 118.117  0.00  0.00     0.161 C 
ATOM      2  C   LIG d   1      -1.172  90.284 117.802  0.00  0.00     0.016 C 
ATOM      3  C   LIG d   1      -2.244  91.203 117.731  0.00  0.00     0.038 C 
ATOM      4  C   LIG d   1      -2.041  92.588 117.823  0.00  0.00     0.028 C 
ATOM      5  C   LIG d   1      -0.810  92.967 118.640  0.00  0.00    -0.047 C 
ATOM      6  C   LIG d   1       0.408  92.176 118.110  0.00  0.00     0.091 C 
ENDROOT
BRANCH   1   7
ATOM      7  O   LIG d   1       1.066  89.985 117.234  0.00  0.00    -0.368 OA
BRANCH   7   8
ATOM      8  C   LIG d   1       1.544  88.691 117.676  0.00  0.00     0.119 C 
BRANCH   8   9
ATOM      9  C   LIG d   1       2.903  88.911 118.368  0.00  0.00     0.028 C 
ATOM     10  C   LIG d   1       4.065  89.005 117.365  0.00  0.00     0.006 C 
ENDBRANCH   8   9
BRANCH   8  11
ATOM     11  C   LIG d   1       1.840  87.770 116.488  0.00  0.00     0.028 C 
ATOM     12  C   LIG d   1       0.627  86.921 116.076  0.00  0.00     0.006 C 
ENDBRANCH   8  11
ENDBRANCH   7   8
ENDBRANCH   1   7
BRANCH   6  13
ATOM     13  N   LIG d   1       1.636  92.425 118.909  0.00  0.00    -0.311 N 
ATOM     14  C   LIG d   1       2.843  92.581 118.368  0.00  0.00     0.210 C 
ATOM     15  C   LIG d   1       3.977  92.807 119.372  0.00  0.00     0.109 C 
ATOM     16  O   LIG d   1       3.077  92.587 117.150  0.00  0.00    -0.276 OA
ATOM     17  H   LIG d   1       1.532  92.466 119.904  0.00  0.00     0.149 HD
ENDBRANCH   6  13
BRANCH   5  18
ATOM     18  N   LIG d   1      -0.640  94.429 118.538  0.00  0.00     0.381 N 
ATOM     19  H   LIG d   1      -1.416  94.891 118.968  0.00  0.00    -0.090 HD
ATOM     20  H   LIG d   1      -0.618  94.686 117.567  0.00  0.00    -0.090 HD
ATOM     21  H   LIG d   1       0.208  94.705 118.982  0.00  0.00    -0.090 HD
ENDBRANCH   5  18
BRANCH   3  22
ATOM     22  C   LIG d   1      -3.544  90.736 117.607  0.00  0.00     0.382 C 
ATOM     23  O   LIG d   1      -3.965  89.841 118.380  0.00  0.00    -0.241 OA
ATOM     24  O   LIG d   1      -4.286  91.165 116.704  0.00  0.00    -0.241 OA
ENDBRANCH   3  22
TORSDOF 7
ENDMDL
MODEL 7
REMARK VINA RESULT:      -4.3      1.522      4.848
REMARK  7 active torsions:
REMARK  status: ('A' for Active; 'I' for Inactive)
REMARK    1  A    between atoms: C_2  and  C_3 
REMARK    2  A    between atoms: C_3  and  O_6 
REMARK    3  A    between atoms: C_3  and  C_4 
REMARK    4  A    between atoms: C_7  and  O_6 
REMARK    5  A    between atoms: C_9  and  C_10 
REMARK    6  A    between atoms: N_15  and  C_14 
REMARK    7  A    between atoms: N_20  and  C_19 
REMARK       I    between atoms: C_22  and  N_20 
ROOT
ATOM      1  C   LIG d   1      -6.523  91.830 119.121  0.00  0.00     0.161 C 
ATOM      2  C   LIG d   1      -5.426  92.080 119.963  0.00  0.00     0.016 C 
ATOM      3  C   LIG d   1      -4.082  91.893 119.567  0.00  0.00     0.038 C 
ATOM      4  C   LIG d   1      -3.736  91.586 118.242  0.00  0.00     0.028 C 
ATOM      5  C   LIG d   1      -4.827  90.833 117.490  0.00  0.00    -0.047 C 
ATOM      6  C   LIG d   1      -6.161  91.601 117.639  0.00  0.00     0.091 C 
ENDROOT
BRANCH   1   7
ATOM      7  O   LIG d   1      -7.485  92.896 119.243  0.00  0.00    -0.368 OA
BRANCH   7   8
ATOM      8  C   LIG d   1      -6.975  94.239 119.061  0.00  0.00     0.119 C 
BRANCH   8   9
ATOM      9  C   LIG d   1      -6.439  94.719 120.424  0.00  0.00     0.028 C 
ATOM     10  C   LIG d   1      -5.395  95.840 120.282  0.00  0.00     0.006 C 
ENDBRANCH   8   9
BRANCH   8  11
ATOM     11  C   LIG d   1      -8.097  95.217 118.700  0.00  0.00     0.028 C 
ATOM     12  C   LIG d   1      -9.176  95.316 119.790  0.00  0.00     0.006 C 
ENDBRANCH   8  11
ENDBRANCH   7   8
ENDBRANCH   1   7
BRANCH   6  13
ATOM     13  N   LIG d   1      -7.299  90.889 117.003  0.00  0.00    -0.311 N 
ATOM     14  C   LIG d   1      -7.669  91.080 115.737  0.00  0.00     0.210 C 
ATOM     15  C   LIG d   1      -8.881  90.259 115.287  0.00  0.00     0.109 C 
ATOM     16  O   LIG d   1      -7.088  91.828 114.936  0.00  0.00    -0.276 OA
ATOM     17  H   LIG d   1      -7.807  90.240 117.572  0.00  0.00     0.149 HD
ENDBRANCH   6  13
BRANCH   5  18
ATOM     18  N   LIG d   1      -4.391  90.700 116.087  0.00  0.00     0.381 N 
ATOM     19  H   LIG d   1      -4.009  89.788 115.936  0.00  0.00    -0.090 HD
ATOM     20  H   LIG d   1      -3.671  91.377 115.905  0.00  0.00    -0.090 HD
ATOM     21  H   LIG d   1      -5.162  90.851 115.474  0.00  0.00    -0.090 HD
ENDBRANCH   5  18
BRANCH   3  22
ATOM     22  C   LIG d   1      -3.069  91.975 120.510  0.00  0.00     0.382 C 
ATOM     23  O   LIG d   1      -2.693  93.096 120.930  0.00  0.00    -0.241 OA
ATOM     24  O   LIG d   1      -2.498  90.945 120.914  0.00  0.00    -0.241 OA
ENDBRANCH   3  22
TORSDOF 7
ENDMDL
MODEL 8
REMARK VINA RESULT:      -4.2      2.354      4.058
REMARK  7 active torsions:
REMARK  status: ('A' for Active; 'I' for Inactive)
REMARK    1  A    between atoms: C_2  and  C_3 
REMARK    2  A    between atoms: C_3  and  O_6 
REMARK    3  A    between atoms: C_3  and  C_4 
REMARK    4  A    between atoms: C_7  and  O_6 
REMARK    5  A    between atoms: C_9  and  C_10 
REMARK    6  A    between atoms: N_15  and  C_14 
REMARK    7  A    between atoms: N_20  and  C_19 
REMARK       I    between atoms: C_22  and  N_20 
ROOT
ATOM      1  C   LIG d   1      -5.471  92.815 119.082  0.00  0.00     0.161 C 
ATOM      2  C   LIG d   1      -6.633  93.537 119.404  0.00  0.00     0.016 C 
ATOM      3  C   LIG d   1      -7.839  93.436 118.673  0.00  0.00     0.038 C 
ATOM      4  C   LIG d   1      -8.012  92.486 117.656  0.00  0.00     0.028 C 
ATOM      5  C   LIG d   1      -6.710  92.091 116.968  0.00  0.00    -0.047 C 
ATOM      6  C   LIG d   1      -5.675  91.692 118.044  0.00  0.00     0.091 C 
ENDROOT
BRANCH   1   7
ATOM      7  O   LIG d   1      -4.877  92.286 120.284  0.00  0.00    -0.368 OA
BRANCH   7   8
ATOM      8  C   LIG d   1      -3.734  93.010 120.803  0.00  0.00     0.119 C 
BRANCH   8   9
ATOM      9  C   LIG d   1      -3.348  94.074 119.757  0.00  0.00     0.028 C 
ATOM     10  C   LIG d   1      -3.396  95.502 120.327  0.00  0.00     0.006 C 
ENDBRANCH   8   9
BRANCH   8  11
ATOM     11  C   LIG d   1      -2.508  92.101 120.929  0.00  0.00     0.028 C 
ATOM     12  C   LIG d   1      -1.401  92.451 119.922  0.00  0.00     0.006 C 
ENDBRANCH   8  11
ENDBRANCH   7   8
ENDBRANCH   1   7
BRANCH   6  13
ATOM     13  N   LIG d   1      -4.345  91.372 117.462  0.00  0.00    -0.311 N 
ATOM     14  C   LIG d   1      -3.592  90.352 117.870  0.00  0.00     0.210 C 
ATOM     15  C   LIG d   1      -2.248  90.212 117.149  0.00  0.00     0.109 C 
ATOM     16  O   LIG d   1      -3.924  89.531 118.738  0.00  0.00    -0.276 OA
ATOM     17  H   LIG d   1      -4.013  91.969 116.730  0.00  0.00     0.149 HD
ENDBRANCH   6  13
BRANCH   5  18
ATOM     18  N   LIG d   1      -7.016  90.997 116.027  0.00  0.00     0.381 N 
ATOM     19  H   LIG d   1      -7.112  91.363 115.101  0.00  0.00    -0.090 HD
ATOM     20  H   LIG d   1      -7.890  90.576 116.291  0.00  0.00    -0.090 HD
ATOM     21  H   LIG d   1      -6.291  90.315 116.049  0.00  0.00    -0.090 HD
ENDBRANCH   5  18
BRANCH   3  22
ATOM     22  C   LIG d   1      -8.876  94.319 118.932  0.00  0.00     0.382 C 
ATOM     23  O   LIG d   1      -9.949  93.899 119.428  0.00  0.00    -0.241 OA
ATOM     24  O   LIG d   1      -8.768  95.524 118.636  0.00  0.00    -0.241 OA
ENDBRANCH   3  22
TORSDOF 7
ENDMDL
MODEL 9
REMARK VINA RESULT:      -4.1      5.385      8.227
REMARK  7 active torsions:
REMARK  status: ('A' for Active; 'I' for Inactive)
REMARK    1  A    between atoms: C_2  and  C_3 
REMARK    2  A    between atoms: C_3  and  O_6 
REMARK    3  A    between atoms: C_3  and  C_4 
REMARK    4  A    between atoms: C_7  and  O_6 
REMARK    5  A    between atoms: C_9  and  C_10 
REMARK    6  A    between atoms: N_15  and  C_14 
REMARK    7  A    between atoms: N_20  and  C_19 
REMARK       I    between atoms: C_22  and  N_20 
ROOT
ATOM      1  C   LIG d   1       0.679  90.112 117.718  0.00  0.00     0.161 C 
ATOM      2  C   LIG d   1       1.325  91.329 117.992  0.00  0.00     0.016 C 
ATOM      3  C   LIG d   1       2.643  91.622 117.572  0.00  0.00     0.038 C 
ATOM      4  C   LIG d   1       3.355  90.769 116.715  0.00  0.00     0.028 C 
ATOM      5  C   LIG d   1       2.935  89.308 116.829  0.00  0.00    -0.047 C 
ATOM      6  C   LIG d   1       1.398  89.215 116.690  0.00  0.00     0.091 C 
ENDROOT
BRANCH   1   7
ATOM      7  O   LIG d   1      -0.678  90.362 117.302  0.00  0.00    -0.368 OA
BRANCH   7   8
ATOM      8  C   LIG d   1      -1.484  91.162 118.203  0.00  0.00     0.119 C 
BRANCH   8   9
ATOM      9  C   LIG d   1      -2.845  90.456 118.356  0.00  0.00     0.028 C 
ATOM     10  C   LIG d   1      -3.441  90.030 117.004  0.00  0.00     0.006 C 
ENDBRANCH   8   9
BRANCH   8  11
ATOM     11  C   LIG d   1      -1.804  92.532 117.597  0.00  0.00     0.028 C 
ATOM     12  C   LIG d   1      -1.495  93.693 118.555  0.00  0.00     0.006 C 
ENDBRANCH   8  11
ENDBRANCH   7   8
ENDBRANCH   1   7
BRANCH   6  13
ATOM     13  N   LIG d   1       0.895  87.828 116.873  0.00  0.00    -0.311 N 
ATOM     14  C   LIG d   1       0.850  86.929 115.892  0.00  0.00     0.210 C 
ATOM     15  C   LIG d   1       0.278  85.565 116.290  0.00  0.00     0.109 C 
ATOM     16  O   LIG d   1       1.260  87.121 114.737  0.00  0.00    -0.276 OA
ATOM     17  H   LIG d   1       0.572  87.577 117.787  0.00  0.00     0.149 HD
ENDBRANCH   6  13
BRANCH   5  18
ATOM     18  N   LIG d   1       3.657  88.554 115.786  0.00  0.00     0.381 N 
ATOM     19  H   LIG d   1       4.067  87.733 116.184  0.00  0.00    -0.090 HD
ATOM     20  H   LIG d   1       4.395  89.130 115.421  0.00  0.00    -0.090 HD
ATOM     21  H   LIG d   1       3.030  88.300 115.054  0.00  0.00    -0.090 HD
ENDBRANCH   5  18
BRANCH   3  22
ATOM     22  C   LIG d   1       3.278  92.761 118.044  0.00  0.00     0.382 C 
ATOM     23  O   LIG d   1       3.275  93.016 119.273  0.00  0.00    -0.241 OA
ATOM     24  O   LIG d   1       3.815  93.559 117.253  0.00  0.00    -0.241 OA
ENDBRANCH   3  22
TORSDOF 7
ENDMDL
