MODEL 1
REMARK VINA RESULT:      -5.6      0.000      0.000
REMARK  7 active torsions:
REMARK  status: ('A' for Active; 'I' for Inactive)
REMARK    1  A    between atoms: C_2  and  C_3 
REMARK    2  A    between atoms: C_3  and  O_6 
REMARK    3  A    between atoms: C_3  and  C_4 
REMARK    4  A    between atoms: C_7  and  O_6 
REMARK    5  A    between atoms: C_9  and  C_10 
REMARK    6  A    between atoms: N_15  and  C_14 
REMARK    7  A    between atoms: N_20  and  C_19 
REMARK       I    between atoms: C_22  and  N_20 
ROOT
ATOM      1  C   LIG d   1      -6.546  93.422 117.439  0.00  0.00     0.161 C 
ATOM      2  C   LIG d   1      -6.985  92.201 116.901  0.00  0.00     0.016 C 
ATOM      3  C   LIG d   1      -6.119  91.122 116.612  0.00  0.00     0.038 C 
ATOM      4  C   LIG d   1      -4.766  91.136 116.984  0.00  0.00     0.028 C 
ATOM      5  C   LIG d   1      -4.176  92.540 117.069  0.00  0.00    -0.047 C 
ATOM      6  C   LIG d   1      -5.092  93.416 117.955  0.00  0.00     0.091 C 
ENDROOT
BRANCH   1   7
ATOM      7  O   LIG d   1      -7.445  93.849 118.481  0.00  0.00    -0.368 OA
BRANCH   7   8
ATOM      8  C   LIG d   1      -8.514  94.739 118.076  0.00  0.00     0.119 C 
BRANCH   8   9
ATOM      9  C   LIG d   1      -7.932  96.165 118.020  0.00  0.00     0.028 C 
ATOM     10  C   LIG d   1      -7.766  96.786 119.417  0.00  0.00     0.006 C 
ENDBRANCH   8   9
BRANCH   8  11
ATOM     11  C   LIG d   1      -9.623  94.795 119.130  0.00  0.00     0.028 C 
ATOM     12  C   LIG d   1      -9.695  93.520 119.987  0.00  0.00     0.006 C 
ENDBRANCH   8  11
ENDBRANCH   7   8
ENDBRANCH   1   7
BRANCH   6  13
ATOM     13  N   LIG d   1      -4.632  94.828 118.022  0.00  0.00    -0.311 N 
ATOM     14  C   LIG d   1      -4.324  95.445 119.161  0.00  0.00     0.210 C 
ATOM     15  C   LIG d   1      -3.892  96.906 119.009  0.00  0.00     0.109 C 
ATOM     16  O   LIG d   1      -4.337  94.911 120.281  0.00  0.00    -0.276 OA
ATOM     17  H   LIG d   1      -4.563  95.327 117.157  0.00  0.00     0.149 HD
ENDBRANCH   6  13
BRANCH   5  18
ATOM     18  N   LIG d   1      -2.806  92.416 117.599  0.00  0.00     0.381 N 
ATOM     19  H   LIG d   1      -2.150  92.400 116.843  0.00  0.00    -0.090 HD
ATOM     20  H   LIG d   1      -2.728  91.549 118.101  0.00  0.00    -0.090 HD
ATOM     21  H   LIG d   1      -2.605  93.179 118.207  0.00  0.00    -0.090 HD
ENDBRANCH   5  18
BRANCH   3  22
ATOM     22  C   LIG d   1      -6.596  90.027 115.906  0.00  0.00     0.382 C 
ATOM     23  O   LIG d   1      -7.623  89.425 116.303  0.00  0.00    -0.241 OA
ATOM     24  O   LIG d   1      -5.987  89.607 114.904  0.00  0.00    -0.241 OA
ENDBRANCH   3  22
TORSDOF 7
ENDMDL
MODEL 2
REMARK VINA RESULT:      -5.3      1.958      2.590
REMARK  7 active torsions:
REMARK  status: ('A' for Active; 'I' for Inactive)
REMARK    1  A    between atoms: C_2  and  C_3 
REMARK    2  A    between atoms: C_3  and  O_6 
REMARK    3  A    between atoms: C_3  and  C_4 
REMARK    4  A    between atoms: C_7  and  O_6 
REMARK    5  A    between atoms: C_9  and  C_10 
REMARK    6  A    between atoms: N_15  and  C_14 
REMARK    7  A    between atoms: N_20  and  C_19 
REMARK       I    between atoms: C_22  and  N_20 
ROOT
ATOM      1  C   LIG d   1      -5.471  92.888 116.838  0.00  0.00     0.161 C 
ATOM      2  C   LIG d   1      -6.565  92.308 116.174  0.00  0.00     0.016 C 
ATOM      3  C   LIG d   1      -6.624  90.940 115.821  0.00  0.00     0.038 C 
ATOM      4  C   LIG d   1      -5.652  90.022 116.245  0.00  0.00     0.028 C 
ATOM      5  C   LIG d   1      -4.284  90.654 116.481  0.00  0.00    -0.047 C 
ATOM      6  C   LIG d   1      -4.451  91.880 117.407  0.00  0.00     0.091 C 
ENDROOT
BRANCH   1   7
ATOM      7  O   LIG d   1      -5.942  93.766 117.880  0.00  0.00    -0.368 OA
BRANCH   7   8
ATOM      8  C   LIG d   1      -7.198  93.400 118.503  0.00  0.00     0.119 C 
BRANCH   8   9
ATOM      9  C   LIG d   1      -8.025  94.690 118.669  0.00  0.00     0.028 C 
ATOM     10  C   LIG d   1      -7.425  95.876 117.895  0.00  0.00     0.006 C 
ENDBRANCH   8   9
BRANCH   8  11
ATOM     11  C   LIG d   1      -6.982  92.871 119.924  0.00  0.00     0.028 C 
ATOM     12  C   LIG d   1      -5.684  93.390 120.562  0.00  0.00     0.006 C 
ENDBRANCH   8  11
ENDBRANCH   7   8
ENDBRANCH   1   7
BRANCH   6  13
ATOM     13  N   LIG d   1      -3.172  92.607 117.622  0.00  0.00    -0.311 N 
ATOM     14  C   LIG d   1      -2.381  92.403 118.673  0.00  0.00     0.210 C 
ATOM     15  C   LIG d   1      -1.120  93.272 118.711  0.00  0.00     0.109 C 
ATOM     16  O   LIG d   1      -2.587  91.562 119.561  0.00  0.00    -0.276 OA
ATOM     17  H   LIG d   1      -2.912  93.285 116.933  0.00  0.00     0.149 HD
ENDBRANCH   6  13
BRANCH   5  18
ATOM     18  N   LIG d   1      -3.405  89.614 117.050  0.00  0.00     0.381 N 
ATOM     19  H   LIG d   1      -2.479  89.976 117.158  0.00  0.00    -0.090 HD
ATOM     20  H   LIG d   1      -3.369  88.836 116.415  0.00  0.00    -0.090 HD
ATOM     21  H   LIG d   1      -3.758  89.316 117.933  0.00  0.00    -0.090 HD
ENDBRANCH   5  18
BRANCH   3  22
ATOM     22  C   LIG d   1      -7.645  90.486 115.001  0.00  0.00     0.382 C 
ATOM     23  O   LIG d   1      -7.889  91.073 113.919  0.00  0.00    -0.241 OA
ATOM     24  O   LIG d   1      -8.355  89.523 115.349  0.00  0.00    -0.241 OA
ENDBRANCH   3  22
TORSDOF 7
ENDMDL
MODEL 3
REMARK VINA RESULT:      -5.1      2.322      4.764
REMARK  7 active torsions:
REMARK  status: ('A' for Active; 'I' for Inactive)
REMARK    1  A    between atoms: C_2  and  C_3 
REMARK    2  A    between atoms: C_3  and  O_6 
REMARK    3  A    between atoms: C_3  and  C_4 
REMARK    4  A    between atoms: C_7  and  O_6 
REMARK    5  A    between atoms: C_9  and  C_10 
REMARK    6  A    between atoms: N_15  and  C_14 
REMARK    7  A    between atoms: N_20  and  C_19 
REMARK       I    between atoms: C_22  and  N_20 
ROOT
ATOM      1  C   LIG d   1      -4.709  91.730 117.568  0.00  0.00     0.161 C 
ATOM      2  C   LIG d   1      -5.294  91.067 116.476  0.00  0.00     0.016 C 
ATOM      3  C   LIG d   1      -6.336  91.620 115.698  0.00  0.00     0.038 C 
ATOM      4  C   LIG d   1      -6.763  92.946 115.865  0.00  0.00     0.028 C 
ATOM      5  C   LIG d   1      -6.552  93.476 117.279  0.00  0.00    -0.047 C 
ATOM      6  C   LIG d   1      -5.085  93.221 117.697  0.00  0.00     0.091 C 
ENDROOT
BRANCH   1   7
ATOM      7  O   LIG d   1      -3.276  91.578 117.522  0.00  0.00    -0.368 OA
BRANCH   7   8
ATOM      8  C   LIG d   1      -2.717  90.547 118.372  0.00  0.00     0.119 C 
BRANCH   8   9
ATOM      9  C   LIG d   1      -1.844  91.244 119.433  0.00  0.00     0.028 C 
ATOM     10  C   LIG d   1      -1.303  92.600 118.949  0.00  0.00     0.006 C 
ENDBRANCH   8   9
BRANCH   8  11
ATOM     11  C   LIG d   1      -1.760  89.640 117.592  0.00  0.00     0.028 C 
ATOM     12  C   LIG d   1      -2.223  88.175 117.558  0.00  0.00     0.006 C 
ENDBRANCH   8  11
ENDBRANCH   7   8
ENDBRANCH   1   7
BRANCH   6  13
ATOM     13  N   LIG d   1      -4.815  93.634 119.099  0.00  0.00    -0.311 N 
ATOM     14  C   LIG d   1      -4.317  94.824 119.429  0.00  0.00     0.210 C 
ATOM     15  C   LIG d   1      -4.096  95.038 120.930  0.00  0.00     0.109 C 
ATOM     16  O   LIG d   1      -4.067  95.734 118.625  0.00  0.00    -0.276 OA
ATOM     17  H   LIG d   1      -5.018  92.967 119.818  0.00  0.00     0.149 HD
ENDBRANCH   6  13
BRANCH   5  18
ATOM     18  N   LIG d   1      -6.912  94.907 117.277  0.00  0.00     0.381 N 
ATOM     19  H   LIG d   1      -6.233  95.428 117.796  0.00  0.00    -0.090 HD
ATOM     20  H   LIG d   1      -7.804  95.018 117.725  0.00  0.00    -0.090 HD
ATOM     21  H   LIG d   1      -6.957  95.246 116.342  0.00  0.00    -0.090 HD
ENDBRANCH   5  18
BRANCH   3  22
ATOM     22  C   LIG d   1      -6.990  90.831 114.764  0.00  0.00     0.382 C 
ATOM     23  O   LIG d   1      -7.892  91.326 114.046  0.00  0.00    -0.241 OA
ATOM     24  O   LIG d   1      -6.719  89.619 114.661  0.00  0.00    -0.241 OA
ENDBRANCH   3  22
TORSDOF 7
ENDMDL
MODEL 4
REMARK VINA RESULT:      -4.9      3.055      5.676
REMARK  7 active torsions:
REMARK  status: ('A' for Active; 'I' for Inactive)
REMARK    1  A    between atoms: C_2  and  C_3 
REMARK    2  A    between atoms: C_3  and  O_6 
REMARK    3  A    between atoms: C_3  and  C_4 
REMARK    4  A    between atoms: C_7  and  O_6 
REMARK    5  A    between atoms: C_9  and  C_10 
REMARK    6  A    between atoms: N_15  and  C_14 
REMARK    7  A    between atoms: N_20  and  C_19 
REMARK       I    between atoms: C_22  and  N_20 
ROOT
ATOM      1  C   LIG d   1      -3.795  90.781 117.470  0.00  0.00     0.161 C 
ATOM      2  C   LIG d   1      -4.686  90.443 116.437  0.00  0.00     0.016 C 
ATOM      3  C   LIG d   1      -5.667  91.329 115.935  0.00  0.00     0.038 C 
ATOM      4  C   LIG d   1      -5.724  92.674 116.331  0.00  0.00     0.028 C 
ATOM      5  C   LIG d   1      -5.174  92.916 117.733  0.00  0.00    -0.047 C 
ATOM      6  C   LIG d   1      -3.770  92.279 117.838  0.00  0.00     0.091 C 
ENDROOT
BRANCH   1   7
ATOM      7  O   LIG d   1      -2.469  90.323 117.141  0.00  0.00    -0.368 OA
BRANCH   7   8
ATOM      8  C   LIG d   1      -1.829  89.467 118.119  0.00  0.00     0.119 C 
BRANCH   8   9
ATOM      9  C   LIG d   1      -0.343  89.351 117.731  0.00  0.00     0.028 C 
ATOM     10  C   LIG d   1       0.245  90.688 117.250  0.00  0.00     0.006 C 
ENDBRANCH   8   9
BRANCH   8  11
ATOM     11  C   LIG d   1      -2.378  88.039 118.055  0.00  0.00     0.028 C 
ATOM     12  C   LIG d   1      -1.778  87.221 116.900  0.00  0.00     0.006 C 
ENDBRANCH   8  11
ENDBRANCH   7   8
ENDBRANCH   1   7
BRANCH   6  13
ATOM     13  N   LIG d   1      -3.195  92.397 119.203  0.00  0.00    -0.311 N 
ATOM     14  C   LIG d   1      -2.010  92.952 119.454  0.00  0.00     0.210 C 
ATOM     15  C   LIG d   1      -1.597  92.954 120.929  0.00  0.00     0.109 C 
ATOM     16  O   LIG d   1      -1.277  93.472 118.600  0.00  0.00    -0.276 OA
ATOM     17  H   LIG d   1      -3.737  92.029 119.960  0.00  0.00     0.149 HD
ENDBRANCH   6  13
BRANCH   5  18
ATOM     18  N   LIG d   1      -5.167  94.373 117.963  0.00  0.00     0.381 N 
ATOM     19  H   LIG d   1      -4.224  94.701 118.027  0.00  0.00    -0.090 HD
ATOM     20  H   LIG d   1      -5.628  94.567 118.834  0.00  0.00    -0.090 HD
ATOM     21  H   LIG d   1      -5.639  94.838 117.219  0.00  0.00    -0.090 HD
ENDBRANCH   5  18
BRANCH   3  22
ATOM     22  C   LIG d   1      -6.629  90.860 115.054  0.00  0.00     0.382 C 
ATOM     23  O   LIG d   1      -7.469  91.653 114.562  0.00  0.00    -0.241 OA
ATOM     24  O   LIG d   1      -6.697  89.647 114.779  0.00  0.00    -0.241 OA
ENDBRANCH   3  22
TORSDOF 7
ENDMDL
MODEL 5
REMARK VINA RESULT:      -4.7      2.269      4.504
REMARK  7 active torsions:
REMARK  status: ('A' for Active; 'I' for Inactive)
REMARK    1  A    between atoms: C_2  and  C_3 
REMARK    2  A    between atoms: C_3  and  O_6 
REMARK    3  A    between atoms: C_3  and  C_4 
REMARK    4  A    between atoms: C_7  and  O_6 
REMARK    5  A    between atoms: C_9  and  C_10 
REMARK    6  A    between atoms: N_15  and  C_14 
REMARK    7  A    between atoms: N_20  and  C_19 
REMARK       I    between atoms: C_22  and  N_20 
ROOT
ATOM      1  C   LIG d   1      -4.585  92.501 117.572  0.00  0.00     0.161 C 
ATOM      2  C   LIG d   1      -5.059  91.715 116.508  0.00  0.00     0.016 C 
ATOM      3  C   LIG d   1      -6.256  91.992 115.808  0.00  0.00     0.038 C 
ATOM      4  C   LIG d   1      -6.986  93.170 116.027  0.00  0.00     0.028 C 
ATOM      5  C   LIG d   1      -6.819  93.735 117.433  0.00  0.00    -0.047 C 
ATOM      6  C   LIG d   1      -5.310  93.851 117.751  0.00  0.00     0.091 C 
ENDROOT
BRANCH   1   7
ATOM      7  O   LIG d   1      -3.166  92.710 117.430  0.00  0.00    -0.368 OA
BRANCH   7   8
ATOM      8  C   LIG d   1      -2.313  91.853 118.230  0.00  0.00     0.119 C 
BRANCH   8   9
ATOM      9  C   LIG d   1      -3.176  90.679 118.731  0.00  0.00     0.028 C 
ATOM     10  C   LIG d   1      -2.589  89.312 118.342  0.00  0.00     0.006 C 
ENDBRANCH   8   9
BRANCH   8  11
ATOM     11  C   LIG d   1      -1.831  92.571 119.494  0.00  0.00     0.028 C 
ATOM     12  C   LIG d   1      -2.610  92.153 120.750  0.00  0.00     0.006 C 
ENDBRANCH   8  11
ENDBRANCH   7   8
ENDBRANCH   1   7
BRANCH   6  13
ATOM     13  N   LIG d   1      -5.058  94.317 119.139  0.00  0.00    -0.311 N 
ATOM     14  C   LIG d   1      -4.273  95.352 119.434  0.00  0.00     0.210 C 
ATOM     15  C   LIG d   1      -4.133  95.652 120.930  0.00  0.00     0.109 C 
ATOM     16  O   LIG d   1      -3.706  96.070 118.597  0.00  0.00    -0.276 OA
ATOM     17  H   LIG d   1      -5.504  93.810 119.878  0.00  0.00     0.149 HD
ENDBRANCH   6  13
BRANCH   5  18
ATOM     18  N   LIG d   1      -7.521  95.031 117.480  0.00  0.00     0.381 N 
ATOM     19  H   LIG d   1      -8.510  94.880 117.475  0.00  0.00    -0.090 HD
ATOM     20  H   LIG d   1      -7.279  95.561 116.661  0.00  0.00    -0.090 HD
ATOM     21  H   LIG d   1      -7.258  95.532 118.299  0.00  0.00    -0.090 HD
ENDBRANCH   5  18
BRANCH   3  22
ATOM     22  C   LIG d   1      -6.754  91.066 114.905  0.00  0.00     0.382 C 
ATOM     23  O   LIG d   1      -6.246  89.921 114.837  0.00  0.00    -0.241 OA
ATOM     24  O   LIG d   1      -7.675  91.376 114.126  0.00  0.00    -0.241 OA
ENDBRANCH   3  22
TORSDOF 7
ENDMDL
MODEL 6
REMARK VINA RESULT:      -4.7      2.282      4.342
REMARK  7 active torsions:
REMARK  status: ('A' for Active; 'I' for Inactive)
REMARK    1  A    between atoms: C_2  and  C_3 
REMARK    2  A    between atoms: C_3  and  O_6 
REMARK    3  A    between atoms: C_3  and  C_4 
REMARK    4  A    between atoms: C_7  and  O_6 
REMARK    5  A    between atoms: C_9  and  C_10 
REMARK    6  A    between atoms: N_15  and  C_14 
REMARK    7  A    between atoms: N_20  and  C_19 
REMARK       I    between atoms: C_22  and  N_20 
ROOT
ATOM      1  C   LIG d   1      -5.183  93.198 117.727  0.00  0.00     0.161 C 
ATOM      2  C   LIG d   1      -5.326  92.303 116.653  0.00  0.00     0.016 C 
ATOM      3  C   LIG d   1      -6.451  92.289 115.797  0.00  0.00     0.038 C 
ATOM      4  C   LIG d   1      -7.447  93.275 115.864  0.00  0.00     0.028 C 
ATOM      5  C   LIG d   1      -7.596  93.890 117.252  0.00  0.00    -0.047 C 
ATOM      6  C   LIG d   1      -6.207  94.352 117.748  0.00  0.00     0.091 C 
ENDROOT
BRANCH   1   7
ATOM      7  O   LIG d   1      -3.840  93.719 117.754  0.00  0.00    -0.368 OA
BRANCH   7   8
ATOM      8  C   LIG d   1      -2.934  93.098 118.698  0.00  0.00     0.119 C 
BRANCH   8   9
ATOM      9  C   LIG d   1      -2.286  94.224 119.528  0.00  0.00     0.028 C 
ATOM     10  C   LIG d   1      -2.906  94.351 120.929  0.00  0.00     0.006 C 
ENDBRANCH   8   9
BRANCH   8  11
ATOM     11  C   LIG d   1      -1.772  92.403 117.982  0.00  0.00     0.028 C 
ATOM     12  C   LIG d   1      -1.160  91.261 118.808  0.00  0.00     0.006 C 
ENDBRANCH   8  11
ENDBRANCH   7   8
ENDBRANCH   1   7
BRANCH   6  13
ATOM     13  N   LIG d   1      -6.250  94.890 119.133  0.00  0.00    -0.311 N 
ATOM     14  C   LIG d   1      -5.990  96.161 119.434  0.00  0.00     0.210 C 
ATOM     15  C   LIG d   1      -6.071  96.502 120.925  0.00  0.00     0.109 C 
ATOM     16  O   LIG d   1      -5.731  97.046 118.604  0.00  0.00    -0.276 OA
ATOM     17  H   LIG d   1      -6.483  94.247 119.865  0.00  0.00     0.149 HD
ENDBRANCH   6  13
BRANCH   5  18
ATOM     18  N   LIG d   1      -8.569  94.994 117.146  0.00  0.00     0.381 N 
ATOM     19  H   LIG d   1      -8.380  95.680 117.850  0.00  0.00    -0.090 HD
ATOM     20  H   LIG d   1      -9.493  94.630 117.301  0.00  0.00    -0.090 HD
ATOM     21  H   LIG d   1      -8.515  95.411 116.243  0.00  0.00    -0.090 HD
ENDBRANCH   5  18
BRANCH   3  22
ATOM     22  C   LIG d   1      -6.607  91.256 114.885  0.00  0.00     0.382 C 
ATOM     23  O   LIG d   1      -7.662  91.169 114.210  0.00  0.00    -0.241 OA
ATOM     24  O   LIG d   1      -5.726  90.385 114.760  0.00  0.00    -0.241 OA
ENDBRANCH   3  22
TORSDOF 7
ENDMDL
MODEL 7
REMARK VINA RESULT:      -4.5      2.699      5.948
REMARK  7 active torsions:
REMARK  status: ('A' for Active; 'I' for Inactive)
REMARK    1  A    between atoms: C_2  and  C_3 
REMARK    2  A    between atoms: C_3  and  O_6 
REMARK    3  A    between atoms: C_3  and  C_4 
REMARK    4  A    between atoms: C_7  and  O_6 
REMARK    5  A    between atoms: C_9  and  C_10 
REMARK    6  A    between atoms: N_15  and  C_14 
REMARK    7  A    between atoms: N_20  and  C_19 
REMARK       I    between atoms: C_22  and  N_20 
ROOT
ATOM      1  C   LIG d   1      -3.908  92.637 118.150  0.00  0.00     0.161 C 
ATOM      2  C   LIG d   1      -3.966  93.959 118.623  0.00  0.00     0.016 C 
ATOM      3  C   LIG d   1      -2.906  94.582 119.320  0.00  0.00     0.038 C 
ATOM      4  C   LIG d   1      -1.650  93.972 119.460  0.00  0.00     0.028 C 
ATOM      5  C   LIG d   1      -1.711  92.449 119.441  0.00  0.00    -0.047 C 
ATOM      6  C   LIG d   1      -2.506  91.994 118.196  0.00  0.00     0.091 C 
ENDROOT
BRANCH   1   7
ATOM      7  O   LIG d   1      -4.446  92.573 116.814  0.00  0.00    -0.368 OA
BRANCH   7   8
ATOM      8  C   LIG d   1      -5.722  91.901 116.672  0.00  0.00     0.119 C 
BRANCH   8   9
ATOM      9  C   LIG d   1      -5.491  90.646 115.809  0.00  0.00     0.028 C 
ATOM     10  C   LIG d   1      -6.703  90.310 114.924  0.00  0.00     0.006 C 
ENDBRANCH   8   9
BRANCH   8  11
ATOM     11  C   LIG d   1      -6.717  92.758 115.883  0.00  0.00     0.028 C 
ATOM     12  C   LIG d   1      -7.327  93.890 116.725  0.00  0.00     0.006 C 
ENDBRANCH   8  11
ENDBRANCH   7   8
ENDBRANCH   1   7
BRANCH   6  13
ATOM     13  N   LIG d   1      -2.686  90.520 118.145  0.00  0.00    -0.311 N 
ATOM     14  C   LIG d   1      -1.878  89.706 117.467  0.00  0.00     0.210 C 
ATOM     15  C   LIG d   1      -2.254  88.222 117.530  0.00  0.00     0.109 C 
ATOM     16  O   LIG d   1      -0.868  90.068 116.846  0.00  0.00    -0.276 OA
ATOM     17  H   LIG d   1      -3.463  90.137 118.647  0.00  0.00     0.149 HD
ENDBRANCH   6  13
BRANCH   5  18
ATOM     18  N   LIG d   1      -0.324  91.947 119.456  0.00  0.00     0.381 N 
ATOM     19  H   LIG d   1       0.002  91.825 118.519  0.00  0.00    -0.090 HD
ATOM     20  H   LIG d   1      -0.307  91.053 119.915  0.00  0.00    -0.090 HD
ATOM     21  H   LIG d   1       0.265  92.588 119.940  0.00  0.00    -0.090 HD
ENDBRANCH   5  18
BRANCH   3  22
ATOM     22  C   LIG d   1      -3.110  95.815 119.921  0.00  0.00     0.382 C 
ATOM     23  O   LIG d   1      -2.310  96.758 119.705  0.00  0.00    -0.241 OA
ATOM     24  O   LIG d   1      -4.058  95.984 120.711  0.00  0.00    -0.241 OA
ENDBRANCH   3  22
TORSDOF 7
ENDMDL
MODEL 8
REMARK VINA RESULT:      -4.5      2.256      6.425
REMARK  7 active torsions:
REMARK  status: ('A' for Active; 'I' for Inactive)
REMARK    1  A    between atoms: C_2  and  C_3 
REMARK    2  A    between atoms: C_3  and  O_6 
REMARK    3  A    between atoms: C_3  and  C_4 
REMARK    4  A    between atoms: C_7  and  O_6 
REMARK    5  A    between atoms: C_9  and  C_10 
REMARK    6  A    between atoms: N_15  and  C_14 
REMARK    7  A    between atoms: N_20  and  C_19 
REMARK       I    between atoms: C_22  and  N_20 
ROOT
ATOM      1  C   LIG d   1      -5.219  93.138 117.415  0.00  0.00     0.161 C 
ATOM      2  C   LIG d   1      -4.783  94.164 118.269  0.00  0.00     0.016 C 
ATOM      3  C   LIG d   1      -5.602  95.247 118.665  0.00  0.00     0.038 C 
ATOM      4  C   LIG d   1      -6.968  95.296 118.352  0.00  0.00     0.028 C 
ATOM      5  C   LIG d   1      -7.324  94.545 117.074  0.00  0.00    -0.047 C 
ATOM      6  C   LIG d   1      -6.739  93.116 117.152  0.00  0.00     0.091 C 
ENDROOT
BRANCH   1   7
ATOM      7  O   LIG d   1      -4.780  91.862 117.920  0.00  0.00    -0.368 OA
BRANCH   7   8
ATOM      8  C   LIG d   1      -3.449  91.444 117.528  0.00  0.00     0.119 C 
BRANCH   8   9
ATOM      9  C   LIG d   1      -3.543  89.980 117.056  0.00  0.00     0.028 C 
ATOM     10  C   LIG d   1      -2.584  89.054 117.822  0.00  0.00     0.006 C 
ENDBRANCH   8   9
BRANCH   8  11
ATOM     11  C   LIG d   1      -2.495  91.423 118.726  0.00  0.00     0.028 C 
ATOM     12  C   LIG d   1      -1.392  92.489 118.628  0.00  0.00     0.006 C 
ENDBRANCH   8  11
ENDBRANCH   7   8
ENDBRANCH   1   7
BRANCH   6  13
ATOM     13  N   LIG d   1      -6.970  92.340 115.906  0.00  0.00    -0.311 N 
ATOM     14  C   LIG d   1      -7.127  91.018 115.884  0.00  0.00     0.210 C 
ATOM     15  C   LIG d   1      -7.332  90.414 114.492  0.00  0.00     0.109 C 
ATOM     16  O   LIG d   1      -7.147  90.291 116.889  0.00  0.00    -0.276 OA
ATOM     17  H   LIG d   1      -6.999  92.854 115.047  0.00  0.00     0.149 HD
ENDBRANCH   6  13
BRANCH   5  18
ATOM     18  N   LIG d   1      -8.793  94.561 116.941  0.00  0.00     0.381 N 
ATOM     19  H   LIG d   1      -9.209  94.087 117.718  0.00  0.00    -0.090 HD
ATOM     20  H   LIG d   1      -9.050  94.075 116.100  0.00  0.00    -0.090 HD
ATOM     21  H   LIG d   1      -9.122  95.501 116.903  0.00  0.00    -0.090 HD
ENDBRANCH   5  18
BRANCH   3  22
ATOM     22  C   LIG d   1      -5.044  96.315 119.350  0.00  0.00     0.382 C 
ATOM     23  O   LIG d   1      -4.139  96.999 118.815  0.00  0.00    -0.241 OA
ATOM     24  O   LIG d   1      -5.404  96.577 120.514  0.00  0.00    -0.241 OA
ENDBRANCH   3  22
TORSDOF 7
ENDMDL
MODEL 9
REMARK VINA RESULT:      -4.5      2.493      3.816
REMARK  7 active torsions:
REMARK  status: ('A' for Active; 'I' for Inactive)
REMARK    1  A    between atoms: C_2  and  C_3 
REMARK    2  A    between atoms: C_3  and  O_6 
REMARK    3  A    between atoms: C_3  and  C_4 
REMARK    4  A    between atoms: C_7  and  O_6 
REMARK    5  A    between atoms: C_9  and  C_10 
REMARK    6  A    between atoms: N_15  and  C_14 
REMARK    7  A    between atoms: N_20  and  C_19 
REMARK       I    between atoms: C_22  and  N_20 
ROOT
ATOM      1  C   LIG d   1      -3.900  92.332 117.309  0.00  0.00     0.161 C 
ATOM      2  C   LIG d   1      -3.524  90.980 117.258  0.00  0.00     0.016 C 
ATOM      3  C   LIG d   1      -2.903  90.303 118.333  0.00  0.00     0.038 C 
ATOM      4  C   LIG d   1      -2.753  90.898 119.595  0.00  0.00     0.028 C 
ATOM      5  C   LIG d   1      -2.659  92.419 119.541  0.00  0.00    -0.047 C 
ATOM      6  C   LIG d   1      -3.845  92.966 118.715  0.00  0.00     0.091 C 
ENDROOT
BRANCH   1   7
ATOM      7  O   LIG d   1      -5.212  92.496 116.736  0.00  0.00    -0.368 OA
BRANCH   7   8
ATOM      8  C   LIG d   1      -6.303  91.868 117.453  0.00  0.00     0.119 C 
BRANCH   8   9
ATOM      9  C   LIG d   1      -7.081  91.000 116.445  0.00  0.00     0.028 C 
ATOM     10  C   LIG d   1      -6.564  91.167 115.006  0.00  0.00     0.006 C 
ENDBRANCH   8   9
BRANCH   8  11
ATOM     11  C   LIG d   1      -7.311  92.907 117.955  0.00  0.00     0.028 C 
ATOM     12  C   LIG d   1      -7.285  94.207 117.135  0.00  0.00     0.006 C 
ENDBRANCH   8  11
ENDBRANCH   7   8
ENDBRANCH   1   7
BRANCH   6  13
ATOM     13  N   LIG d   1      -3.782  94.441 118.541  0.00  0.00    -0.311 N 
ATOM     14  C   LIG d   1      -4.449  95.298 119.311  0.00  0.00     0.210 C 
ATOM     15  C   LIG d   1      -4.261  96.775 118.949  0.00  0.00     0.109 C 
ATOM     16  O   LIG d   1      -5.154  94.979 120.281  0.00  0.00    -0.276 OA
ATOM     17  H   LIG d   1      -3.209  94.789 117.797  0.00  0.00     0.149 HD
ENDBRANCH   6  13
BRANCH   5  18
ATOM     18  N   LIG d   1      -2.644  92.914 120.930  0.00  0.00     0.381 N 
ATOM     19  H   LIG d   1      -3.494  93.406 121.123  0.00  0.00    -0.090 HD
ATOM     20  H   LIG d   1      -1.877  93.554 121.039  0.00  0.00    -0.090 HD
ATOM     21  H   LIG d   1      -2.542  92.152 121.563  0.00  0.00    -0.090 HD
ENDBRANCH   5  18
BRANCH   3  22
ATOM     22  C   LIG d   1      -2.389  89.030 118.139  0.00  0.00     0.382 C 
ATOM     23  O   LIG d   1      -1.444  88.852 117.334  0.00  0.00    -0.241 OA
ATOM     24  O   LIG d   1      -2.888  88.051 118.727  0.00  0.00    -0.241 OA
ENDBRANCH   3  22
TORSDOF 7
ENDMDL
