MODEL 1
REMARK VINA RESULT:      -5.7      0.000      0.000
REMARK  7 active torsions:
REMARK  status: ('A' for Active; 'I' for Inactive)
REMARK    1  A    between atoms: C_2  and  C_3 
REMARK    2  A    between atoms: C_3  and  O_6 
REMARK    3  A    between atoms: C_3  and  C_4 
REMARK    4  A    between atoms: C_7  and  O_6 
REMARK    5  A    between atoms: C_9  and  C_10 
REMARK    6  A    between atoms: N_15  and  C_14 
REMARK    7  A    between atoms: N_20  and  C_19 
REMARK       I    between atoms: C_22  and  N_20 
ROOT
ATOM      1  C   LIG d   1      -6.334  93.001 118.020  0.00  0.00     0.161 C 
ATOM      2  C   LIG d   1      -7.081  91.989 117.394  0.00  0.00     0.016 C 
ATOM      3  C   LIG d   1      -6.497  90.930 116.662  0.00  0.00     0.038 C 
ATOM      4  C   LIG d   1      -5.110  90.726 116.633  0.00  0.00     0.028 C 
ATOM      5  C   LIG d   1      -4.304  92.006 116.828  0.00  0.00    -0.047 C 
ATOM      6  C   LIG d   1      -4.816  92.733 118.092  0.00  0.00     0.091 C 
ENDROOT
BRANCH   1   7
ATOM      7  O   LIG d   1      -6.861  93.255 119.337  0.00  0.00    -0.368 OA
BRANCH   7   8
ATOM      8  C   LIG d   1      -7.174  94.636 119.643  0.00  0.00     0.119 C 
BRANCH   8   9
ATOM      9  C   LIG d   1      -8.477  94.644 120.465  0.00  0.00     0.028 C 
ATOM     10  C   LIG d   1      -9.731  94.576 119.578  0.00  0.00     0.006 C 
ENDBRANCH   8   9
BRANCH   8  11
ATOM     11  C   LIG d   1      -7.491  95.430 118.373  0.00  0.00     0.028 C 
ATOM     12  C   LIG d   1      -6.931  96.861 118.410  0.00  0.00     0.006 C 
ENDBRANCH   8  11
ENDBRANCH   7   8
ENDBRANCH   1   7
BRANCH   6  13
ATOM     13  N   LIG d   1      -4.138  94.038 118.309  0.00  0.00    -0.311 N 
ATOM     14  C   LIG d   1      -3.071  94.188 119.091  0.00  0.00     0.210 C 
ATOM     15  C   LIG d   1      -2.540  95.622 119.192  0.00  0.00     0.109 C 
ATOM     16  O   LIG d   1      -2.494  93.266 119.686  0.00  0.00    -0.276 OA
ATOM     17  H   LIG d   1      -4.522  94.834 117.840  0.00  0.00     0.149 HD
ENDBRANCH   6  13
BRANCH   5  18
ATOM     18  N   LIG d   1      -2.881  91.628 116.914  0.00  0.00     0.381 N 
ATOM     19  H   LIG d   1      -2.800  90.640 117.043  0.00  0.00    -0.090 HD
ATOM     20  H   LIG d   1      -2.471  92.085 117.709  0.00  0.00    -0.090 HD
ATOM     21  H   LIG d   1      -2.405  91.902 116.082  0.00  0.00    -0.090 HD
ENDBRANCH   5  18
BRANCH   3  22
ATOM     22  C   LIG d   1      -7.304  90.084 115.916  0.00  0.00     0.382 C 
ATOM     23  O   LIG d   1      -8.186  89.397 116.484  0.00  0.00    -0.241 OA
ATOM     24  O   LIG d   1      -7.130  89.967 114.688  0.00  0.00    -0.241 OA
ENDBRANCH   3  22
TORSDOF 7
ENDMDL
MODEL 2
REMARK VINA RESULT:      -5.6      0.727      1.427
REMARK  7 active torsions:
REMARK  status: ('A' for Active; 'I' for Inactive)
REMARK    1  A    between atoms: C_2  and  C_3 
REMARK    2  A    between atoms: C_3  and  O_6 
REMARK    3  A    between atoms: C_3  and  C_4 
REMARK    4  A    between atoms: C_7  and  O_6 
REMARK    5  A    between atoms: C_9  and  C_10 
REMARK    6  A    between atoms: N_15  and  C_14 
REMARK    7  A    between atoms: N_20  and  C_19 
REMARK       I    between atoms: C_22  and  N_20 
ROOT
ATOM      1  C   LIG d   1      -6.096  93.238 117.427  0.00  0.00     0.161 C 
ATOM      2  C   LIG d   1      -6.933  92.247 116.890  0.00  0.00     0.016 C 
ATOM      3  C   LIG d   1      -6.476  90.964 116.509  0.00  0.00     0.038 C 
ATOM      4  C   LIG d   1      -5.170  90.531 116.782  0.00  0.00     0.028 C 
ATOM      5  C   LIG d   1      -4.159  91.670 116.862  0.00  0.00    -0.047 C 
ATOM      6  C   LIG d   1      -4.691  92.746 117.835  0.00  0.00     0.091 C 
ENDROOT
BRANCH   1   7
ATOM      7  O   LIG d   1      -6.747  93.876 118.544  0.00  0.00    -0.368 OA
BRANCH   7   8
ATOM      8  C   LIG d   1      -7.087  95.274 118.370  0.00  0.00     0.119 C 
BRANCH   8   9
ATOM      9  C   LIG d   1      -6.612  96.026 119.628  0.00  0.00     0.028 C 
ATOM     10  C   LIG d   1      -5.950  95.092 120.655  0.00  0.00     0.006 C 
ENDBRANCH   8   9
BRANCH   8  11
ATOM     11  C   LIG d   1      -8.604  95.476 118.324  0.00  0.00     0.028 C 
ATOM     12  C   LIG d   1      -9.363  94.504 119.241  0.00  0.00     0.006 C 
ENDBRANCH   8  11
ENDBRANCH   7   8
ENDBRANCH   1   7
BRANCH   6  13
ATOM     13  N   LIG d   1      -3.802  93.935 117.907  0.00  0.00    -0.311 N 
ATOM     14  C   LIG d   1      -2.860  94.091 118.836  0.00  0.00     0.210 C 
ATOM     15  C   LIG d   1      -2.068  95.399 118.741  0.00  0.00     0.109 C 
ATOM     16  O   LIG d   1      -2.583  93.255 119.710  0.00  0.00    -0.276 OA
ATOM     17  H   LIG d   1      -3.937  94.648 117.218  0.00  0.00     0.149 HD
ENDBRANCH   6  13
BRANCH   5  18
ATOM     18  N   LIG d   1      -2.870  91.092 117.287  0.00  0.00     0.381 N 
ATOM     19  H   LIG d   1      -2.214  91.825 117.469  0.00  0.00    -0.090 HD
ATOM     20  H   LIG d   1      -2.508  90.523 116.542  0.00  0.00    -0.090 HD
ATOM     21  H   LIG d   1      -2.997  90.540 118.106  0.00  0.00    -0.090 HD
ENDBRANCH   5  18
BRANCH   3  22
ATOM     22  C   LIG d   1      -7.320  90.113 115.812  0.00  0.00     0.382 C 
ATOM     23  O   LIG d   1      -8.149  89.404 116.432  0.00  0.00    -0.241 OA
ATOM     24  O   LIG d   1      -7.232  90.013 114.573  0.00  0.00    -0.241 OA
ENDBRANCH   3  22
TORSDOF 7
ENDMDL
MODEL 3
REMARK VINA RESULT:      -5.2      2.268      4.816
REMARK  7 active torsions:
REMARK  status: ('A' for Active; 'I' for Inactive)
REMARK    1  A    between atoms: C_2  and  C_3 
REMARK    2  A    between atoms: C_3  and  O_6 
REMARK    3  A    between atoms: C_3  and  C_4 
REMARK    4  A    between atoms: C_7  and  O_6 
REMARK    5  A    between atoms: C_9  and  C_10 
REMARK    6  A    between atoms: N_15  and  C_14 
REMARK    7  A    between atoms: N_20  and  C_19 
REMARK       I    between atoms: C_22  and  N_20 
ROOT
ATOM      1  C   LIG d   1      -4.533  91.221 117.893  0.00  0.00     0.161 C 
ATOM      2  C   LIG d   1      -5.412  90.546 117.029  0.00  0.00     0.016 C 
ATOM      3  C   LIG d   1      -6.559  91.146 116.462  0.00  0.00     0.038 C 
ATOM      4  C   LIG d   1      -6.824  92.517 116.601  0.00  0.00     0.028 C 
ATOM      5  C   LIG d   1      -6.242  93.120 117.874  0.00  0.00    -0.047 C 
ATOM      6  C   LIG d   1      -4.745  92.747 117.968  0.00  0.00     0.091 C 
ENDROOT
BRANCH   1   7
ATOM      7  O   LIG d   1      -3.169  90.921 117.536  0.00  0.00    -0.368 OA
BRANCH   7   8
ATOM      8  C   LIG d   1      -2.397  90.193 118.521  0.00  0.00     0.119 C 
BRANCH   8   9
ATOM      9  C   LIG d   1      -0.910  90.509 118.270  0.00  0.00     0.028 C 
ATOM     10  C   LIG d   1      -0.716  91.680 117.292  0.00  0.00     0.006 C 
ENDBRANCH   8   9
BRANCH   8  11
ATOM     11  C   LIG d   1      -2.529  88.679 118.326  0.00  0.00     0.028 C 
ATOM     12  C   LIG d   1      -2.894  87.940 119.623  0.00  0.00     0.006 C 
ENDBRANCH   8  11
ENDBRANCH   7   8
ENDBRANCH   1   7
BRANCH   6  13
ATOM     13  N   LIG d   1      -4.119  93.227 119.227  0.00  0.00    -0.311 N 
ATOM     14  C   LIG d   1      -3.073  94.052 119.258  0.00  0.00     0.210 C 
ATOM     15  C   LIG d   1      -2.571  94.407 120.661  0.00  0.00     0.109 C 
ATOM     16  O   LIG d   1      -2.534  94.548 118.258  0.00  0.00    -0.276 OA
ATOM     17  H   LIG d   1      -4.513  92.898 120.087  0.00  0.00     0.149 HD
ENDBRANCH   6  13
BRANCH   5  18
ATOM     18  N   LIG d   1      -6.474  94.576 117.824  0.00  0.00     0.381 N 
ATOM     19  H   LIG d   1      -5.671  95.033 117.440  0.00  0.00    -0.090 HD
ATOM     20  H   LIG d   1      -6.613  94.916 118.759  0.00  0.00    -0.090 HD
ATOM     21  H   LIG d   1      -7.276  94.775 117.268  0.00  0.00    -0.090 HD
ENDBRANCH   5  18
BRANCH   3  22
ATOM     22  C   LIG d   1      -7.477  90.363 115.778  0.00  0.00     0.382 C 
ATOM     23  O   LIG d   1      -8.016  89.385 116.350  0.00  0.00    -0.241 OA
ATOM     24  O   LIG d   1      -7.739  90.596 114.583  0.00  0.00    -0.241 OA
ENDBRANCH   3  22
TORSDOF 7
ENDMDL
MODEL 4
REMARK VINA RESULT:      -5.1      2.036      4.403
REMARK  7 active torsions:
REMARK  status: ('A' for Active; 'I' for Inactive)
REMARK    1  A    between atoms: C_2  and  C_3 
REMARK    2  A    between atoms: C_3  and  O_6 
REMARK    3  A    between atoms: C_3  and  C_4 
REMARK    4  A    between atoms: C_7  and  O_6 
REMARK    5  A    between atoms: C_9  and  C_10 
REMARK    6  A    between atoms: N_15  and  C_14 
REMARK    7  A    between atoms: N_20  and  C_19 
REMARK       I    between atoms: C_22  and  N_20 
ROOT
ATOM      1  C   LIG d   1      -4.873  92.636 117.738  0.00  0.00     0.161 C 
ATOM      2  C   LIG d   1      -4.995  91.626 116.769  0.00  0.00     0.016 C 
ATOM      3  C   LIG d   1      -6.180  91.390 116.036  0.00  0.00     0.038 C 
ATOM      4  C   LIG d   1      -7.285  92.251 116.115  0.00  0.00     0.028 C 
ATOM      5  C   LIG d   1      -7.388  92.983 117.448  0.00  0.00    -0.047 C 
ATOM      6  C   LIG d   1      -6.031  93.656 117.758  0.00  0.00     0.091 C 
ENDROOT
BRANCH   1   7
ATOM      7  O   LIG d   1      -3.611  93.314 117.581  0.00  0.00    -0.368 OA
BRANCH   7   8
ATOM      8  C   LIG d   1      -2.502  92.783 118.347  0.00  0.00     0.119 C 
BRANCH   8   9
ATOM      9  C   LIG d   1      -2.326  93.680 119.588  0.00  0.00     0.028 C 
ATOM     10  C   LIG d   1      -2.518  95.172 119.267  0.00  0.00     0.006 C 
ENDBRANCH   8   9
BRANCH   8  11
ATOM     11  C   LIG d   1      -1.185  92.898 117.575  0.00  0.00     0.028 C 
ATOM     12  C   LIG d   1      -0.536  91.532 117.299  0.00  0.00     0.006 C 
ENDBRANCH   8  11
ENDBRANCH   7   8
ENDBRANCH   1   7
BRANCH   6  13
ATOM     13  N   LIG d   1      -6.019  94.324 119.086  0.00  0.00    -0.311 N 
ATOM     14  C   LIG d   1      -6.345  95.603 119.266  0.00  0.00     0.210 C 
ATOM     15  C   LIG d   1      -6.246  96.097 120.712  0.00  0.00     0.109 C 
ATOM     16  O   LIG d   1      -6.737  96.366 118.370  0.00  0.00    -0.276 OA
ATOM     17  H   LIG d   1      -5.743  93.770 119.872  0.00  0.00     0.149 HD
ENDBRANCH   6  13
BRANCH   5  18
ATOM     18  N   LIG d   1      -8.500  93.947 117.343  0.00  0.00     0.381 N 
ATOM     19  H   LIG d   1      -8.140  94.880 117.330  0.00  0.00    -0.090 HD
ATOM     20  H   LIG d   1      -9.093  93.849 118.149  0.00  0.00    -0.090 HD
ATOM     21  H   LIG d   1      -9.024  93.774 116.514  0.00  0.00    -0.090 HD
ENDBRANCH   5  18
BRANCH   3  22
ATOM     22  C   LIG d   1      -6.283  90.258 115.242  0.00  0.00     0.382 C 
ATOM     23  O   LIG d   1      -7.364  89.995 114.661  0.00  0.00    -0.241 OA
ATOM     24  O   LIG d   1      -5.323  89.473 115.134  0.00  0.00    -0.241 OA
ENDBRANCH   3  22
TORSDOF 7
ENDMDL
MODEL 5
REMARK VINA RESULT:      -4.7      1.651      4.791
REMARK  7 active torsions:
REMARK  status: ('A' for Active; 'I' for Inactive)
REMARK    1  A    between atoms: C_2  and  C_3 
REMARK    2  A    between atoms: C_3  and  O_6 
REMARK    3  A    between atoms: C_3  and  C_4 
REMARK    4  A    between atoms: C_7  and  O_6 
REMARK    5  A    between atoms: C_9  and  C_10 
REMARK    6  A    between atoms: N_15  and  C_14 
REMARK    7  A    between atoms: N_20  and  C_19 
REMARK       I    between atoms: C_22  and  N_20 
ROOT
ATOM      1  C   LIG d   1      -5.495  93.629 118.449  0.00  0.00     0.161 C 
ATOM      2  C   LIG d   1      -4.680  94.483 119.211  0.00  0.00     0.016 C 
ATOM      3  C   LIG d   1      -3.268  94.422 119.205  0.00  0.00     0.038 C 
ATOM      4  C   LIG d   1      -2.565  93.595 118.315  0.00  0.00     0.028 C 
ATOM      5  C   LIG d   1      -3.349  92.358 117.890  0.00  0.00    -0.047 C 
ATOM      6  C   LIG d   1      -4.744  92.796 117.389  0.00  0.00     0.091 C 
ENDROOT
BRANCH   1   7
ATOM      7  O   LIG d   1      -6.555  94.386 117.832  0.00  0.00    -0.368 OA
BRANCH   7   8
ATOM      8  C   LIG d   1      -7.513  94.993 118.735  0.00  0.00     0.119 C 
BRANCH   8   9
ATOM      9  C   LIG d   1      -8.823  94.189 118.628  0.00  0.00     0.028 C 
ATOM     10  C   LIG d   1      -9.844  94.586 119.708  0.00  0.00     0.006 C 
ENDBRANCH   8   9
BRANCH   8  11
ATOM     11  C   LIG d   1      -7.872  96.414 118.292  0.00  0.00     0.028 C 
ATOM     12  C   LIG d   1      -6.714  97.407 118.481  0.00  0.00     0.006 C 
ENDBRANCH   8  11
ENDBRANCH   7   8
ENDBRANCH   1   7
BRANCH   6  13
ATOM     13  N   LIG d   1      -5.607  91.639 117.032  0.00  0.00    -0.311 N 
ATOM     14  C   LIG d   1      -6.236  91.527 115.864  0.00  0.00     0.210 C 
ATOM     15  C   LIG d   1      -7.091  90.265 115.708  0.00  0.00     0.109 C 
ATOM     16  O   LIG d   1      -6.142  92.336 114.929  0.00  0.00    -0.276 OA
ATOM     17  H   LIG d   1      -5.714  90.920 117.721  0.00  0.00     0.149 HD
ENDBRANCH   6  13
BRANCH   5  18
ATOM     18  N   LIG d   1      -2.557  91.660 116.860  0.00  0.00     0.381 N 
ATOM     19  H   LIG d   1      -2.112  90.858 117.260  0.00  0.00    -0.090 HD
ATOM     20  H   LIG d   1      -1.843  92.282 116.523  0.00  0.00    -0.090 HD
ATOM     21  H   LIG d   1      -3.147  91.381 116.107  0.00  0.00    -0.090 HD
ENDBRANCH   5  18
BRANCH   3  22
ATOM     22  C   LIG d   1      -2.544  95.164 120.125  0.00  0.00     0.382 C 
ATOM     23  O   LIG d   1      -1.433  94.747 120.533  0.00  0.00    -0.241 OA
ATOM     24  O   LIG d   1      -3.008  96.224 120.586  0.00  0.00    -0.241 OA
ENDBRANCH   3  22
TORSDOF 7
ENDMDL
MODEL 6
REMARK VINA RESULT:      -4.2      4.300      7.858
REMARK  7 active torsions:
REMARK  status: ('A' for Active; 'I' for Inactive)
REMARK    1  A    between atoms: C_2  and  C_3 
REMARK    2  A    between atoms: C_3  and  O_6 
REMARK    3  A    between atoms: C_3  and  C_4 
REMARK    4  A    between atoms: C_7  and  O_6 
REMARK    5  A    between atoms: C_9  and  C_10 
REMARK    6  A    between atoms: N_15  and  C_14 
REMARK    7  A    between atoms: N_20  and  C_19 
REMARK       I    between atoms: C_22  and  N_20 
ROOT
ATOM      1  C   LIG d   1      -0.264  91.251 117.196  0.00  0.00     0.161 C 
ATOM      2  C   LIG d   1       1.015  91.776 117.443  0.00  0.00     0.016 C 
ATOM      3  C   LIG d   1       1.248  93.127 117.790  0.00  0.00     0.038 C 
ATOM      4  C   LIG d   1       0.196  94.014 118.063  0.00  0.00     0.028 C 
ATOM      5  C   LIG d   1      -1.098  93.662 117.336  0.00  0.00    -0.047 C 
ATOM      6  C   LIG d   1      -1.432  92.176 117.598  0.00  0.00     0.091 C 
ENDROOT
BRANCH   1   7
ATOM      7  O   LIG d   1      -0.398  89.968 117.840  0.00  0.00    -0.368 OA
BRANCH   7   8
ATOM      8  C   LIG d   1      -0.732  89.993 119.249  0.00  0.00     0.119 C 
BRANCH   8   9
ATOM      9  C   LIG d   1       0.505  89.505 120.027  0.00  0.00     0.028 C 
ATOM     10  C   LIG d   1       0.193  88.300 120.930  0.00  0.00     0.006 C 
ENDBRANCH   8   9
BRANCH   8  11
ATOM     11  C   LIG d   1      -1.840  88.988 119.577  0.00  0.00     0.028 C 
ATOM     12  C   LIG d   1      -2.533  88.434 118.322  0.00  0.00     0.006 C 
ENDBRANCH   8  11
ENDBRANCH   7   8
ENDBRANCH   1   7
BRANCH   6  13
ATOM     13  N   LIG d   1      -2.638  91.727 116.854  0.00  0.00    -0.311 N 
ATOM     14  C   LIG d   1      -3.859  91.703 117.384  0.00  0.00     0.210 C 
ATOM     15  C   LIG d   1      -4.959  91.185 116.451  0.00  0.00     0.109 C 
ATOM     16  O   LIG d   1      -4.142  92.091 118.528  0.00  0.00    -0.276 OA
ATOM     17  H   LIG d   1      -2.504  91.424 115.909  0.00  0.00     0.149 HD
ENDBRANCH   6  13
BRANCH   5  18
ATOM     18  N   LIG d   1      -2.144  94.584 117.816  0.00  0.00     0.381 N 
ATOM     19  H   LIG d   1      -2.987  94.439 117.297  0.00  0.00    -0.090 HD
ATOM     20  H   LIG d   1      -1.839  95.529 117.665  0.00  0.00    -0.090 HD
ATOM     21  H   LIG d   1      -2.312  94.433 118.786  0.00  0.00    -0.090 HD
ENDBRANCH   5  18
BRANCH   3  22
ATOM     22  C   LIG d   1       2.546  93.613 117.828  0.00  0.00     0.382 C 
ATOM     23  O   LIG d   1       3.427  93.106 117.093  0.00  0.00    -0.241 OA
ATOM     24  O   LIG d   1       2.857  94.523 118.619  0.00  0.00    -0.241 OA
ENDBRANCH   3  22
TORSDOF 7
ENDMDL
MODEL 7
REMARK VINA RESULT:      -4.2      2.253      4.677
REMARK  7 active torsions:
REMARK  status: ('A' for Active; 'I' for Inactive)
REMARK    1  A    between atoms: C_2  and  C_3 
REMARK    2  A    between atoms: C_3  and  O_6 
REMARK    3  A    between atoms: C_3  and  C_4 
REMARK    4  A    between atoms: C_7  and  O_6 
REMARK    5  A    between atoms: C_9  and  C_10 
REMARK    6  A    between atoms: N_15  and  C_14 
REMARK    7  A    between atoms: N_20  and  C_19 
REMARK       I    between atoms: C_22  and  N_20 
ROOT
ATOM      1  C   LIG d   1      -3.524  93.380 118.115  0.00  0.00     0.161 C 
ATOM      2  C   LIG d   1      -4.858  93.804 118.237  0.00  0.00     0.016 C 
ATOM      3  C   LIG d   1      -5.963  93.024 117.826  0.00  0.00     0.038 C 
ATOM      4  C   LIG d   1      -5.816  91.695 117.402  0.00  0.00     0.028 C 
ATOM      5  C   LIG d   1      -4.451  91.403 116.787  0.00  0.00    -0.047 C 
ATOM      6  C   LIG d   1      -3.350  91.889 117.757  0.00  0.00     0.091 C 
ENDROOT
BRANCH   1   7
ATOM      7  O   LIG d   1      -2.799  93.694 119.320  0.00  0.00    -0.368 OA
BRANCH   7   8
ATOM      8  C   LIG d   1      -1.891  94.821 119.242  0.00  0.00     0.119 C 
BRANCH   8   9
ATOM      9  C   LIG d   1      -0.462  94.277 119.433  0.00  0.00     0.028 C 
ATOM     10  C   LIG d   1       0.441  94.563 118.222  0.00  0.00     0.006 C 
ENDBRANCH   8   9
BRANCH   8  11
ATOM     11  C   LIG d   1      -2.113  95.796 120.402  0.00  0.00     0.028 C 
ATOM     12  C   LIG d   1      -3.556  95.777 120.930  0.00  0.00     0.006 C 
ENDBRANCH   8  11
ENDBRANCH   7   8
ENDBRANCH   1   7
BRANCH   6  13
ATOM     13  N   LIG d   1      -1.984  91.718 117.196  0.00  0.00    -0.311 N 
ATOM     14  C   LIG d   1      -1.013  91.055 117.820  0.00  0.00     0.210 C 
ATOM     15  C   LIG d   1       0.325  91.015 117.075  0.00  0.00     0.109 C 
ATOM     16  O   LIG d   1      -1.141  90.470 118.906  0.00  0.00    -0.276 OA
ATOM     17  H   LIG d   1      -1.803  92.135 116.304  0.00  0.00     0.149 HD
ENDBRANCH   6  13
BRANCH   5  18
ATOM     18  N   LIG d   1      -4.385  89.954 116.517  0.00  0.00     0.381 N 
ATOM     19  H   LIG d   1      -3.853  89.500 117.232  0.00  0.00    -0.090 HD
ATOM     20  H   LIG d   1      -3.920  89.809 115.638  0.00  0.00    -0.090 HD
ATOM     21  H   LIG d   1      -5.304  89.571 116.482  0.00  0.00    -0.090 HD
ENDBRANCH   5  18
BRANCH   3  22
ATOM     22  C   LIG d   1      -7.230  93.586 117.801  0.00  0.00     0.382 C 
ATOM     23  O   LIG d   1      -8.160  93.011 117.186  0.00  0.00    -0.241 OA
ATOM     24  O   LIG d   1      -7.445  94.685 118.347  0.00  0.00    -0.241 OA
ENDBRANCH   3  22
TORSDOF 7
ENDMDL
MODEL 8
REMARK VINA RESULT:      -4.2      5.224      7.968
REMARK  7 active torsions:
REMARK  status: ('A' for Active; 'I' for Inactive)
REMARK    1  A    between atoms: C_2  and  C_3 
REMARK    2  A    between atoms: C_3  and  O_6 
REMARK    3  A    between atoms: C_3  and  C_4 
REMARK    4  A    between atoms: C_7  and  O_6 
REMARK    5  A    between atoms: C_9  and  C_10 
REMARK    6  A    between atoms: N_15  and  C_14 
REMARK    7  A    between atoms: N_20  and  C_19 
REMARK       I    between atoms: C_22  and  N_20 
ROOT
ATOM      1  C   LIG d   1       0.141  91.482 117.898  0.00  0.00     0.161 C 
ATOM      2  C   LIG d   1      -1.235  91.578 117.629  0.00  0.00     0.016 C 
ATOM      3  C   LIG d   1      -1.916  92.809 117.488  0.00  0.00     0.038 C 
ATOM      4  C   LIG d   1      -1.234  94.035 117.458  0.00  0.00     0.028 C 
ATOM      5  C   LIG d   1       0.082  94.015 118.229  0.00  0.00    -0.047 C 
ATOM      6  C   LIG d   1       0.921  92.805 117.758  0.00  0.00     0.091 C 
ENDROOT
BRANCH   1   7
ATOM      7  O   LIG d   1       0.731  90.462 117.069  0.00  0.00    -0.368 OA
BRANCH   7   8
ATOM      8  C   LIG d   1       1.247  89.298 117.760  0.00  0.00     0.119 C 
BRANCH   8   9
ATOM      9  C   LIG d   1       2.709  89.104 117.313  0.00  0.00     0.028 C 
ATOM     10  C   LIG d   1       2.952  89.589 115.874  0.00  0.00     0.006 C 
ENDBRANCH   8   9
BRANCH   8  11
ATOM     11  C   LIG d   1       0.518  88.023 117.325  0.00  0.00     0.028 C 
ATOM     12  C   LIG d   1      -0.839  87.845 118.023  0.00  0.00     0.006 C 
ENDBRANCH   8  11
ENDBRANCH   7   8
ENDBRANCH   1   7
BRANCH   6  13
ATOM     13  N   LIG d   1       2.189  92.663 118.521  0.00  0.00    -0.311 N 
ATOM     14  C   LIG d   1       3.394  92.726 117.959  0.00  0.00     0.210 C 
ATOM     15  C   LIG d   1       4.569  92.534 118.924  0.00  0.00     0.109 C 
ATOM     16  O   LIG d   1       3.604  92.955 116.758  0.00  0.00    -0.276 OA
ATOM     17  H   LIG d   1       2.112  92.507 119.507  0.00  0.00     0.149 HD
ENDBRANCH   6  13
BRANCH   5  18
ATOM     18  N   LIG d   1       0.752  95.309 117.999  0.00  0.00     0.381 N 
ATOM     19  H   LIG d   1       0.325  96.016 118.563  0.00  0.00    -0.090 HD
ATOM     20  H   LIG d   1       0.642  95.565 117.034  0.00  0.00    -0.090 HD
ATOM     21  H   LIG d   1       1.721  95.235 118.222  0.00  0.00    -0.090 HD
ENDBRANCH   5  18
BRANCH   3  22
ATOM     22  C   LIG d   1      -3.300  92.824 117.416  0.00  0.00     0.382 C 
ATOM     23  O   LIG d   1      -3.960  93.568 118.181  0.00  0.00    -0.241 OA
ATOM     24  O   LIG d   1      -3.900  92.070 116.627  0.00  0.00    -0.241 OA
ENDBRANCH   3  22
TORSDOF 7
ENDMDL
MODEL 9
REMARK VINA RESULT:      -4.2      2.526      5.356
REMARK  7 active torsions:
REMARK  status: ('A' for Active; 'I' for Inactive)
REMARK    1  A    between atoms: C_2  and  C_3 
REMARK    2  A    between atoms: C_3  and  O_6 
REMARK    3  A    between atoms: C_3  and  C_4 
REMARK    4  A    between atoms: C_7  and  O_6 
REMARK    5  A    between atoms: C_9  and  C_10 
REMARK    6  A    between atoms: N_15  and  C_14 
REMARK    7  A    between atoms: N_20  and  C_19 
REMARK       I    between atoms: C_22  and  N_20 
ROOT
ATOM      1  C   LIG d   1      -3.201  92.881 119.088  0.00  0.00     0.161 C 
ATOM      2  C   LIG d   1      -3.001  94.253 118.864  0.00  0.00     0.016 C 
ATOM      3  C   LIG d   1      -1.974  94.765 118.038  0.00  0.00     0.038 C 
ATOM      4  C   LIG d   1      -1.166  93.927 117.254  0.00  0.00     0.028 C 
ATOM      5  C   LIG d   1      -1.002  92.527 117.836  0.00  0.00    -0.047 C 
ATOM      6  C   LIG d   1      -2.400  91.949 118.155  0.00  0.00     0.091 C 
ENDROOT
BRANCH   1   7
ATOM      7  O   LIG d   1      -4.608  92.574 119.016  0.00  0.00    -0.368 OA
BRANCH   7   8
ATOM      8  C   LIG d   1      -5.373  93.319 118.037  0.00  0.00     0.119 C 
BRANCH   8   9
ATOM      9  C   LIG d   1      -6.688  93.755 118.711  0.00  0.00     0.028 C 
ATOM     10  C   LIG d   1      -7.048  95.218 118.405  0.00  0.00     0.006 C 
ENDBRANCH   8   9
BRANCH   8  11
ATOM     11  C   LIG d   1      -5.794  92.430 116.864  0.00  0.00     0.028 C 
ATOM     12  C   LIG d   1      -6.973  91.506 117.209  0.00  0.00     0.006 C 
ENDBRANCH   8  11
ENDBRANCH   7   8
ENDBRANCH   1   7
BRANCH   6  13
ATOM     13  N   LIG d   1      -2.327  90.615 118.805  0.00  0.00    -0.311 N 
ATOM     14  C   LIG d   1      -3.120  89.596 118.479  0.00  0.00     0.210 C 
ATOM     15  C   LIG d   1      -2.892  88.315 119.287  0.00  0.00     0.109 C 
ATOM     16  O   LIG d   1      -3.969  89.622 117.576  0.00  0.00    -0.276 OA
ATOM     17  H   LIG d   1      -1.644  90.497 119.528  0.00  0.00     0.149 HD
ENDBRANCH   6  13
BRANCH   5  18
ATOM     18  N   LIG d   1      -0.254  91.721 116.853  0.00  0.00     0.381 N 
ATOM     19  H   LIG d   1       0.729  91.827 117.006  0.00  0.00    -0.090 HD
ATOM     20  H   LIG d   1      -0.467  92.055 115.929  0.00  0.00    -0.090 HD
ATOM     21  H   LIG d   1      -0.509  90.761 116.934  0.00  0.00    -0.090 HD
ENDBRANCH   5  18
BRANCH   3  22
ATOM     22  C   LIG d   1      -1.721  96.128 118.020  0.00  0.00     0.382 C 
ATOM     23  O   LIG d   1      -0.824  96.590 117.274  0.00  0.00    -0.241 OA
ATOM     24  O   LIG d   1      -2.349  96.897 118.773  0.00  0.00    -0.241 OA
ENDBRANCH   3  22
TORSDOF 7
ENDMDL
