MODEL 1
REMARK VINA RESULT:      -5.4      0.000      0.000
REMARK  7 active torsions:
REMARK  status: ('A' for Active; 'I' for Inactive)
REMARK    1  A    between atoms: C_2  and  C_3 
REMARK    2  A    between atoms: C_3  and  O_6 
REMARK    3  A    between atoms: C_3  and  C_4 
REMARK    4  A    between atoms: C_7  and  O_6 
REMARK    5  A    between atoms: C_9  and  C_10 
REMARK    6  A    between atoms: N_15  and  C_14 
REMARK    7  A    between atoms: N_20  and  C_19 
REMARK       I    between atoms: C_22  and  N_20 
ROOT
ATOM      1  C   LIG d   1      -3.358  89.904 117.564  0.00  0.00     0.161 C 
ATOM      2  C   LIG d   1      -3.900  89.152 116.508  0.00  0.00     0.016 C 
ATOM      3  C   LIG d   1      -5.081  89.514 115.821  0.00  0.00     0.038 C 
ATOM      4  C   LIG d   1      -5.722  90.742 116.045  0.00  0.00     0.028 C 
ATOM      5  C   LIG d   1      -5.498  91.295 117.448  0.00  0.00    -0.047 C 
ATOM      6  C   LIG d   1      -3.982  91.303 117.748  0.00  0.00     0.091 C 
ENDROOT
BRANCH   1   7
ATOM      7  O   LIG d   1      -1.929  90.009 117.406  0.00  0.00    -0.368 OA
BRANCH   7   8
ATOM      8  C   LIG d   1      -1.140  88.971 118.037  0.00  0.00     0.119 C 
BRANCH   8   9
ATOM      9  C   LIG d   1      -0.688  89.504 119.411  0.00  0.00     0.028 C 
ATOM     10  C   LIG d   1      -1.625  89.066 120.548  0.00  0.00     0.006 C 
ENDBRANCH   8   9
BRANCH   8  11
ATOM     11  C   LIG d   1       0.152  88.704 117.260  0.00  0.00     0.028 C 
ATOM     12  C   LIG d   1       1.304  89.629 117.684  0.00  0.00     0.006 C 
ENDBRANCH   8  11
ENDBRANCH   7   8
ENDBRANCH   1   7
BRANCH   6  13
ATOM     13  N   LIG d   1      -3.681  91.751 119.133  0.00  0.00    -0.311 N 
ATOM     14  C   LIG d   1      -2.670  92.564 119.437  0.00  0.00     0.210 C 
ATOM     15  C   LIG d   1      -2.524  92.885 120.927  0.00  0.00     0.109 C 
ATOM     16  O   LIG d   1      -1.900  93.075 118.610  0.00  0.00    -0.276 OA
ATOM     17  H   LIG d   1      -4.275  91.409 119.863  0.00  0.00     0.149 HD
ENDBRANCH   6  13
BRANCH   5  18
ATOM     18  N   LIG d   1      -6.105  92.638 117.500  0.00  0.00     0.381 N 
ATOM     19  H   LIG d   1      -5.778  93.127 118.309  0.00  0.00    -0.090 HD
ATOM     20  H   LIG d   1      -7.103  92.542 117.572  0.00  0.00    -0.090 HD
ATOM     21  H   LIG d   1      -5.872  93.150 116.677  0.00  0.00    -0.090 HD
ENDBRANCH   5  18
BRANCH   3  22
ATOM     22  C   LIG d   1      -5.655  88.625 114.925  0.00  0.00     0.382 C 
ATOM     23  O   LIG d   1      -6.904  88.538 114.842  0.00  0.00    -0.241 OA
ATOM     24  O   LIG d   1      -4.940  87.877 114.232  0.00  0.00    -0.241 OA
ENDBRANCH   3  22
TORSDOF 7
ENDMDL
MODEL 2
REMARK VINA RESULT:      -5.3      2.679      5.012
REMARK  7 active torsions:
REMARK  status: ('A' for Active; 'I' for Inactive)
REMARK    1  A    between atoms: C_2  and  C_3 
REMARK    2  A    between atoms: C_3  and  O_6 
REMARK    3  A    between atoms: C_3  and  C_4 
REMARK    4  A    between atoms: C_7  and  O_6 
REMARK    5  A    between atoms: C_9  and  C_10 
REMARK    6  A    between atoms: N_15  and  C_14 
REMARK    7  A    between atoms: N_20  and  C_19 
REMARK       I    between atoms: C_22  and  N_20 
ROOT
ATOM      1  C   LIG d   1      -4.614  91.557 118.483  0.00  0.00     0.161 C 
ATOM      2  C   LIG d   1      -5.506  91.559 117.398  0.00  0.00     0.016 C 
ATOM      3  C   LIG d   1      -5.386  90.688 116.291  0.00  0.00     0.038 C 
ATOM      4  C   LIG d   1      -4.448  89.645 116.265  0.00  0.00     0.028 C 
ATOM      5  C   LIG d   1      -3.208  89.926 117.107  0.00  0.00    -0.047 C 
ATOM      6  C   LIG d   1      -3.650  90.353 118.526  0.00  0.00     0.091 C 
ENDROOT
BRANCH   1   7
ATOM      7  O   LIG d   1      -5.349  91.654 119.719  0.00  0.00    -0.368 OA
BRANCH   7   8
ATOM      8  C   LIG d   1      -6.411  92.639 119.754  0.00  0.00     0.119 C 
BRANCH   8   9
ATOM      9  C   LIG d   1      -5.765  94.006 120.052  0.00  0.00     0.028 C 
ATOM     10  C   LIG d   1      -6.447  95.156 119.292  0.00  0.00     0.006 C 
ENDBRANCH   8   9
BRANCH   8  11
ATOM     11  C   LIG d   1      -7.372  92.382 120.918  0.00  0.00     0.028 C 
ATOM     12  C   LIG d   1      -8.809  92.834 120.615  0.00  0.00     0.006 C 
ENDBRANCH   8  11
ENDBRANCH   7   8
ENDBRANCH   1   7
BRANCH   6  13
ATOM     13  N   LIG d   1      -2.500  90.727 119.389  0.00  0.00    -0.311 N 
ATOM     14  C   LIG d   1      -1.789  89.843 120.088  0.00  0.00     0.210 C 
ATOM     15  C   LIG d   1      -0.658  90.443 120.929  0.00  0.00     0.109 C 
ATOM     16  O   LIG d   1      -1.967  88.616 120.065  0.00  0.00    -0.276 OA
ATOM     17  H   LIG d   1      -2.266  91.699 119.441  0.00  0.00     0.149 HD
ENDBRANCH   6  13
BRANCH   5  18
ATOM     18  N   LIG d   1      -2.380  88.706 117.102  0.00  0.00     0.381 N 
ATOM     19  H   LIG d   1      -2.380  88.300 116.187  0.00  0.00    -0.090 HD
ATOM     20  H   LIG d   1      -2.777  88.040 117.742  0.00  0.00    -0.090 HD
ATOM     21  H   LIG d   1      -1.447  88.925 117.376  0.00  0.00    -0.090 HD
ENDBRANCH   5  18
BRANCH   3  22
ATOM     22  C   LIG d   1      -6.187  90.881 115.175  0.00  0.00     0.382 C 
ATOM     23  O   LIG d   1      -6.912  89.947 114.754  0.00  0.00    -0.241 OA
ATOM     24  O   LIG d   1      -6.159  91.962 114.557  0.00  0.00    -0.241 OA
ENDBRANCH   3  22
TORSDOF 7
ENDMDL
MODEL 3
REMARK VINA RESULT:      -4.9      2.473      5.345
REMARK  7 active torsions:
REMARK  status: ('A' for Active; 'I' for Inactive)
REMARK    1  A    between atoms: C_2  and  C_3 
REMARK    2  A    between atoms: C_3  and  O_6 
REMARK    3  A    between atoms: C_3  and  C_4 
REMARK    4  A    between atoms: C_7  and  O_6 
REMARK    5  A    between atoms: C_9  and  C_10 
REMARK    6  A    between atoms: N_15  and  C_14 
REMARK    7  A    between atoms: N_20  and  C_19 
REMARK       I    between atoms: C_22  and  N_20 
ROOT
ATOM      1  C   LIG d   1      -5.124  91.390 117.215  0.00  0.00     0.161 C 
ATOM      2  C   LIG d   1      -4.125  90.409 117.324  0.00  0.00     0.016 C 
ATOM      3  C   LIG d   1      -3.444  90.123 118.529  0.00  0.00     0.038 C 
ATOM      4  C   LIG d   1      -3.824  90.699 119.751  0.00  0.00     0.028 C 
ATOM      5  C   LIG d   1      -4.488  92.063 119.596  0.00  0.00    -0.047 C 
ATOM      6  C   LIG d   1      -5.630  91.951 118.560  0.00  0.00     0.091 C 
ENDROOT
BRANCH   1   7
ATOM      7  O   LIG d   1      -6.227  90.881 116.439  0.00  0.00    -0.368 OA
BRANCH   7   8
ATOM      8  C   LIG d   1      -6.232  89.452 116.199  0.00  0.00     0.119 C 
BRANCH   8   9
ATOM      9  C   LIG d   1      -5.852  89.228 114.723  0.00  0.00     0.028 C 
ATOM     10  C   LIG d   1      -4.739  88.181 114.555  0.00  0.00     0.006 C 
ENDBRANCH   8   9
BRANCH   8  11
ATOM     11  C   LIG d   1      -7.639  88.867 116.349  0.00  0.00     0.028 C 
ATOM     12  C   LIG d   1      -8.493  89.036 115.083  0.00  0.00     0.006 C 
ENDBRANCH   8  11
ENDBRANCH   7   8
ENDBRANCH   1   7
BRANCH   6  13
ATOM     13  N   LIG d   1      -6.277  93.261 118.287  0.00  0.00    -0.311 N 
ATOM     14  C   LIG d   1      -7.289  93.743 119.006  0.00  0.00     0.210 C 
ATOM     15  C   LIG d   1      -7.823  95.102 118.543  0.00  0.00     0.109 C 
ATOM     16  O   LIG d   1      -7.774  93.189 120.004  0.00  0.00    -0.276 OA
ATOM     17  H   LIG d   1      -5.925  93.791 117.514  0.00  0.00     0.149 HD
ENDBRANCH   6  13
BRANCH   5  18
ATOM     18  N   LIG d   1      -4.956  92.485 120.930  0.00  0.00     0.381 N 
ATOM     19  H   LIG d   1      -5.471  93.339 120.854  0.00  0.00    -0.090 HD
ATOM     20  H   LIG d   1      -4.158  92.649 121.518  0.00  0.00    -0.090 HD
ATOM     21  H   LIG d   1      -5.531  91.776 121.329  0.00  0.00    -0.090 HD
ENDBRANCH   5  18
BRANCH   3  22
ATOM     22  C   LIG d   1      -2.343  89.280 118.513  0.00  0.00     0.382 C 
ATOM     23  O   LIG d   1      -1.919  88.824 117.424  0.00  0.00    -0.241 OA
ATOM     24  O   LIG d   1      -1.795  88.936 119.577  0.00  0.00    -0.241 OA
ENDBRANCH   3  22
TORSDOF 7
ENDMDL
MODEL 4
REMARK VINA RESULT:      -4.9      2.781      5.364
REMARK  7 active torsions:
REMARK  status: ('A' for Active; 'I' for Inactive)
REMARK    1  A    between atoms: C_2  and  C_3 
REMARK    2  A    between atoms: C_3  and  O_6 
REMARK    3  A    between atoms: C_3  and  C_4 
REMARK    4  A    between atoms: C_7  and  O_6 
REMARK    5  A    between atoms: C_9  and  C_10 
REMARK    6  A    between atoms: N_15  and  C_14 
REMARK    7  A    between atoms: N_20  and  C_19 
REMARK       I    between atoms: C_22  and  N_20 
ROOT
ATOM      1  C   LIG d   1      -5.277  91.394 118.265  0.00  0.00     0.161 C 
ATOM      2  C   LIG d   1      -6.311  92.340 118.361  0.00  0.00     0.016 C 
ATOM      3  C   LIG d   1      -6.241  93.488 119.183  0.00  0.00     0.038 C 
ATOM      4  C   LIG d   1      -5.063  93.849 119.855  0.00  0.00     0.028 C 
ATOM      5  C   LIG d   1      -4.167  92.660 120.187  0.00  0.00    -0.047 C 
ATOM      6  C   LIG d   1      -3.941  91.828 118.904  0.00  0.00     0.091 C 
ENDROOT
BRANCH   1   7
ATOM      7  O   LIG d   1      -5.077  91.027 116.886  0.00  0.00    -0.368 OA
BRANCH   7   8
ATOM      8  C   LIG d   1      -5.444  89.673 116.526  0.00  0.00     0.119 C 
BRANCH   8   9
ATOM      9  C   LIG d   1      -4.213  89.018 115.871  0.00  0.00     0.028 C 
ATOM     10  C   LIG d   1      -4.580  88.192 114.626  0.00  0.00     0.006 C 
ENDBRANCH   8   9
BRANCH   8  11
ATOM     11  C   LIG d   1      -6.533  89.657 115.450  0.00  0.00     0.028 C 
ATOM     12  C   LIG d   1      -7.791  88.890 115.886  0.00  0.00     0.006 C 
ENDBRANCH   8  11
ENDBRANCH   7   8
ENDBRANCH   1   7
BRANCH   6  13
ATOM     13  N   LIG d   1      -3.144  90.600 119.158  0.00  0.00    -0.311 N 
ATOM     14  C   LIG d   1      -1.828  90.527 118.965  0.00  0.00     0.210 C 
ATOM     15  C   LIG d   1      -1.205  89.161 119.270  0.00  0.00     0.109 C 
ATOM     16  O   LIG d   1      -1.113  91.473 118.602  0.00  0.00    -0.276 OA
ATOM     17  H   LIG d   1      -3.640  89.794 119.485  0.00  0.00     0.149 HD
ENDBRANCH   6  13
BRANCH   5  18
ATOM     18  N   LIG d   1      -2.916  93.192 120.759  0.00  0.00     0.381 N 
ATOM     19  H   LIG d   1      -2.567  92.562 121.454  0.00  0.00    -0.090 HD
ATOM     20  H   LIG d   1      -3.109  94.073 121.201  0.00  0.00    -0.090 HD
ATOM     21  H   LIG d   1      -2.237  93.314 120.040  0.00  0.00    -0.090 HD
ENDBRANCH   5  18
BRANCH   3  22
ATOM     22  C   LIG d   1      -7.371  94.269 119.372  0.00  0.00     0.382 C 
ATOM     23  O   LIG d   1      -7.727  94.587 120.532  0.00  0.00    -0.241 OA
ATOM     24  O   LIG d   1      -8.065  94.621 118.399  0.00  0.00    -0.241 OA
ENDBRANCH   3  22
TORSDOF 7
ENDMDL
MODEL 5
REMARK VINA RESULT:      -4.5      1.919      4.551
REMARK  7 active torsions:
REMARK  status: ('A' for Active; 'I' for Inactive)
REMARK    1  A    between atoms: C_2  and  C_3 
REMARK    2  A    between atoms: C_3  and  O_6 
REMARK    3  A    between atoms: C_3  and  C_4 
REMARK    4  A    between atoms: C_7  and  O_6 
REMARK    5  A    between atoms: C_9  and  C_10 
REMARK    6  A    between atoms: N_15  and  C_14 
REMARK    7  A    between atoms: N_20  and  C_19 
REMARK       I    between atoms: C_22  and  N_20 
ROOT
ATOM      1  C   LIG d   1      -3.527  90.171 117.919  0.00  0.00     0.161 C 
ATOM      2  C   LIG d   1      -3.741  91.201 118.850  0.00  0.00     0.016 C 
ATOM      3  C   LIG d   1      -4.774  92.159 118.727  0.00  0.00     0.038 C 
ATOM      4  C   LIG d   1      -5.763  92.060 117.737  0.00  0.00     0.028 C 
ATOM      5  C   LIG d   1      -5.293  91.331 116.483  0.00  0.00    -0.047 C 
ATOM      6  C   LIG d   1      -4.663  89.981 116.893  0.00  0.00     0.091 C 
ENDROOT
BRANCH   1   7
ATOM      7  O   LIG d   1      -3.264  88.934 118.611  0.00  0.00    -0.368 OA
BRANCH   7   8
ATOM      8  C   LIG d   1      -1.876  88.661 118.922  0.00  0.00     0.119 C 
BRANCH   8   9
ATOM      9  C   LIG d   1      -1.644  89.057 120.393  0.00  0.00     0.028 C 
ATOM     10  C   LIG d   1      -0.579  90.157 120.544  0.00  0.00     0.006 C 
ENDBRANCH   8   9
BRANCH   8  11
ATOM     11  C   LIG d   1      -0.935  89.555 118.109  0.00  0.00     0.028 C 
ATOM     12  C   LIG d   1       0.064  88.752 117.261  0.00  0.00     0.006 C 
ENDBRANCH   8  11
ENDBRANCH   7   8
ENDBRANCH   1   7
BRANCH   6  13
ATOM     13  N   LIG d   1      -4.101  89.241 115.733  0.00  0.00    -0.311 N 
ATOM     14  C   LIG d   1      -4.824  88.432 114.959  0.00  0.00     0.210 C 
ATOM     15  C   LIG d   1      -4.045  87.752 113.829  0.00  0.00     0.109 C 
ATOM     16  O   LIG d   1      -6.043  88.239 115.082  0.00  0.00    -0.276 OA
ATOM     17  H   LIG d   1      -3.126  89.365 115.541  0.00  0.00     0.149 HD
ENDBRANCH   6  13
BRANCH   5  18
ATOM     18  N   LIG d   1      -6.459  91.179 115.593  0.00  0.00     0.381 N 
ATOM     19  H   LIG d   1      -6.903  90.299 115.764  0.00  0.00    -0.090 HD
ATOM     20  H   LIG d   1      -6.144  91.192 114.639  0.00  0.00    -0.090 HD
ATOM     21  H   LIG d   1      -7.106  91.921 115.747  0.00  0.00    -0.090 HD
ENDBRANCH   5  18
BRANCH   3  22
ATOM     22  C   LIG d   1      -4.801  93.254 119.578  0.00  0.00     0.382 C 
ATOM     23  O   LIG d   1      -5.831  93.967 119.649  0.00  0.00    -0.241 OA
ATOM     24  O   LIG d   1      -3.793  93.563 120.241  0.00  0.00    -0.241 OA
ENDBRANCH   3  22
TORSDOF 7
ENDMDL
MODEL 6
REMARK VINA RESULT:      -4.4      3.838      6.444
REMARK  7 active torsions:
REMARK  status: ('A' for Active; 'I' for Inactive)
REMARK    1  A    between atoms: C_2  and  C_3 
REMARK    2  A    between atoms: C_3  and  O_6 
REMARK    3  A    between atoms: C_3  and  C_4 
REMARK    4  A    between atoms: C_7  and  O_6 
REMARK    5  A    between atoms: C_9  and  C_10 
REMARK    6  A    between atoms: N_15  and  C_14 
REMARK    7  A    between atoms: N_20  and  C_19 
REMARK       I    between atoms: C_22  and  N_20 
ROOT
ATOM      1  C   LIG d   1       1.126  90.721 117.110  0.00  0.00     0.161 C 
ATOM      2  C   LIG d   1       1.549  89.754 116.183  0.00  0.00     0.016 C 
ATOM      3  C   LIG d   1       2.882  89.648 115.723  0.00  0.00     0.038 C 
ATOM      4  C   LIG d   1       3.920  90.412 116.276  0.00  0.00     0.028 C 
ATOM      5  C   LIG d   1       3.452  91.746 116.850  0.00  0.00    -0.047 C 
ATOM      6  C   LIG d   1       2.266  91.491 117.808  0.00  0.00     0.091 C 
ENDROOT
BRANCH   1   7
ATOM      7  O   LIG d   1       0.259  90.113 118.089  0.00  0.00    -0.368 OA
BRANCH   7   8
ATOM      8  C   LIG d   1      -1.159  90.361 117.926  0.00  0.00     0.119 C 
BRANCH   8   9
ATOM      9  C   LIG d   1      -1.645  91.109 119.183  0.00  0.00     0.028 C 
ATOM     10  C   LIG d   1      -2.109  92.542 118.870  0.00  0.00     0.006 C 
ENDBRANCH   8   9
BRANCH   8  11
ATOM     11  C   LIG d   1      -1.954  89.052 117.901  0.00  0.00     0.028 C 
ATOM     12  C   LIG d   1      -3.307  89.191 117.184  0.00  0.00     0.006 C 
ENDBRANCH   8  11
ENDBRANCH   7   8
ENDBRANCH   1   7
BRANCH   6  13
ATOM     13  N   LIG d   1       1.693  92.751 118.349  0.00  0.00    -0.311 N 
ATOM     14  C   LIG d   1       1.590  93.010 119.651  0.00  0.00     0.210 C 
ATOM     15  C   LIG d   1       0.951  94.359 119.993  0.00  0.00     0.109 C 
ATOM     16  O   LIG d   1       1.997  92.264 120.555  0.00  0.00    -0.276 OA
ATOM     17  H   LIG d   1       1.367  93.425 117.684  0.00  0.00     0.149 HD
ENDBRANCH   6  13
BRANCH   5  18
ATOM     18  N   LIG d   1       4.608  92.375 117.515  0.00  0.00     0.381 N 
ATOM     19  H   LIG d   1       4.291  93.080 118.150  0.00  0.00    -0.090 HD
ATOM     20  H   LIG d   1       5.184  92.815 116.818  0.00  0.00    -0.090 HD
ATOM     21  H   LIG d   1       5.135  91.687 118.006  0.00  0.00    -0.090 HD
ENDBRANCH   5  18
BRANCH   3  22
ATOM     22  C   LIG d   1       3.179  88.798 114.668  0.00  0.00     0.382 C 
ATOM     23  O   LIG d   1       3.126  89.221 113.488  0.00  0.00    -0.241 OA
ATOM     24  O   LIG d   1       3.457  87.603 114.880  0.00  0.00    -0.241 OA
ENDBRANCH   3  22
TORSDOF 7
ENDMDL
MODEL 7
REMARK VINA RESULT:      -4.4      3.590      6.764
REMARK  7 active torsions:
REMARK  status: ('A' for Active; 'I' for Inactive)
REMARK    1  A    between atoms: C_2  and  C_3 
REMARK    2  A    between atoms: C_3  and  O_6 
REMARK    3  A    between atoms: C_3  and  C_4 
REMARK    4  A    between atoms: C_7  and  O_6 
REMARK    5  A    between atoms: C_9  and  C_10 
REMARK    6  A    between atoms: N_15  and  C_14 
REMARK    7  A    between atoms: N_20  and  C_19 
REMARK       I    between atoms: C_22  and  N_20 
ROOT
ATOM      1  C   LIG d   1       1.337  89.319 116.323  0.00  0.00     0.161 C 
ATOM      2  C   LIG d   1       2.610  89.904 116.419  0.00  0.00     0.016 C 
ATOM      3  C   LIG d   1       2.881  91.055 117.194  0.00  0.00     0.038 C 
ATOM      4  C   LIG d   1       1.922  91.614 118.052  0.00  0.00     0.028 C 
ATOM      5  C   LIG d   1       0.486  91.360 117.604  0.00  0.00    -0.047 C 
ATOM      6  C   LIG d   1       0.303  89.848 117.340  0.00  0.00     0.091 C 
ENDROOT
BRANCH   1   7
ATOM      7  O   LIG d   1       1.450  87.885 116.424  0.00  0.00    -0.368 OA
BRANCH   7   8
ATOM      8  C   LIG d   1       1.589  87.167 115.173  0.00  0.00     0.119 C 
BRANCH   8   9
ATOM      9  C   LIG d   1       0.833  85.832 115.319  0.00  0.00     0.028 C 
ATOM     10  C   LIG d   1      -0.330  85.704 114.321  0.00  0.00     0.006 C 
ENDBRANCH   8   9
BRANCH   8  11
ATOM     11  C   LIG d   1       3.048  86.782 114.911  0.00  0.00     0.028 C 
ATOM     12  C   LIG d   1       3.444  86.919 113.433  0.00  0.00     0.006 C 
ENDBRANCH   8  11
ENDBRANCH   7   8
ENDBRANCH   1   7
BRANCH   6  13
ATOM     13  N   LIG d   1      -1.049  89.524 116.816  0.00  0.00    -0.311 N 
ATOM     14  C   LIG d   1      -2.060  89.130 117.589  0.00  0.00     0.210 C 
ATOM     15  C   LIG d   1      -3.364  88.827 116.844  0.00  0.00     0.109 C 
ATOM     16  O   LIG d   1      -2.009  89.034 118.824  0.00  0.00    -0.276 OA
ATOM     17  H   LIG d   1      -1.187  89.605 115.827  0.00  0.00     0.149 HD
ENDBRANCH   6  13
BRANCH   5  18
ATOM     18  N   LIG d   1      -0.408  91.875 118.658  0.00  0.00     0.381 N 
ATOM     19  H   LIG d   1      -0.671  91.131 119.272  0.00  0.00    -0.090 HD
ATOM     20  H   LIG d   1      -1.240  92.239 118.228  0.00  0.00    -0.090 HD
ATOM     21  H   LIG d   1       0.051  92.594 119.173  0.00  0.00    -0.090 HD
ENDBRANCH   5  18
BRANCH   3  22
ATOM     22  C   LIG d   1       4.112  91.684 117.085  0.00  0.00     0.382 C 
ATOM     23  O   LIG d   1       4.175  92.936 117.033  0.00  0.00    -0.241 OA
ATOM     24  O   LIG d   1       5.157  91.013 116.992  0.00  0.00    -0.241 OA
ENDBRANCH   3  22
TORSDOF 7
ENDMDL
MODEL 8
REMARK VINA RESULT:      -4.3      3.424      5.697
REMARK  7 active torsions:
REMARK  status: ('A' for Active; 'I' for Inactive)
REMARK    1  A    between atoms: C_2  and  C_3 
REMARK    2  A    between atoms: C_3  and  O_6 
REMARK    3  A    between atoms: C_3  and  C_4 
REMARK    4  A    between atoms: C_7  and  O_6 
REMARK    5  A    between atoms: C_9  and  C_10 
REMARK    6  A    between atoms: N_15  and  C_14 
REMARK    7  A    between atoms: N_20  and  C_19 
REMARK       I    between atoms: C_22  and  N_20 
ROOT
ATOM      1  C   LIG d   1       1.031  89.122 117.243  0.00  0.00     0.161 C 
ATOM      2  C   LIG d   1      -0.349  88.899 117.380  0.00  0.00     0.016 C 
ATOM      3  C   LIG d   1      -1.230  89.822 117.989  0.00  0.00     0.038 C 
ATOM      4  C   LIG d   1      -0.812  91.105 118.370  0.00  0.00     0.028 C 
ATOM      5  C   LIG d   1       0.673  91.182 118.711  0.00  0.00    -0.047 C 
ATOM      6  C   LIG d   1       1.487  90.564 117.552  0.00  0.00     0.091 C 
ENDROOT
BRANCH   1   7
ATOM      7  O   LIG d   1       1.460  88.734 115.923  0.00  0.00    -0.368 OA
BRANCH   7   8
ATOM      8  C   LIG d   1       2.275  87.538 115.843  0.00  0.00     0.119 C 
BRANCH   8   9
ATOM      9  C   LIG d   1       3.682  87.967 115.383  0.00  0.00     0.028 C 
ATOM     10  C   LIG d   1       3.653  89.231 114.507  0.00  0.00     0.006 C 
ENDBRANCH   8   9
BRANCH   8  11
ATOM     11  C   LIG d   1       1.765  86.587 114.757  0.00  0.00     0.028 C 
ATOM     12  C   LIG d   1       0.368  86.025 115.064  0.00  0.00     0.006 C 
ENDBRANCH   8  11
ENDBRANCH   7   8
ENDBRANCH   1   7
BRANCH   6  13
ATOM     13  N   LIG d   1       2.944  90.522 117.841  0.00  0.00    -0.311 N 
ATOM     14  C   LIG d   1       3.788  91.492 117.493  0.00  0.00     0.210 C 
ATOM     15  C   LIG d   1       5.252  91.241 117.869  0.00  0.00     0.109 C 
ATOM     16  O   LIG d   1       3.459  92.551 116.937  0.00  0.00    -0.276 OA
ATOM     17  H   LIG d   1       3.292  89.713 118.317  0.00  0.00     0.149 HD
ENDBRANCH   6  13
BRANCH   5  18
ATOM     18  N   LIG d   1       1.001  92.599 118.956  0.00  0.00     0.381 N 
ATOM     19  H   LIG d   1       0.173  93.156 118.885  0.00  0.00    -0.090 HD
ATOM     20  H   LIG d   1       1.650  92.909 118.255  0.00  0.00    -0.090 HD
ATOM     21  H   LIG d   1       1.404  92.705 119.862  0.00  0.00    -0.090 HD
ENDBRANCH   5  18
BRANCH   3  22
ATOM     22  C   LIG d   1      -2.537  89.448 118.260  0.00  0.00     0.382 C 
ATOM     23  O   LIG d   1      -3.019  88.420 117.726  0.00  0.00    -0.241 OA
ATOM     24  O   LIG d   1      -3.256  90.150 118.997  0.00  0.00    -0.241 OA
ENDBRANCH   3  22
TORSDOF 7
ENDMDL
MODEL 9
REMARK VINA RESULT:      -4.3      4.330      8.207
REMARK  7 active torsions:
REMARK  status: ('A' for Active; 'I' for Inactive)
REMARK    1  A    between atoms: C_2  and  C_3 
REMARK    2  A    between atoms: C_3  and  O_6 
REMARK    3  A    between atoms: C_3  and  C_4 
REMARK    4  A    between atoms: C_7  and  O_6 
REMARK    5  A    between atoms: C_9  and  C_10 
REMARK    6  A    between atoms: N_15  and  C_14 
REMARK    7  A    between atoms: N_20  and  C_19 
REMARK       I    between atoms: C_22  and  N_20 
ROOT
ATOM      1  C   LIG d   1       1.910  90.754 117.976  0.00  0.00     0.161 C 
ATOM      2  C   LIG d   1       2.375  91.862 118.703  0.00  0.00     0.016 C 
ATOM      3  C   LIG d   1       3.661  92.423 118.529  0.00  0.00     0.038 C 
ATOM      4  C   LIG d   1       4.519  92.005 117.501  0.00  0.00     0.028 C 
ATOM      5  C   LIG d   1       4.293  90.559 117.073  0.00  0.00    -0.047 C 
ATOM      6  C   LIG d   1       2.790  90.354 116.773  0.00  0.00     0.091 C 
ENDROOT
BRANCH   1   7
ATOM      7  O   LIG d   1       0.553  90.984 117.549  0.00  0.00    -0.368 OA
BRANCH   7   8
ATOM      8  C   LIG d   1      -0.482  90.382 118.364  0.00  0.00     0.119 C 
BRANCH   8   9
ATOM      9  C   LIG d   1      -0.968  89.115 117.634  0.00  0.00     0.028 C 
ATOM     10  C   LIG d   1      -2.494  88.941 117.713  0.00  0.00     0.006 C 
ENDBRANCH   8   9
BRANCH   8  11
ATOM     11  C   LIG d   1      -1.712  91.289 118.463  0.00  0.00     0.028 C 
ATOM     12  C   LIG d   1      -1.355  92.784 118.420  0.00  0.00     0.006 C 
ENDBRANCH   8  11
ENDBRANCH   7   8
ENDBRANCH   1   7
BRANCH   6  13
ATOM     13  N   LIG d   1       2.468  88.945 116.429  0.00  0.00    -0.311 N 
ATOM     14  C   LIG d   1       2.409  88.491 115.178  0.00  0.00     0.210 C 
ATOM     15  C   LIG d   1       2.041  87.010 115.044  0.00  0.00     0.109 C 
ATOM     16  O   LIG d   1       2.658  89.166 114.168  0.00  0.00    -0.276 OA
ATOM     17  H   LIG d   1       2.283  88.320 117.189  0.00  0.00     0.149 HD
ENDBRANCH   6  13
BRANCH   5  18
ATOM     18  N   LIG d   1       5.156  90.299 115.906  0.00  0.00     0.381 N 
ATOM     19  H   LIG d   1       4.866  90.869 115.136  0.00  0.00    -0.090 HD
ATOM     20  H   LIG d   1       5.060  89.335 115.638  0.00  0.00    -0.090 HD
ATOM     21  H   LIG d   1       6.106  90.495 116.134  0.00  0.00    -0.090 HD
ENDBRANCH   5  18
BRANCH   3  22
ATOM     22  C   LIG d   1       4.116  93.388 119.415  0.00  0.00     0.382 C 
ATOM     23  O   LIG d   1       5.341  93.650 119.482  0.00  0.00    -0.241 OA
ATOM     24  O   LIG d   1       3.321  93.969 120.178  0.00  0.00    -0.241 OA
ENDBRANCH   3  22
TORSDOF 7
ENDMDL
