MODEL 1
REMARK VINA RESULT:      -5.3      0.000      0.000
REMARK  7 active torsions:
REMARK  status: ('A' for Active; 'I' for Inactive)
REMARK    1  A    between atoms: C_2  and  C_3 
REMARK    2  A    between atoms: C_3  and  O_6 
REMARK    3  A    between atoms: C_3  and  C_4 
REMARK    4  A    between atoms: C_7  and  O_6 
REMARK    5  A    between atoms: C_9  and  C_10 
REMARK    6  A    between atoms: N_15  and  C_14 
REMARK    7  A    between atoms: N_20  and  C_19 
REMARK       I    between atoms: C_22  and  N_20 
ROOT
ATOM      1  C   LIG d   1      -5.679  91.780 118.840  0.00  0.00     0.161 C 
ATOM      2  C   LIG d   1      -6.585  91.148 117.972  0.00  0.00     0.016 C 
ATOM      3  C   LIG d   1      -6.185  90.350 116.875  0.00  0.00     0.038 C 
ATOM      4  C   LIG d   1      -4.843  90.004 116.661  0.00  0.00     0.028 C 
ATOM      5  C   LIG d   1      -3.857  91.030 117.212  0.00  0.00    -0.047 C 
ATOM      6  C   LIG d   1      -4.213  91.324 118.688  0.00  0.00     0.091 C 
ENDROOT
BRANCH   1   7
ATOM      7  O   LIG d   1      -6.115  91.619 120.204  0.00  0.00    -0.368 OA
BRANCH   7   8
ATOM      8  C   LIG d   1      -6.655  92.800 120.845  0.00  0.00     0.119 C 
BRANCH   8   9
ATOM      9  C   LIG d   1      -8.183  92.624 120.930  0.00  0.00     0.028 C 
ATOM     10  C   LIG d   1      -8.935  93.521 119.932  0.00  0.00     0.006 C 
ENDBRANCH   8   9
BRANCH   8  11
ATOM     11  C   LIG d   1      -6.439  94.049 119.984  0.00  0.00     0.028 C 
ATOM     12  C   LIG d   1      -5.467  95.053 120.625  0.00  0.00     0.006 C 
ENDBRANCH   8  11
ENDBRANCH   7   8
ENDBRANCH   1   7
BRANCH   6  13
ATOM     13  N   LIG d   1      -3.350  92.380 119.279  0.00  0.00    -0.311 N 
ATOM     14  C   LIG d   1      -2.240  92.119 119.968  0.00  0.00     0.210 C 
ATOM     15  C   LIG d   1      -1.509  93.352 120.508  0.00  0.00     0.109 C 
ATOM     16  O   LIG d   1      -1.775  90.985 120.157  0.00  0.00    -0.276 OA
ATOM     17  H   LIG d   1      -3.636  93.330 119.147  0.00  0.00     0.149 HD
ENDBRANCH   6  13
BRANCH   5  18
ATOM     18  N   LIG d   1      -2.500  90.478 117.043  0.00  0.00     0.381 N 
ATOM     19  H   LIG d   1      -2.363  90.199 116.093  0.00  0.00    -0.090 HD
ATOM     20  H   LIG d   1      -2.403  89.667 117.628  0.00  0.00    -0.090 HD
ATOM     21  H   LIG d   1      -1.820  91.162 117.297  0.00  0.00    -0.090 HD
ENDBRANCH   5  18
BRANCH   3  22
ATOM     22  C   LIG d   1      -7.131  89.922 115.956  0.00  0.00     0.382 C 
ATOM     23  O   LIG d   1      -8.112  89.241 116.338  0.00  0.00    -0.241 OA
ATOM     24  O   LIG d   1      -6.991  90.171 114.744  0.00  0.00    -0.241 OA
ENDBRANCH   3  22
TORSDOF 7
ENDMDL
MODEL 2
REMARK VINA RESULT:      -5.2      2.224      4.367
REMARK  7 active torsions:
REMARK  status: ('A' for Active; 'I' for Inactive)
REMARK    1  A    between atoms: C_2  and  C_3 
REMARK    2  A    between atoms: C_3  and  O_6 
REMARK    3  A    between atoms: C_3  and  C_4 
REMARK    4  A    between atoms: C_7  and  O_6 
REMARK    5  A    between atoms: C_9  and  C_10 
REMARK    6  A    between atoms: N_15  and  C_14 
REMARK    7  A    between atoms: N_20  and  C_19 
REMARK       I    between atoms: C_22  and  N_20 
ROOT
ATOM      1  C   LIG d   1      -5.381  91.846 120.180  0.00  0.00     0.161 C 
ATOM      2  C   LIG d   1      -6.779  91.910 120.064  0.00  0.00     0.016 C 
ATOM      3  C   LIG d   1      -7.493  93.122 119.918  0.00  0.00     0.038 C 
ATOM      4  C   LIG d   1      -6.840  94.349 119.726  0.00  0.00     0.028 C 
ATOM      5  C   LIG d   1      -5.446  94.395 120.341  0.00  0.00    -0.047 C 
ATOM      6  C   LIG d   1      -4.644  93.164 119.861  0.00  0.00     0.091 C 
ENDROOT
BRANCH   1   7
ATOM      7  O   LIG d   1      -4.871  90.776 119.360  0.00  0.00    -0.368 OA
BRANCH   7   8
ATOM      8  C   LIG d   1      -4.557  91.118 117.988  0.00  0.00     0.119 C 
BRANCH   8   9
ATOM      9  C   LIG d   1      -5.598  90.425 117.088  0.00  0.00     0.028 C 
ATOM     10  C   LIG d   1      -6.395  91.426 116.235  0.00  0.00     0.006 C 
ENDBRANCH   8   9
BRANCH   8  11
ATOM     11  C   LIG d   1      -3.204  90.539 117.565  0.00  0.00     0.028 C 
ATOM     12  C   LIG d   1      -2.383  90.013 118.753  0.00  0.00     0.006 C 
ENDBRANCH   8  11
ENDBRANCH   7   8
ENDBRANCH   1   7
BRANCH   6  13
ATOM     13  N   LIG d   1      -3.296  93.087 120.483  0.00  0.00    -0.311 N 
ATOM     14  C   LIG d   1      -2.193  93.557 119.902  0.00  0.00     0.210 C 
ATOM     15  C   LIG d   1      -0.905  93.358 120.706  0.00  0.00     0.109 C 
ATOM     16  O   LIG d   1      -2.165  94.148 118.812  0.00  0.00    -0.276 OA
ATOM     17  H   LIG d   1      -3.233  92.651 121.382  0.00  0.00     0.149 HD
ENDBRANCH   6  13
BRANCH   5  18
ATOM     18  N   LIG d   1      -4.828  95.676 119.948  0.00  0.00     0.381 N 
ATOM     19  H   LIG d   1      -5.228  96.423 120.481  0.00  0.00    -0.090 HD
ATOM     20  H   LIG d   1      -5.019  95.845 118.976  0.00  0.00    -0.090 HD
ATOM     21  H   LIG d   1      -3.844  95.641 120.099  0.00  0.00    -0.090 HD
ENDBRANCH   5  18
BRANCH   3  22
ATOM     22  C   LIG d   1      -8.877  93.119 120.004  0.00  0.00     0.382 C 
ATOM     23  O   LIG d   1      -9.446  92.492 120.930  0.00  0.00    -0.241 OA
ATOM     24  O   LIG d   1      -9.565  93.698 119.142  0.00  0.00    -0.241 OA
ENDBRANCH   3  22
TORSDOF 7
ENDMDL
MODEL 3
REMARK VINA RESULT:      -4.8      4.507      7.185
REMARK  7 active torsions:
REMARK  status: ('A' for Active; 'I' for Inactive)
REMARK    1  A    between atoms: C_2  and  C_3 
REMARK    2  A    between atoms: C_3  and  O_6 
REMARK    3  A    between atoms: C_3  and  C_4 
REMARK    4  A    between atoms: C_7  and  O_6 
REMARK    5  A    between atoms: C_9  and  C_10 
REMARK    6  A    between atoms: N_15  and  C_14 
REMARK    7  A    between atoms: N_20  and  C_19 
REMARK       I    between atoms: C_22  and  N_20 
ROOT
ATOM      1  C   LIG d   1      -0.185  90.677 117.399  0.00  0.00     0.161 C 
ATOM      2  C   LIG d   1      -1.536  90.298 117.334  0.00  0.00     0.016 C 
ATOM      3  C   LIG d   1      -2.558  90.928 118.081  0.00  0.00     0.038 C 
ATOM      4  C   LIG d   1      -2.318  92.087 118.834  0.00  0.00     0.028 C 
ATOM      5  C   LIG d   1      -0.880  92.203 119.327  0.00  0.00    -0.047 C 
ATOM      6  C   LIG d   1       0.078  92.011 118.129  0.00  0.00     0.091 C 
ENDROOT
BRANCH   1   7
ATOM      7  O   LIG d   1       0.376  90.714 116.071  0.00  0.00    -0.368 OA
BRANCH   7   8
ATOM      8  C   LIG d   1       1.254  89.616 115.720  0.00  0.00     0.119 C 
BRANCH   8   9
ATOM      9  C   LIG d   1       1.647  88.901 117.027  0.00  0.00     0.028 C 
ATOM     10  C   LIG d   1       3.164  88.927 117.278  0.00  0.00     0.006 C 
ENDBRANCH   8   9
BRANCH   8  11
ATOM     11  C   LIG d   1       2.571  90.124 115.125  0.00  0.00     0.028 C 
ATOM     12  C   LIG d   1       2.456  90.468 113.631  0.00  0.00     0.006 C 
ENDBRANCH   8  11
ENDBRANCH   7   8
ENDBRANCH   1   7
BRANCH   6  13
ATOM     13  N   LIG d   1       1.507  92.025 118.538  0.00  0.00    -0.311 N 
ATOM     14  C   LIG d   1       2.461  92.644 117.845  0.00  0.00     0.210 C 
ATOM     15  C   LIG d   1       3.871  92.518 118.431  0.00  0.00     0.109 C 
ATOM     16  O   LIG d   1       2.270  93.312 116.817  0.00  0.00    -0.276 OA
ATOM     17  H   LIG d   1       1.746  91.534 119.377  0.00  0.00     0.149 HD
ENDBRANCH   6  13
BRANCH   5  18
ATOM     18  N   LIG d   1      -0.736  93.520 119.976  0.00  0.00     0.381 N 
ATOM     19  H   LIG d   1      -1.632  93.958 120.055  0.00  0.00    -0.090 HD
ATOM     20  H   LIG d   1      -0.149  94.102 119.405  0.00  0.00    -0.090 HD
ATOM     21  H   LIG d   1      -0.330  93.412 120.880  0.00  0.00    -0.090 HD
ENDBRANCH   5  18
BRANCH   3  22
ATOM     22  C   LIG d   1      -3.829  90.374 118.111  0.00  0.00     0.382 C 
ATOM     23  O   LIG d   1      -4.730  90.833 117.368  0.00  0.00    -0.241 OA
ATOM     24  O   LIG d   1      -4.097  89.451 118.903  0.00  0.00    -0.241 OA
ENDBRANCH   3  22
TORSDOF 7
ENDMDL
MODEL 4
REMARK VINA RESULT:      -4.7      2.084      4.800
REMARK  7 active torsions:
REMARK  status: ('A' for Active; 'I' for Inactive)
REMARK    1  A    between atoms: C_2  and  C_3 
REMARK    2  A    between atoms: C_3  and  O_6 
REMARK    3  A    between atoms: C_3  and  C_4 
REMARK    4  A    between atoms: C_7  and  O_6 
REMARK    5  A    between atoms: C_9  and  C_10 
REMARK    6  A    between atoms: N_15  and  C_14 
REMARK    7  A    between atoms: N_20  and  C_19 
REMARK       I    between atoms: C_22  and  N_20 
ROOT
ATOM      1  C   LIG d   1      -5.690  91.954 118.550  0.00  0.00     0.161 C 
ATOM      2  C   LIG d   1      -6.963  92.535 118.677  0.00  0.00     0.016 C 
ATOM      3  C   LIG d   1      -7.224  93.669 119.480  0.00  0.00     0.038 C 
ATOM      4  C   LIG d   1      -6.194  94.395 120.096  0.00  0.00     0.028 C 
ATOM      5  C   LIG d   1      -4.962  93.552 120.407  0.00  0.00    -0.047 C 
ATOM      6  C   LIG d   1      -4.534  92.798 119.127  0.00  0.00     0.091 C 
ENDROOT
BRANCH   1   7
ATOM      7  O   LIG d   1      -5.435  91.632 117.169  0.00  0.00    -0.368 OA
BRANCH   7   8
ATOM      8  C   LIG d   1      -6.554  91.093 116.423  0.00  0.00     0.119 C 
BRANCH   8   9
ATOM      9  C   LIG d   1      -6.243  89.613 116.126  0.00  0.00     0.028 C 
ATOM     10  C   LIG d   1      -4.768  89.388 115.751  0.00  0.00     0.006 C 
ENDBRANCH   8   9
BRANCH   8  11
ATOM     11  C   LIG d   1      -6.684  91.763 115.052  0.00  0.00     0.028 C 
ATOM     12  C   LIG d   1      -7.683  91.045 114.130  0.00  0.00     0.006 C 
ENDBRANCH   8  11
ENDBRANCH   7   8
ENDBRANCH   1   7
BRANCH   6  13
ATOM     13  N   LIG d   1      -3.386  91.884 119.364  0.00  0.00    -0.311 N 
ATOM     14  C   LIG d   1      -2.236  91.963 118.696  0.00  0.00     0.210 C 
ATOM     15  C   LIG d   1      -1.191  90.912 119.082  0.00  0.00     0.109 C 
ATOM     16  O   LIG d   1      -1.971  92.824 117.843  0.00  0.00    -0.276 OA
ATOM     17  H   LIG d   1      -3.503  91.176 120.061  0.00  0.00     0.149 HD
ENDBRANCH   6  13
BRANCH   5  18
ATOM     18  N   LIG d   1      -3.918  94.460 120.919  0.00  0.00     0.381 N 
ATOM     19  H   LIG d   1      -4.277  95.392 120.973  0.00  0.00    -0.090 HD
ATOM     20  H   LIG d   1      -3.143  94.457 120.280  0.00  0.00    -0.090 HD
ATOM     21  H   LIG d   1      -3.617  94.159 121.820  0.00  0.00    -0.090 HD
ENDBRANCH   5  18
BRANCH   3  22
ATOM     22  C   LIG d   1      -8.534  94.065 119.705  0.00  0.00     0.382 C 
ATOM     23  O   LIG d   1      -8.770  95.136 120.314  0.00  0.00    -0.241 OA
ATOM     24  O   LIG d   1      -9.483  93.342 119.346  0.00  0.00    -0.241 OA
ENDBRANCH   3  22
TORSDOF 7
ENDMDL
MODEL 5
REMARK VINA RESULT:      -4.6      3.349      5.854
REMARK  7 active torsions:
REMARK  status: ('A' for Active; 'I' for Inactive)
REMARK    1  A    between atoms: C_2  and  C_3 
REMARK    2  A    between atoms: C_3  and  O_6 
REMARK    3  A    between atoms: C_3  and  C_4 
REMARK    4  A    between atoms: C_7  and  O_6 
REMARK    5  A    between atoms: C_9  and  C_10 
REMARK    6  A    between atoms: N_15  and  C_14 
REMARK    7  A    between atoms: N_20  and  C_19 
REMARK       I    between atoms: C_22  and  N_20 
ROOT
ATOM      1  C   LIG d   1      -1.620  91.347 118.264  0.00  0.00     0.161 C 
ATOM      2  C   LIG d   1      -2.260  92.500 118.748  0.00  0.00     0.016 C 
ATOM      3  C   LIG d   1      -1.631  93.763 118.830  0.00  0.00     0.038 C 
ATOM      4  C   LIG d   1      -0.358  93.994 118.288  0.00  0.00     0.028 C 
ATOM      5  C   LIG d   1       0.518  92.746 118.248  0.00  0.00    -0.047 C 
ATOM      6  C   LIG d   1      -0.268  91.603 117.566  0.00  0.00     0.091 C 
ENDROOT
BRANCH   1   7
ATOM      7  O   LIG d   1      -2.508  90.626 117.386  0.00  0.00    -0.368 OA
BRANCH   7   8
ATOM      8  C   LIG d   1      -3.922  90.737 117.680  0.00  0.00     0.119 C 
BRANCH   8   9
ATOM      9  C   LIG d   1      -4.240  89.742 118.813  0.00  0.00     0.028 C 
ATOM     10  C   LIG d   1      -5.279  90.293 119.804  0.00  0.00     0.006 C 
ENDBRANCH   8   9
BRANCH   8  11
ATOM     11  C   LIG d   1      -4.775  90.284 116.491  0.00  0.00     0.028 C 
ATOM     12  C   LIG d   1      -5.857  91.307 116.109  0.00  0.00     0.006 C 
ENDBRANCH   8  11
ENDBRANCH   7   8
ENDBRANCH   1   7
BRANCH   6  13
ATOM     13  N   LIG d   1       0.486  90.322 117.560  0.00  0.00    -0.311 N 
ATOM     14  C   LIG d   1       0.985  89.770 116.455  0.00  0.00     0.210 C 
ATOM     15  C   LIG d   1       1.710  88.438 116.669  0.00  0.00     0.109 C 
ATOM     16  O   LIG d   1       0.925  90.274 115.324  0.00  0.00    -0.276 OA
ATOM     17  H   LIG d   1       0.608  89.861 118.440  0.00  0.00     0.149 HD
ENDBRANCH   6  13
BRANCH   5  18
ATOM     18  N   LIG d   1       1.762  93.098 117.536  0.00  0.00     0.381 N 
ATOM     19  H   LIG d   1       1.766  92.671 116.631  0.00  0.00    -0.090 HD
ATOM     20  H   LIG d   1       2.545  92.743 118.056  0.00  0.00    -0.090 HD
ATOM     21  H   LIG d   1       1.835  94.087 117.445  0.00  0.00    -0.090 HD
ENDBRANCH   5  18
BRANCH   3  22
ATOM     22  C   LIG d   1      -2.262  94.803 119.495  0.00  0.00     0.382 C 
ATOM     23  O   LIG d   1      -1.652  95.881 119.695  0.00  0.00    -0.241 OA
ATOM     24  O   LIG d   1      -3.418  94.662 119.936  0.00  0.00    -0.241 OA
ENDBRANCH   3  22
TORSDOF 7
ENDMDL
MODEL 6
REMARK VINA RESULT:      -4.5      4.425      7.105
REMARK  7 active torsions:
REMARK  status: ('A' for Active; 'I' for Inactive)
REMARK    1  A    between atoms: C_2  and  C_3 
REMARK    2  A    between atoms: C_3  and  O_6 
REMARK    3  A    between atoms: C_3  and  C_4 
REMARK    4  A    between atoms: C_7  and  O_6 
REMARK    5  A    between atoms: C_9  and  C_10 
REMARK    6  A    between atoms: N_15  and  C_14 
REMARK    7  A    between atoms: N_20  and  C_19 
REMARK       I    between atoms: C_22  and  N_20 
ROOT
ATOM      1  C   LIG d   1      -0.284  90.788 117.644  0.00  0.00     0.161 C 
ATOM      2  C   LIG d   1      -1.624  90.385 117.512  0.00  0.00     0.016 C 
ATOM      3  C   LIG d   1      -2.717  91.159 117.963  0.00  0.00     0.038 C 
ATOM      4  C   LIG d   1      -2.552  92.467 118.444  0.00  0.00     0.028 C 
ATOM      5  C   LIG d   1      -1.180  92.715 119.062  0.00  0.00    -0.047 C 
ATOM      6  C   LIG d   1      -0.090  92.259 118.066  0.00  0.00     0.091 C 
ENDROOT
BRANCH   1   7
ATOM      7  O   LIG d   1       0.430  90.518 116.422  0.00  0.00    -0.368 OA
BRANCH   7   8
ATOM      8  C   LIG d   1       1.654  89.754 116.553  0.00  0.00     0.119 C 
BRANCH   8   9
ATOM      9  C   LIG d   1       2.022  89.224 115.154  0.00  0.00     0.028 C 
ATOM     10  C   LIG d   1       2.446  90.347 114.194  0.00  0.00     0.006 C 
ENDBRANCH   8   9
BRANCH   8  11
ATOM     11  C   LIG d   1       1.441  88.507 117.417  0.00  0.00     0.028 C 
ATOM     12  C   LIG d   1       2.154  87.266 116.856  0.00  0.00     0.006 C 
ENDBRANCH   8  11
ENDBRANCH   7   8
ENDBRANCH   1   7
BRANCH   6  13
ATOM     13  N   LIG d   1       1.280  92.390 118.625  0.00  0.00    -0.311 N 
ATOM     14  C   LIG d   1       2.310  92.881 117.938  0.00  0.00     0.210 C 
ATOM     15  C   LIG d   1       3.640  92.909 118.696  0.00  0.00     0.109 C 
ATOM     16  O   LIG d   1       2.240  93.327 116.782  0.00  0.00    -0.276 OA
ATOM     17  H   LIG d   1       1.420  92.081 119.568  0.00  0.00     0.149 HD
ENDBRANCH   6  13
BRANCH   5  18
ATOM     18  N   LIG d   1      -1.095  94.150 119.396  0.00  0.00     0.381 N 
ATOM     19  H   LIG d   1      -0.160  94.379 119.670  0.00  0.00    -0.090 HD
ATOM     20  H   LIG d   1      -1.706  94.340 120.170  0.00  0.00    -0.090 HD
ATOM     21  H   LIG d   1      -1.362  94.699 118.609  0.00  0.00    -0.090 HD
ENDBRANCH   5  18
BRANCH   3  22
ATOM     22  C   LIG d   1      -3.991  90.611 117.972  0.00  0.00     0.382 C 
ATOM     23  O   LIG d   1      -4.930  91.197 117.382  0.00  0.00    -0.241 OA
ATOM     24  O   LIG d   1      -4.221  89.560 118.599  0.00  0.00    -0.241 OA
ENDBRANCH   3  22
TORSDOF 7
ENDMDL
MODEL 7
REMARK VINA RESULT:      -4.4      4.133      6.187
REMARK  7 active torsions:
REMARK  status: ('A' for Active; 'I' for Inactive)
REMARK    1  A    between atoms: C_2  and  C_3 
REMARK    2  A    between atoms: C_3  and  O_6 
REMARK    3  A    between atoms: C_3  and  C_4 
REMARK    4  A    between atoms: C_7  and  O_6 
REMARK    5  A    between atoms: C_9  and  C_10 
REMARK    6  A    between atoms: N_15  and  C_14 
REMARK    7  A    between atoms: N_20  and  C_19 
REMARK       I    between atoms: C_22  and  N_20 
ROOT
ATOM      1  C   LIG d   1      -0.516  91.092 117.779  0.00  0.00     0.161 C 
ATOM      2  C   LIG d   1      -0.080  90.294 116.708  0.00  0.00     0.016 C 
ATOM      3  C   LIG d   1       1.273  90.199 116.310  0.00  0.00     0.038 C 
ATOM      4  C   LIG d   1       2.308  90.782 117.056  0.00  0.00     0.028 C 
ATOM      5  C   LIG d   1       1.868  92.008 117.848  0.00  0.00    -0.047 C 
ATOM      6  C   LIG d   1       0.612  91.647 118.673  0.00  0.00     0.091 C 
ENDROOT
BRANCH   1   7
ATOM      7  O   LIG d   1      -1.473  90.363 118.574  0.00  0.00    -0.368 OA
BRANCH   7   8
ATOM      8  C   LIG d   1      -2.841  90.378 118.097  0.00  0.00     0.119 C 
BRANCH   8   9
ATOM      9  C   LIG d   1      -3.279  91.852 117.993  0.00  0.00     0.028 C 
ATOM     10  C   LIG d   1      -3.725  92.428 119.347  0.00  0.00     0.006 C 
ENDBRANCH   8   9
BRANCH   8  11
ATOM     11  C   LIG d   1      -3.792  89.743 119.115  0.00  0.00     0.028 C 
ATOM     12  C   LIG d   1      -3.084  88.762 120.062  0.00  0.00     0.006 C 
ENDBRANCH   8  11
ENDBRANCH   7   8
ENDBRANCH   1   7
BRANCH   6  13
ATOM     13  N   LIG d   1       0.066  92.815 119.413  0.00  0.00    -0.311 N 
ATOM     14  C   LIG d   1      -0.293  93.954 118.824  0.00  0.00     0.210 C 
ATOM     15  C   LIG d   1      -0.813  95.038 119.774  0.00  0.00     0.109 C 
ATOM     16  O   LIG d   1      -0.261  94.158 117.601  0.00  0.00    -0.276 OA
ATOM     17  H   LIG d   1      -0.024  92.724 120.407  0.00  0.00     0.149 HD
ENDBRANCH   6  13
BRANCH   5  18
ATOM     18  N   LIG d   1       3.007  92.431 118.684  0.00  0.00     0.381 N 
ATOM     19  H   LIG d   1       2.842  92.174 119.637  0.00  0.00    -0.090 HD
ATOM     20  H   LIG d   1       3.091  93.431 118.637  0.00  0.00    -0.090 HD
ATOM     21  H   LIG d   1       3.847  92.004 118.358  0.00  0.00    -0.090 HD
ENDBRANCH   5  18
BRANCH   3  22
ATOM     22  C   LIG d   1       1.598  89.547 115.130  0.00  0.00     0.382 C 
ATOM     23  O   LIG d   1       1.947  90.209 114.123  0.00  0.00    -0.241 OA
ATOM     24  O   LIG d   1       1.503  88.308 115.046  0.00  0.00    -0.241 OA
ENDBRANCH   3  22
TORSDOF 7
ENDMDL
MODEL 8
REMARK VINA RESULT:      -4.4      1.555      4.793
REMARK  7 active torsions:
REMARK  status: ('A' for Active; 'I' for Inactive)
REMARK    1  A    between atoms: C_2  and  C_3 
REMARK    2  A    between atoms: C_3  and  O_6 
REMARK    3  A    between atoms: C_3  and  C_4 
REMARK    4  A    between atoms: C_7  and  O_6 
REMARK    5  A    between atoms: C_9  and  C_10 
REMARK    6  A    between atoms: N_15  and  C_14 
REMARK    7  A    between atoms: N_20  and  C_19 
REMARK       I    between atoms: C_22  and  N_20 
ROOT
ATOM      1  C   LIG d   1      -5.608  90.662 119.373  0.00  0.00     0.161 C 
ATOM      2  C   LIG d   1      -4.335  91.051 119.823  0.00  0.00     0.016 C 
ATOM      3  C   LIG d   1      -3.195  91.095 118.988  0.00  0.00     0.038 C 
ATOM      4  C   LIG d   1      -3.283  90.896 117.602  0.00  0.00     0.028 C 
ATOM      5  C   LIG d   1      -4.452  90.007 117.191  0.00  0.00    -0.047 C 
ATOM      6  C   LIG d   1      -5.746  90.548 117.841  0.00  0.00     0.091 C 
ENDROOT
BRANCH   1   7
ATOM      7  O   LIG d   1      -6.608  91.556 119.901  0.00  0.00    -0.368 OA
BRANCH   7   8
ATOM      8  C   LIG d   1      -6.441  92.959 119.581  0.00  0.00     0.119 C 
BRANCH   8   9
ATOM      9  C   LIG d   1      -6.104  93.696 120.892  0.00  0.00     0.028 C 
ATOM     10  C   LIG d   1      -5.268  94.964 120.654  0.00  0.00     0.006 C 
ENDBRANCH   8   9
BRANCH   8  11
ATOM     11  C   LIG d   1      -7.753  93.579 119.092  0.00  0.00     0.028 C 
ATOM     12  C   LIG d   1      -8.922  93.339 120.060  0.00  0.00     0.006 C 
ENDBRANCH   8  11
ENDBRANCH   7   8
ENDBRANCH   1   7
BRANCH   6  13
ATOM     13  N   LIG d   1      -6.925  89.687 117.558  0.00  0.00    -0.311 N 
ATOM     14  C   LIG d   1      -7.664  89.796 116.456  0.00  0.00     0.210 C 
ATOM     15  C   LIG d   1      -8.846  88.825 116.371  0.00  0.00     0.109 C 
ATOM     16  O   LIG d   1      -7.435  90.583 115.525  0.00  0.00    -0.276 OA
ATOM     17  H   LIG d   1      -7.164  89.001 118.246  0.00  0.00     0.149 HD
ENDBRANCH   6  13
BRANCH   5  18
ATOM     18  N   LIG d   1      -4.507  89.996 115.717  0.00  0.00     0.381 N 
ATOM     19  H   LIG d   1      -4.028  89.191 115.366  0.00  0.00    -0.090 HD
ATOM     20  H   LIG d   1      -4.042  90.816 115.368  0.00  0.00    -0.090 HD
ATOM     21  H   LIG d   1      -5.455  89.987 115.410  0.00  0.00    -0.090 HD
ENDBRANCH   5  18
BRANCH   3  22
ATOM     22  C   LIG d   1      -1.943  91.302 119.545  0.00  0.00     0.382 C 
ATOM     23  O   LIG d   1      -1.762  92.251 120.346  0.00  0.00    -0.241 OA
ATOM     24  O   LIG d   1      -0.981  90.579 119.224  0.00  0.00    -0.241 OA
ENDBRANCH   3  22
TORSDOF 7
ENDMDL
MODEL 9
REMARK VINA RESULT:      -4.3      6.919      9.687
REMARK  7 active torsions:
REMARK  status: ('A' for Active; 'I' for Inactive)
REMARK    1  A    between atoms: C_2  and  C_3 
REMARK    2  A    between atoms: C_3  and  O_6 
REMARK    3  A    between atoms: C_3  and  C_4 
REMARK    4  A    between atoms: C_7  and  O_6 
REMARK    5  A    between atoms: C_9  and  C_10 
REMARK    6  A    between atoms: N_15  and  C_14 
REMARK    7  A    between atoms: N_20  and  C_19 
REMARK       I    between atoms: C_22  and  N_20 
ROOT
ATOM      1  C   LIG d   1       3.430  90.235 117.486  0.00  0.00     0.161 C 
ATOM      2  C   LIG d   1       3.758  89.223 116.569  0.00  0.00     0.016 C 
ATOM      3  C   LIG d   1       2.855  88.729 115.600  0.00  0.00     0.038 C 
ATOM      4  C   LIG d   1       1.603  89.323 115.382  0.00  0.00     0.028 C 
ATOM      5  C   LIG d   1       1.037  90.015 116.618  0.00  0.00    -0.047 C 
ATOM      6  C   LIG d   1       2.107  90.972 117.191  0.00  0.00     0.091 C 
ENDROOT
BRANCH   1   7
ATOM      7  O   LIG d   1       4.517  91.176 117.584  0.00  0.00    -0.368 OA
BRANCH   7   8
ATOM      8  C   LIG d   1       5.425  90.989 118.697  0.00  0.00     0.119 C 
BRANCH   8   9
ATOM      9  C   LIG d   1       5.245  92.188 119.648  0.00  0.00     0.028 C 
ATOM     10  C   LIG d   1       4.801  93.461 118.909  0.00  0.00     0.006 C 
ENDBRANCH   8   9
BRANCH   8  11
ATOM     11  C   LIG d   1       6.886  91.048 118.241  0.00  0.00     0.028 C 
ATOM     12  C   LIG d   1       7.354  89.748 117.568  0.00  0.00     0.006 C 
ENDBRANCH   8  11
ENDBRANCH   7   8
ENDBRANCH   1   7
BRANCH   6  13
ATOM     13  N   LIG d   1       1.666  91.626 118.450  0.00  0.00    -0.311 N 
ATOM     14  C   LIG d   1       1.164  92.859 118.499  0.00  0.00     0.210 C 
ATOM     15  C   LIG d   1       0.791  93.350 119.901  0.00  0.00     0.109 C 
ATOM     16  O   LIG d   1       0.963  93.580 117.511  0.00  0.00    -0.276 OA
ATOM     17  H   LIG d   1       1.765  91.100 119.297  0.00  0.00     0.149 HD
ENDBRANCH   6  13
BRANCH   5  18
ATOM     18  N   LIG d   1      -0.201  90.707 116.214  0.00  0.00     0.381 N 
ATOM     19  H   LIG d   1      -0.929  90.509 116.871  0.00  0.00    -0.090 HD
ATOM     20  H   LIG d   1      -0.486  90.364 115.314  0.00  0.00    -0.090 HD
ATOM     21  H   LIG d   1      -0.043  91.690 116.168  0.00  0.00    -0.090 HD
ENDBRANCH   5  18
BRANCH   3  22
ATOM     22  C   LIG d   1       3.186  87.602 114.862  0.00  0.00     0.382 C 
ATOM     23  O   LIG d   1       2.303  87.004 114.201  0.00  0.00    -0.241 OA
ATOM     24  O   LIG d   1       4.346  87.150 114.886  0.00  0.00    -0.241 OA
ENDBRANCH   3  22
TORSDOF 7
ENDMDL
