MODEL 1
REMARK VINA RESULT:      -5.4      0.000      0.000
REMARK  7 active torsions:
REMARK  status: ('A' for Active; 'I' for Inactive)
REMARK    1  A    between atoms: C_2  and  C_3 
REMARK    2  A    between atoms: C_3  and  O_6 
REMARK    3  A    between atoms: C_3  and  C_4 
REMARK    4  A    between atoms: C_7  and  O_6 
REMARK    5  A    between atoms: C_9  and  C_10 
REMARK    6  A    between atoms: N_15  and  C_14 
REMARK    7  A    between atoms: N_20  and  C_19 
REMARK       I    between atoms: C_22  and  N_20 
ROOT
ATOM      1  C   LIG d   1      -5.407  92.405 117.434  0.00  0.00     0.161 C 
ATOM      2  C   LIG d   1      -6.466  91.548 117.088  0.00  0.00     0.016 C 
ATOM      3  C   LIG d   1      -6.276  90.224 116.630  0.00  0.00     0.038 C 
ATOM      4  C   LIG d   1      -5.014  89.612 116.630  0.00  0.00     0.028 C 
ATOM      5  C   LIG d   1      -3.862  90.601 116.492  0.00  0.00    -0.047 C 
ATOM      6  C   LIG d   1      -4.030  91.718 117.547  0.00  0.00     0.091 C 
ENDROOT
BRANCH   1   7
ATOM      7  O   LIG d   1      -5.722  93.100 118.657  0.00  0.00    -0.368 OA
BRANCH   7   8
ATOM      8  C   LIG d   1      -6.332  94.406 118.508  0.00  0.00     0.119 C 
BRANCH   8   9
ATOM      9  C   LIG d   1      -5.436  95.422 119.243  0.00  0.00     0.028 C 
ATOM     10  C   LIG d   1      -4.413  94.741 120.168  0.00  0.00     0.006 C 
ENDBRANCH   8   9
BRANCH   8  11
ATOM     11  C   LIG d   1      -7.687  94.472 119.219  0.00  0.00     0.028 C 
ATOM     12  C   LIG d   1      -8.649  95.482 118.575  0.00  0.00     0.006 C 
ENDBRANCH   8  11
ENDBRANCH   7   8
ENDBRANCH   1   7
BRANCH   6  13
ATOM     13  N   LIG d   1      -2.991  92.774 117.426  0.00  0.00    -0.311 N 
ATOM     14  C   LIG d   1      -1.852  92.763 118.116  0.00  0.00     0.210 C 
ATOM     15  C   LIG d   1      -0.927  93.957 117.856  0.00  0.00     0.109 C 
ATOM     16  O   LIG d   1      -1.505  91.863 118.895  0.00  0.00    -0.276 OA
ATOM     17  H   LIG d   1      -3.176  93.527 116.793  0.00  0.00     0.149 HD
ENDBRANCH   6  13
BRANCH   5  18
ATOM     18  N   LIG d   1      -2.604  89.845 116.645  0.00  0.00     0.381 N 
ATOM     19  H   LIG d   1      -1.856  90.473 116.860  0.00  0.00    -0.090 HD
ATOM     20  H   LIG d   1      -2.392  89.387 115.777  0.00  0.00    -0.090 HD
ATOM     21  H   LIG d   1      -2.699  89.170 117.371  0.00  0.00    -0.090 HD
ENDBRANCH   5  18
BRANCH   3  22
ATOM     22  C   LIG d   1      -7.354  89.510 116.126  0.00  0.00     0.382 C 
ATOM     23  O   LIG d   1      -8.080  88.842 116.901  0.00  0.00    -0.241 OA
ATOM     24  O   LIG d   1      -7.582  89.491 114.902  0.00  0.00    -0.241 OA
ENDBRANCH   3  22
TORSDOF 7
ENDMDL
MODEL 2
REMARK VINA RESULT:      -5.3      2.394      4.600
REMARK  7 active torsions:
REMARK  status: ('A' for Active; 'I' for Inactive)
REMARK    1  A    between atoms: C_2  and  C_3 
REMARK    2  A    between atoms: C_3  and  O_6 
REMARK    3  A    between atoms: C_3  and  C_4 
REMARK    4  A    between atoms: C_7  and  O_6 
REMARK    5  A    between atoms: C_9  and  C_10 
REMARK    6  A    between atoms: N_15  and  C_14 
REMARK    7  A    between atoms: N_20  and  C_19 
REMARK       I    between atoms: C_22  and  N_20 
ROOT
ATOM      1  C   LIG d   1      -4.142  90.842 117.436  0.00  0.00     0.161 C 
ATOM      2  C   LIG d   1      -4.604  90.139 116.310  0.00  0.00     0.016 C 
ATOM      3  C   LIG d   1      -5.696  90.567 115.521  0.00  0.00     0.038 C 
ATOM      4  C   LIG d   1      -6.308  91.815 115.715  0.00  0.00     0.028 C 
ATOM      5  C   LIG d   1      -6.203  92.324 117.149  0.00  0.00    -0.047 C 
ATOM      6  C   LIG d   1      -4.725  92.261 117.597  0.00  0.00     0.091 C 
ENDROOT
BRANCH   1   7
ATOM      7  O   LIG d   1      -2.701  90.891 117.423  0.00  0.00    -0.368 OA
BRANCH   7   8
ATOM      8  C   LIG d   1      -2.029  90.151 118.471  0.00  0.00     0.119 C 
BRANCH   8   9
ATOM      9  C   LIG d   1      -1.176  89.060 117.794  0.00  0.00     0.028 C 
ATOM     10  C   LIG d   1       0.111  89.625 117.169  0.00  0.00     0.006 C 
ENDBRANCH   8   9
BRANCH   8  11
ATOM     11  C   LIG d   1      -3.030  89.395 119.350  0.00  0.00     0.028 C 
ATOM     12  C   LIG d   1      -2.730  87.890 119.436  0.00  0.00     0.006 C 
ENDBRANCH   8  11
ENDBRANCH   7   8
ENDBRANCH   1   7
BRANCH   6  13
ATOM     13  N   LIG d   1      -4.546  92.662 119.017  0.00  0.00    -0.311 N 
ATOM     14  C   LIG d   1      -3.632  93.543 119.420  0.00  0.00     0.210 C 
ATOM     15  C   LIG d   1      -3.602  93.799 120.930  0.00  0.00     0.109 C 
ATOM     16  O   LIG d   1      -2.864  94.160 118.667  0.00  0.00    -0.276 OA
ATOM     17  H   LIG d   1      -5.149  92.233 119.692  0.00  0.00     0.149 HD
ENDBRANCH   6  13
BRANCH   5  18
ATOM     18  N   LIG d   1      -6.759  93.690 117.178  0.00  0.00     0.381 N 
ATOM     19  H   LIG d   1      -6.936  93.963 118.124  0.00  0.00    -0.090 HD
ATOM     20  H   LIG d   1      -7.631  93.697 116.679  0.00  0.00    -0.090 HD
ATOM     21  H   LIG d   1      -6.120  94.327 116.755  0.00  0.00    -0.090 HD
ENDBRANCH   5  18
BRANCH   3  22
ATOM     22  C   LIG d   1      -6.213  89.725 114.548  0.00  0.00     0.382 C 
ATOM     23  O   LIG d   1      -7.386  89.890 114.135  0.00  0.00    -0.241 OA
ATOM     24  O   LIG d   1      -5.536  88.776 114.110  0.00  0.00    -0.241 OA
ENDBRANCH   3  22
TORSDOF 7
ENDMDL
MODEL 3
REMARK VINA RESULT:      -5.3      2.479      4.816
REMARK  7 active torsions:
REMARK  status: ('A' for Active; 'I' for Inactive)
REMARK    1  A    between atoms: C_2  and  C_3 
REMARK    2  A    between atoms: C_3  and  O_6 
REMARK    3  A    between atoms: C_3  and  C_4 
REMARK    4  A    between atoms: C_7  and  O_6 
REMARK    5  A    between atoms: C_9  and  C_10 
REMARK    6  A    between atoms: N_15  and  C_14 
REMARK    7  A    between atoms: N_20  and  C_19 
REMARK       I    between atoms: C_22  and  N_20 
ROOT
ATOM      1  C   LIG d   1      -4.286  90.505 117.233  0.00  0.00     0.161 C 
ATOM      2  C   LIG d   1      -4.796  89.930 116.057  0.00  0.00     0.016 C 
ATOM      3  C   LIG d   1      -5.837  90.509 115.296  0.00  0.00     0.038 C 
ATOM      4  C   LIG d   1      -6.339  91.788 115.578  0.00  0.00     0.028 C 
ATOM      5  C   LIG d   1      -6.206  92.181 117.046  0.00  0.00    -0.047 C 
ATOM      6  C   LIG d   1      -4.744  91.955 117.495  0.00  0.00     0.091 C 
ENDROOT
BRANCH   1   7
ATOM      7  O   LIG d   1      -2.847  90.427 117.230  0.00  0.00    -0.368 OA
BRANCH   7   8
ATOM      8  C   LIG d   1      -2.277  89.144 117.590  0.00  0.00     0.119 C 
BRANCH   8   9
ATOM      9  C   LIG d   1      -2.292  89.046 119.128  0.00  0.00     0.028 C 
ATOM     10  C   LIG d   1      -2.355  87.591 119.622  0.00  0.00     0.006 C 
ENDBRANCH   8   9
BRANCH   8  11
ATOM     11  C   LIG d   1      -0.800  89.059 117.193  0.00  0.00     0.028 C 
ATOM     12  C   LIG d   1      -0.103  90.429 117.192  0.00  0.00     0.006 C 
ENDBRANCH   8  11
ENDBRANCH   7   8
ENDBRANCH   1   7
BRANCH   6  13
ATOM     13  N   LIG d   1      -4.546  92.235 118.941  0.00  0.00    -0.311 N 
ATOM     14  C   LIG d   1      -3.637  93.092 119.404  0.00  0.00     0.210 C 
ATOM     15  C   LIG d   1      -3.585  93.217 120.930  0.00  0.00     0.109 C 
ATOM     16  O   LIG d   1      -2.892  93.785 118.695  0.00  0.00    -0.276 OA
ATOM     17  H   LIG d   1      -5.130  91.740 119.586  0.00  0.00     0.149 HD
ENDBRANCH   6  13
BRANCH   5  18
ATOM     18  N   LIG d   1      -6.639  93.585 117.172  0.00  0.00     0.381 N 
ATOM     19  H   LIG d   1      -7.606  93.665 116.927  0.00  0.00    -0.090 HD
ATOM     20  H   LIG d   1      -6.104  94.149 116.535  0.00  0.00    -0.090 HD
ATOM     21  H   LIG d   1      -6.499  93.902 118.106  0.00  0.00    -0.090 HD
ENDBRANCH   5  18
BRANCH   3  22
ATOM     22  C   LIG d   1      -6.415  89.788 114.262  0.00  0.00     0.382 C 
ATOM     23  O   LIG d   1      -5.840  88.769 113.810  0.00  0.00    -0.241 OA
ATOM     24  O   LIG d   1      -7.482  90.170 113.745  0.00  0.00    -0.241 OA
ENDBRANCH   3  22
TORSDOF 7
ENDMDL
MODEL 4
REMARK VINA RESULT:      -5.1      2.058      2.856
REMARK  7 active torsions:
REMARK  status: ('A' for Active; 'I' for Inactive)
REMARK    1  A    between atoms: C_2  and  C_3 
REMARK    2  A    between atoms: C_3  and  O_6 
REMARK    3  A    between atoms: C_3  and  C_4 
REMARK    4  A    between atoms: C_7  and  O_6 
REMARK    5  A    between atoms: C_9  and  C_10 
REMARK    6  A    between atoms: N_15  and  C_14 
REMARK    7  A    between atoms: N_20  and  C_19 
REMARK       I    between atoms: C_22  and  N_20 
ROOT
ATOM      1  C   LIG d   1      -5.273  91.597 117.841  0.00  0.00     0.161 C 
ATOM      2  C   LIG d   1      -6.022  91.696 116.656  0.00  0.00     0.016 C 
ATOM      3  C   LIG d   1      -5.870  90.813 115.563  0.00  0.00     0.038 C 
ATOM      4  C   LIG d   1      -5.058  89.671 115.639  0.00  0.00     0.028 C 
ATOM      5  C   LIG d   1      -3.904  89.814 116.626  0.00  0.00    -0.047 C 
ATOM      6  C   LIG d   1      -4.463  90.292 117.986  0.00  0.00     0.091 C 
ENDROOT
BRANCH   1   7
ATOM      7  O   LIG d   1      -6.135  91.781 118.981  0.00  0.00    -0.368 OA
BRANCH   7   8
ATOM      8  C   LIG d   1      -5.973  93.023 119.709  0.00  0.00     0.119 C 
BRANCH   8   9
ATOM      9  C   LIG d   1      -7.203  93.901 119.406  0.00  0.00     0.028 C 
ATOM     10  C   LIG d   1      -6.927  94.938 118.305  0.00  0.00     0.006 C 
ENDBRANCH   8   9
BRANCH   8  11
ATOM     11  C   LIG d   1      -4.770  93.819 119.193  0.00  0.00     0.028 C 
ATOM     12  C   LIG d   1      -3.658  93.966 120.243  0.00  0.00     0.006 C 
ENDBRANCH   8  11
ENDBRANCH   7   8
ENDBRANCH   1   7
BRANCH   6  13
ATOM     13  N   LIG d   1      -3.390  90.538 118.985  0.00  0.00    -0.311 N 
ATOM     14  C   LIG d   1      -2.957  89.612 119.838  0.00  0.00     0.210 C 
ATOM     15  C   LIG d   1      -1.858  90.080 120.797  0.00  0.00     0.109 C 
ATOM     16  O   LIG d   1      -3.356  88.438 119.871  0.00  0.00    -0.276 OA
ATOM     17  H   LIG d   1      -2.988  91.455 119.006  0.00  0.00     0.149 HD
ENDBRANCH   6  13
BRANCH   5  18
ATOM     18  N   LIG d   1      -3.223  88.508 116.708  0.00  0.00     0.381 N 
ATOM     19  H   LIG d   1      -2.311  88.575 116.303  0.00  0.00    -0.090 HD
ATOM     20  H   LIG d   1      -3.752  87.833 116.184  0.00  0.00    -0.090 HD
ATOM     21  H   LIG d   1      -3.153  88.219 117.659  0.00  0.00    -0.090 HD
ENDBRANCH   5  18
BRANCH   3  22
ATOM     22  C   LIG d   1      -6.504  91.091 114.361  0.00  0.00     0.382 C 
ATOM     23  O   LIG d   1      -6.382  92.223 113.835  0.00  0.00    -0.241 OA
ATOM     24  O   LIG d   1      -7.232  90.238 113.819  0.00  0.00    -0.241 OA
ENDBRANCH   3  22
TORSDOF 7
ENDMDL
MODEL 5
REMARK VINA RESULT:      -4.9      2.085      5.009
REMARK  7 active torsions:
REMARK  status: ('A' for Active; 'I' for Inactive)
REMARK    1  A    between atoms: C_2  and  C_3 
REMARK    2  A    between atoms: C_3  and  O_6 
REMARK    3  A    between atoms: C_3  and  C_4 
REMARK    4  A    between atoms: C_7  and  O_6 
REMARK    5  A    between atoms: C_9  and  C_10 
REMARK    6  A    between atoms: N_15  and  C_14 
REMARK    7  A    between atoms: N_20  and  C_19 
REMARK       I    between atoms: C_22  and  N_20 
ROOT
ATOM      1  C   LIG d   1      -6.014  92.664 118.944  0.00  0.00     0.161 C 
ATOM      2  C   LIG d   1      -7.248  93.330 118.863  0.00  0.00     0.016 C 
ATOM      3  C   LIG d   1      -7.370  94.738 118.807  0.00  0.00     0.038 C 
ATOM      4  C   LIG d   1      -6.252  95.575 118.675  0.00  0.00     0.028 C 
ATOM      5  C   LIG d   1      -4.977  94.978 119.262  0.00  0.00    -0.047 C 
ATOM      6  C   LIG d   1      -4.780  93.555 118.690  0.00  0.00     0.091 C 
ENDROOT
BRANCH   1   7
ATOM      7  O   LIG d   1      -6.008  91.534 118.050  0.00  0.00    -0.368 OA
BRANCH   7   8
ATOM      8  C   LIG d   1      -5.398  91.750 116.754  0.00  0.00     0.119 C 
BRANCH   8   9
ATOM      9  C   LIG d   1      -6.520  92.140 115.773  0.00  0.00     0.028 C 
ATOM     10  C   LIG d   1      -6.373  91.448 114.407  0.00  0.00     0.006 C 
ENDBRANCH   8   9
BRANCH   8  11
ATOM     11  C   LIG d   1      -4.803  90.454 116.195  0.00  0.00     0.028 C 
ATOM     12  C   LIG d   1      -3.771  89.816 117.139  0.00  0.00     0.006 C 
ENDBRANCH   8  11
ENDBRANCH   7   8
ENDBRANCH   1   7
BRANCH   6  13
ATOM     13  N   LIG d   1      -3.600  92.867 119.277  0.00  0.00    -0.311 N 
ATOM     14  C   LIG d   1      -2.400  92.849 118.699  0.00  0.00     0.210 C 
ATOM     15  C   LIG d   1      -1.327  92.066 119.462  0.00  0.00     0.109 C 
ATOM     16  O   LIG d   1      -2.114  93.434 117.643  0.00  0.00    -0.276 OA
ATOM     17  H   LIG d   1      -3.735  92.393 120.148  0.00  0.00     0.149 HD
ENDBRANCH   6  13
BRANCH   5  18
ATOM     18  N   LIG d   1      -3.866  95.891 118.934  0.00  0.00     0.381 N 
ATOM     19  H   LIG d   1      -3.186  95.412 118.378  0.00  0.00    -0.090 HD
ATOM     20  H   LIG d   1      -3.424  96.185 119.788  0.00  0.00    -0.090 HD
ATOM     21  H   LIG d   1      -4.211  96.685 118.440  0.00  0.00    -0.090 HD
ENDBRANCH   5  18
BRANCH   3  22
ATOM     22  C   LIG d   1      -8.621  95.324 118.922  0.00  0.00     0.382 C 
ATOM     23  O   LIG d   1      -8.729  96.574 118.938  0.00  0.00    -0.241 OA
ATOM     24  O   LIG d   1      -9.639  94.619 119.055  0.00  0.00    -0.241 OA
ENDBRANCH   3  22
TORSDOF 7
ENDMDL
MODEL 6
REMARK VINA RESULT:      -4.9      2.690      6.404
REMARK  7 active torsions:
REMARK  status: ('A' for Active; 'I' for Inactive)
REMARK    1  A    between atoms: C_2  and  C_3 
REMARK    2  A    between atoms: C_3  and  O_6 
REMARK    3  A    between atoms: C_3  and  C_4 
REMARK    4  A    between atoms: C_7  and  O_6 
REMARK    5  A    between atoms: C_9  and  C_10 
REMARK    6  A    between atoms: N_15  and  C_14 
REMARK    7  A    between atoms: N_20  and  C_19 
REMARK       I    between atoms: C_22  and  N_20 
ROOT
ATOM      1  C   LIG d   1      -3.527  91.227 117.281  0.00  0.00     0.161 C 
ATOM      2  C   LIG d   1      -2.769  91.848 118.287  0.00  0.00     0.016 C 
ATOM      3  C   LIG d   1      -3.340  92.578 119.355  0.00  0.00     0.038 C 
ATOM      4  C   LIG d   1      -4.726  92.608 119.574  0.00  0.00     0.028 C 
ATOM      5  C   LIG d   1      -5.545  92.418 118.302  0.00  0.00    -0.047 C 
ATOM      6  C   LIG d   1      -5.042  91.155 117.565  0.00  0.00     0.091 C 
ENDROOT
BRANCH   1   7
ATOM      7  O   LIG d   1      -3.004  89.910 117.018  0.00  0.00    -0.368 OA
BRANCH   7   8
ATOM      8  C   LIG d   1      -1.986  89.434 117.932  0.00  0.00     0.119 C 
BRANCH   8   9
ATOM      9  C   LIG d   1      -0.794  88.948 117.085  0.00  0.00     0.028 C 
ATOM     10  C   LIG d   1      -0.742  87.416 116.970  0.00  0.00     0.006 C 
ENDBRANCH   8   9
BRANCH   8  11
ATOM     11  C   LIG d   1      -2.464  88.201 118.705  0.00  0.00     0.028 C 
ATOM     12  C   LIG d   1      -3.082  88.554 120.067  0.00  0.00     0.006 C 
ENDBRANCH   8  11
ENDBRANCH   7   8
ENDBRANCH   1   7
BRANCH   6  13
ATOM     13  N   LIG d   1      -5.734  90.943 116.267  0.00  0.00    -0.311 N 
ATOM     14  C   LIG d   1      -6.822  90.188 116.131  0.00  0.00     0.210 C 
ATOM     15  C   LIG d   1      -7.364  90.087 114.702  0.00  0.00     0.109 C 
ATOM     16  O   LIG d   1      -7.408  89.617 117.063  0.00  0.00    -0.276 OA
ATOM     17  H   LIG d   1      -5.343  91.395 115.463  0.00  0.00     0.149 HD
ENDBRANCH   6  13
BRANCH   5  18
ATOM     18  N   LIG d   1      -6.964  92.333 118.694  0.00  0.00     0.381 N 
ATOM     19  H   LIG d   1      -7.545  92.409 117.883  0.00  0.00    -0.090 HD
ATOM     20  H   LIG d   1      -7.178  93.098 119.308  0.00  0.00    -0.090 HD
ATOM     21  H   LIG d   1      -7.139  91.467 119.156  0.00  0.00    -0.090 HD
ENDBRANCH   5  18
BRANCH   3  22
ATOM     22  C   LIG d   1      -2.524  93.321 120.195  0.00  0.00     0.382 C 
ATOM     23  O   LIG d   1      -1.623  92.752 120.857  0.00  0.00    -0.241 OA
ATOM     24  O   LIG d   1      -2.707  94.545 120.332  0.00  0.00    -0.241 OA
ENDBRANCH   3  22
TORSDOF 7
ENDMDL
MODEL 7
REMARK VINA RESULT:      -4.8      2.876      5.517
REMARK  7 active torsions:
REMARK  status: ('A' for Active; 'I' for Inactive)
REMARK    1  A    between atoms: C_2  and  C_3 
REMARK    2  A    between atoms: C_3  and  O_6 
REMARK    3  A    between atoms: C_3  and  C_4 
REMARK    4  A    between atoms: C_7  and  O_6 
REMARK    5  A    between atoms: C_9  and  C_10 
REMARK    6  A    between atoms: N_15  and  C_14 
REMARK    7  A    between atoms: N_20  and  C_19 
REMARK       I    between atoms: C_22  and  N_20 
ROOT
ATOM      1  C   LIG d   1      -2.832  89.921 117.623  0.00  0.00     0.161 C 
ATOM      2  C   LIG d   1      -3.850  89.541 116.733  0.00  0.00     0.016 C 
ATOM      3  C   LIG d   1      -4.899  90.401 116.336  0.00  0.00     0.038 C 
ATOM      4  C   LIG d   1      -4.918  91.759 116.689  0.00  0.00     0.028 C 
ATOM      5  C   LIG d   1      -4.187  92.056 117.994  0.00  0.00    -0.047 C 
ATOM      6  C   LIG d   1      -2.774  91.432 117.931  0.00  0.00     0.091 C 
ENDROOT
BRANCH   1   7
ATOM      7  O   LIG d   1      -1.557  89.460 117.135  0.00  0.00    -0.368 OA
BRANCH   7   8
ATOM      8  C   LIG d   1      -1.171  88.120 117.527  0.00  0.00     0.119 C 
BRANCH   8   9
ATOM      9  C   LIG d   1      -0.964  88.126 119.054  0.00  0.00     0.028 C 
ATOM     10  C   LIG d   1      -1.836  87.079 119.768  0.00  0.00     0.006 C 
ENDBRANCH   8   9
BRANCH   8  11
ATOM     11  C   LIG d   1       0.188  87.735 116.935  0.00  0.00     0.028 C 
ATOM     12  C   LIG d   1       0.117  86.487 116.041  0.00  0.00     0.006 C 
ENDBRANCH   8  11
ENDBRANCH   7   8
ENDBRANCH   1   7
BRANCH   6  13
ATOM     13  N   LIG d   1      -2.022  91.604 119.201  0.00  0.00    -0.311 N 
ATOM     14  C   LIG d   1      -1.179  92.611 119.424  0.00  0.00     0.210 C 
ATOM     15  C   LIG d   1      -0.492  92.589 120.793  0.00  0.00     0.109 C 
ATOM     16  O   LIG d   1      -0.960  93.539 118.630  0.00  0.00    -0.276 OA
ATOM     17  H   LIG d   1      -2.163  90.913 119.912  0.00  0.00     0.149 HD
ENDBRANCH   6  13
BRANCH   5  18
ATOM     18  N   LIG d   1      -4.165  93.520 118.169  0.00  0.00     0.381 N 
ATOM     19  H   LIG d   1      -3.325  93.793 118.639  0.00  0.00    -0.090 HD
ATOM     20  H   LIG d   1      -4.947  93.791 118.739  0.00  0.00    -0.090 HD
ATOM     21  H   LIG d   1      -4.219  93.971 117.282  0.00  0.00    -0.090 HD
ENDBRANCH   5  18
BRANCH   3  22
ATOM     22  C   LIG d   1      -5.967  89.895 115.611  0.00  0.00     0.382 C 
ATOM     23  O   LIG d   1      -6.092  90.182 114.396  0.00  0.00    -0.241 OA
ATOM     24  O   LIG d   1      -6.830  89.190 116.166  0.00  0.00    -0.241 OA
ENDBRANCH   3  22
TORSDOF 7
ENDMDL
MODEL 8
REMARK VINA RESULT:      -4.7      2.381      5.303
REMARK  7 active torsions:
REMARK  status: ('A' for Active; 'I' for Inactive)
REMARK    1  A    between atoms: C_2  and  C_3 
REMARK    2  A    between atoms: C_3  and  O_6 
REMARK    3  A    between atoms: C_3  and  C_4 
REMARK    4  A    between atoms: C_7  and  O_6 
REMARK    5  A    between atoms: C_9  and  C_10 
REMARK    6  A    between atoms: N_15  and  C_14 
REMARK    7  A    between atoms: N_20  and  C_19 
REMARK       I    between atoms: C_22  and  N_20 
ROOT
ATOM      1  C   LIG d   1      -3.062  92.638 119.269  0.00  0.00     0.161 C 
ATOM      2  C   LIG d   1      -2.882  94.029 119.199  0.00  0.00     0.016 C 
ATOM      3  C   LIG d   1      -1.894  94.647 118.399  0.00  0.00     0.038 C 
ATOM      4  C   LIG d   1      -1.112  93.916 117.492  0.00  0.00     0.028 C 
ATOM      5  C   LIG d   1      -0.913  92.460 117.898  0.00  0.00    -0.047 C 
ATOM      6  C   LIG d   1      -2.292  91.831 118.202  0.00  0.00     0.091 C 
ENDROOT
BRANCH   1   7
ATOM      7  O   LIG d   1      -4.468  92.324 119.216  0.00  0.00    -0.368 OA
BRANCH   7   8
ATOM      8  C   LIG d   1      -5.235  93.005 118.193  0.00  0.00     0.119 C 
BRANCH   8   9
ATOM      9  C   LIG d   1      -6.524  93.531 118.855  0.00  0.00     0.028 C 
ATOM     10  C   LIG d   1      -7.066  94.793 118.162  0.00  0.00     0.006 C 
ENDBRANCH   8   9
BRANCH   8  11
ATOM     11  C   LIG d   1      -5.705  92.032 117.108  0.00  0.00     0.028 C 
ATOM     12  C   LIG d   1      -6.214  90.700 117.682  0.00  0.00     0.006 C 
ENDBRANCH   8  11
ENDBRANCH   7   8
ENDBRANCH   1   7
BRANCH   6  13
ATOM     13  N   LIG d   1      -2.182  90.432 118.689  0.00  0.00    -0.311 N 
ATOM     14  C   LIG d   1      -2.645  89.382 118.013  0.00  0.00     0.210 C 
ATOM     15  C   LIG d   1      -2.447  88.029 118.704  0.00  0.00     0.109 C 
ATOM     16  O   LIG d   1      -3.172  89.439 116.892  0.00  0.00    -0.276 OA
ATOM     17  H   LIG d   1      -1.740  90.291 119.576  0.00  0.00     0.149 HD
ENDBRANCH   6  13
BRANCH   5  18
ATOM     18  N   LIG d   1      -0.199  91.783 116.799  0.00  0.00     0.381 N 
ATOM     19  H   LIG d   1       0.760  91.648 117.051  0.00  0.00    -0.090 HD
ATOM     20  H   LIG d   1      -0.231  92.368 115.982  0.00  0.00    -0.090 HD
ATOM     21  H   LIG d   1      -0.626  90.905 116.605  0.00  0.00    -0.090 HD
ENDBRANCH   5  18
BRANCH   3  22
ATOM     22  C   LIG d   1      -1.653  96.006 118.531  0.00  0.00     0.382 C 
ATOM     23  O   LIG d   1      -2.559  96.832 118.267  0.00  0.00    -0.241 OA
ATOM     24  O   LIG d   1      -0.526  96.418 118.868  0.00  0.00    -0.241 OA
ENDBRANCH   3  22
TORSDOF 7
ENDMDL
MODEL 9
REMARK VINA RESULT:      -4.7      2.483      4.359
REMARK  7 active torsions:
REMARK  status: ('A' for Active; 'I' for Inactive)
REMARK    1  A    between atoms: C_2  and  C_3 
REMARK    2  A    between atoms: C_3  and  O_6 
REMARK    3  A    between atoms: C_3  and  C_4 
REMARK    4  A    between atoms: C_7  and  O_6 
REMARK    5  A    between atoms: C_9  and  C_10 
REMARK    6  A    between atoms: N_15  and  C_14 
REMARK    7  A    between atoms: N_20  and  C_19 
REMARK       I    between atoms: C_22  and  N_20 
ROOT
ATOM      1  C   LIG d   1      -5.027  92.139 119.463  0.00  0.00     0.161 C 
ATOM      2  C   LIG d   1      -4.049  91.266 118.960  0.00  0.00     0.016 C 
ATOM      3  C   LIG d   1      -4.007  90.837 117.613  0.00  0.00     0.038 C 
ATOM      4  C   LIG d   1      -4.859  91.376 116.637  0.00  0.00     0.028 C 
ATOM      5  C   LIG d   1      -6.184  91.879 117.200  0.00  0.00    -0.047 C 
ATOM      6  C   LIG d   1      -5.897  92.824 118.389  0.00  0.00     0.091 C 
ENDROOT
BRANCH   1   7
ATOM      7  O   LIG d   1      -4.410  93.127 120.313  0.00  0.00    -0.368 OA
BRANCH   7   8
ATOM      8  C   LIG d   1      -3.883  94.300 119.646  0.00  0.00     0.119 C 
BRANCH   8   9
ATOM      9  C   LIG d   1      -2.345  94.210 119.698  0.00  0.00     0.028 C 
ATOM     10  C   LIG d   1      -1.703  94.340 118.307  0.00  0.00     0.006 C 
ENDBRANCH   8   9
BRANCH   8  11
ATOM     11  C   LIG d   1      -4.240  95.581 120.407  0.00  0.00     0.028 C 
ATOM     12  C   LIG d   1      -4.592  96.750 119.474  0.00  0.00     0.006 C 
ENDBRANCH   8  11
ENDBRANCH   7   8
ENDBRANCH   1   7
BRANCH   6  13
ATOM     13  N   LIG d   1      -7.142  93.295 119.052  0.00  0.00    -0.311 N 
ATOM     14  C   LIG d   1      -7.709  94.472 118.794  0.00  0.00     0.210 C 
ATOM     15  C   LIG d   1      -8.976  94.770 119.602  0.00  0.00     0.109 C 
ATOM     16  O   LIG d   1      -7.301  95.284 117.950  0.00  0.00    -0.276 OA
ATOM     17  H   LIG d   1      -7.557  92.685 119.728  0.00  0.00     0.149 HD
ENDBRANCH   6  13
BRANCH   5  18
ATOM     18  N   LIG d   1      -6.914  92.538 116.101  0.00  0.00     0.381 N 
ATOM     19  H   LIG d   1      -7.192  91.857 115.422  0.00  0.00    -0.090 HD
ATOM     20  H   LIG d   1      -6.302  93.197 115.653  0.00  0.00    -0.090 HD
ATOM     21  H   LIG d   1      -7.717  93.008 116.458  0.00  0.00    -0.090 HD
ENDBRANCH   5  18
BRANCH   3  22
ATOM     22  C   LIG d   1      -3.132  89.829 117.239  0.00  0.00     0.382 C 
ATOM     23  O   LIG d   1      -3.576  88.700 116.919  0.00  0.00    -0.241 OA
ATOM     24  O   LIG d   1      -1.901  90.021 117.260  0.00  0.00    -0.241 OA
ENDBRANCH   3  22
TORSDOF 7
ENDMDL
