MODEL 1
REMARK VINA RESULT:      -5.3      0.000      0.000
REMARK  7 active torsions:
REMARK  status: ('A' for Active; 'I' for Inactive)
REMARK    1  A    between atoms: C_2  and  C_3 
REMARK    2  A    between atoms: C_3  and  O_6 
REMARK    3  A    between atoms: C_3  and  C_4 
REMARK    4  A    between atoms: C_7  and  O_6 
REMARK    5  A    between atoms: C_9  and  C_10 
REMARK    6  A    between atoms: N_15  and  C_14 
REMARK    7  A    between atoms: N_20  and  C_19 
REMARK       I    between atoms: C_22  and  N_20 
ROOT
ATOM      1  C   LIG d   1       1.600  88.740 115.880  0.00  0.00     0.161 C 
ATOM      2  C   LIG d   1       0.271  88.858 116.320  0.00  0.00     0.016 C 
ATOM      3  C   LIG d   1      -0.218  89.981 117.026  0.00  0.00     0.038 C 
ATOM      4  C   LIG d   1       0.556  91.136 117.209  0.00  0.00     0.028 C 
ATOM      5  C   LIG d   1       2.056  90.864 117.225  0.00  0.00    -0.047 C 
ATOM      6  C   LIG d   1       2.430  90.038 115.973  0.00  0.00     0.091 C 
ENDROOT
BRANCH   1   7
ATOM      7  O   LIG d   1       1.626  88.225 114.534  0.00  0.00    -0.368 OA
BRANCH   7   8
ATOM      8  C   LIG d   1       2.478  87.075 114.308  0.00  0.00     0.119 C 
BRANCH   8   9
ATOM      9  C   LIG d   1       1.689  86.078 113.437  0.00  0.00     0.028 C 
ATOM     10  C   LIG d   1       0.169  86.191 113.647  0.00  0.00     0.006 C 
ENDBRANCH   8   9
BRANCH   8  11
ATOM     11  C   LIG d   1       2.768  86.331 115.615  0.00  0.00     0.028 C 
ATOM     12  C   LIG d   1       4.262  86.027 115.809  0.00  0.00     0.006 C 
ENDBRANCH   8  11
ENDBRANCH   7   8
ENDBRANCH   1   7
BRANCH   6  13
ATOM     13  N   LIG d   1       3.866  89.656 115.954  0.00  0.00    -0.311 N 
ATOM     14  C   LIG d   1       4.647  89.794 114.884  0.00  0.00     0.210 C 
ATOM     15  C   LIG d   1       6.091  89.320 115.073  0.00  0.00     0.109 C 
ATOM     16  O   LIG d   1       4.289  90.293 113.807  0.00  0.00    -0.276 OA
ATOM     17  H   LIG d   1       4.247  89.272 116.797  0.00  0.00     0.149 HD
ENDBRANCH   6  13
BRANCH   5  18
ATOM     18  N   LIG d   1       2.745  92.168 117.285  0.00  0.00     0.381 N 
ATOM     19  H   LIG d   1       3.059  92.342 118.218  0.00  0.00    -0.090 HD
ATOM     20  H   LIG d   1       2.095  92.890 117.030  0.00  0.00    -0.090 HD
ATOM     21  H   LIG d   1       3.520  92.172 116.659  0.00  0.00    -0.090 HD
ENDBRANCH   5  18
BRANCH   3  22
ATOM     22  C   LIG d   1      -1.483  89.939 117.592  0.00  0.00     0.382 C 
ATOM     23  O   LIG d   1      -2.370  89.204 117.092  0.00  0.00    -0.241 OA
ATOM     24  O   LIG d   1      -1.763  90.659 118.569  0.00  0.00    -0.241 OA
ENDBRANCH   3  22
TORSDOF 7
ENDMDL
MODEL 2
REMARK VINA RESULT:      -5.1      0.534      1.721
REMARK  7 active torsions:
REMARK  status: ('A' for Active; 'I' for Inactive)
REMARK    1  A    between atoms: C_2  and  C_3 
REMARK    2  A    between atoms: C_3  and  O_6 
REMARK    3  A    between atoms: C_3  and  C_4 
REMARK    4  A    between atoms: C_7  and  O_6 
REMARK    5  A    between atoms: C_9  and  C_10 
REMARK    6  A    between atoms: N_15  and  C_14 
REMARK    7  A    between atoms: N_20  and  C_19 
REMARK       I    between atoms: C_22  and  N_20 
ROOT
ATOM      1  C   LIG d   1       1.539  88.981 116.217  0.00  0.00     0.161 C 
ATOM      2  C   LIG d   1       0.180  89.100 116.551  0.00  0.00     0.016 C 
ATOM      3  C   LIG d   1      -0.366  90.231 117.201  0.00  0.00     0.038 C 
ATOM      4  C   LIG d   1       0.389  91.392 117.425  0.00  0.00     0.028 C 
ATOM      5  C   LIG d   1       1.884  91.126 117.561  0.00  0.00    -0.047 C 
ATOM      6  C   LIG d   1       2.355  90.283 116.354  0.00  0.00     0.091 C 
ENDROOT
BRANCH   1   7
ATOM      7  O   LIG d   1       1.669  88.446 114.885  0.00  0.00    -0.368 OA
BRANCH   7   8
ATOM      8  C   LIG d   1       1.836  87.010 114.788  0.00  0.00     0.119 C 
BRANCH   8   9
ATOM      9  C   LIG d   1       3.347  86.715 114.833  0.00  0.00     0.028 C 
ATOM     10  C   LIG d   1       3.771  86.021 116.138  0.00  0.00     0.006 C 
ENDBRANCH   8   9
BRANCH   8  11
ATOM     11  C   LIG d   1       1.360  86.484 113.430  0.00  0.00     0.028 C 
ATOM     12  C   LIG d   1      -0.079  85.947 113.470  0.00  0.00     0.006 C 
ENDBRANCH   8  11
ENDBRANCH   7   8
ENDBRANCH   1   7
BRANCH   6  13
ATOM     13  N   LIG d   1       3.790  89.907 116.451  0.00  0.00    -0.311 N 
ATOM     14  C   LIG d   1       4.633  89.961 115.421  0.00  0.00     0.210 C 
ATOM     15  C   LIG d   1       6.063  89.509 115.733  0.00  0.00     0.109 C 
ATOM     16  O   LIG d   1       4.340  90.370 114.288  0.00  0.00    -0.276 OA
ATOM     17  H   LIG d   1       4.120  89.593 117.343  0.00  0.00     0.149 HD
ENDBRANCH   6  13
BRANCH   5  18
ATOM     18  N   LIG d   1       2.563  92.433 117.653  0.00  0.00     0.381 N 
ATOM     19  H   LIG d   1       3.554  92.300 117.653  0.00  0.00    -0.090 HD
ATOM     20  H   LIG d   1       2.304  92.873 118.519  0.00  0.00    -0.090 HD
ATOM     21  H   LIG d   1       2.297  93.010 116.886  0.00  0.00    -0.090 HD
ENDBRANCH   5  18
BRANCH   3  22
ATOM     22  C   LIG d   1      -1.670  90.193 117.669  0.00  0.00     0.382 C 
ATOM     23  O   LIG d   1      -2.451  89.293 117.275  0.00  0.00    -0.241 OA
ATOM     24  O   LIG d   1      -2.089  91.072 118.444  0.00  0.00    -0.241 OA
ENDBRANCH   3  22
TORSDOF 7
ENDMDL
MODEL 3
REMARK VINA RESULT:      -4.9      2.567      4.426
REMARK  7 active torsions:
REMARK  status: ('A' for Active; 'I' for Inactive)
REMARK    1  A    between atoms: C_2  and  C_3 
REMARK    2  A    between atoms: C_3  and  O_6 
REMARK    3  A    between atoms: C_3  and  C_4 
REMARK    4  A    between atoms: C_7  and  O_6 
REMARK    5  A    between atoms: C_9  and  C_10 
REMARK    6  A    between atoms: N_15  and  C_14 
REMARK    7  A    between atoms: N_20  and  C_19 
REMARK       I    between atoms: C_22  and  N_20 
ROOT
ATOM      1  C   LIG d   1       2.268  90.951 116.888  0.00  0.00     0.161 C 
ATOM      2  C   LIG d   1       1.780  92.041 117.628  0.00  0.00     0.016 C 
ATOM      3  C   LIG d   1       0.433  92.160 118.042  0.00  0.00     0.038 C 
ATOM      4  C   LIG d   1      -0.489  91.117 117.873  0.00  0.00     0.028 C 
ATOM      5  C   LIG d   1      -0.170  90.212 116.687  0.00  0.00    -0.047 C 
ATOM      6  C   LIG d   1       1.302  89.752 116.790  0.00  0.00     0.091 C 
ENDROOT
BRANCH   1   7
ATOM      7  O   LIG d   1       3.539  90.529 117.421  0.00  0.00    -0.368 OA
BRANCH   7   8
ATOM      8  C   LIG d   1       4.714  91.108 116.802  0.00  0.00     0.119 C 
BRANCH   8   9
ATOM      9  C   LIG d   1       5.404  89.996 115.988  0.00  0.00     0.028 C 
ATOM     10  C   LIG d   1       5.060  90.066 114.490  0.00  0.00     0.006 C 
ENDBRANCH   8   9
BRANCH   8  11
ATOM     11  C   LIG d   1       5.742  91.538 117.852  0.00  0.00     0.028 C 
ATOM     12  C   LIG d   1       5.353  92.843 118.567  0.00  0.00     0.006 C 
ENDBRANCH   8  11
ENDBRANCH   7   8
ENDBRANCH   1   7
BRANCH   6  13
ATOM     13  N   LIG d   1       1.722  88.930 115.625  0.00  0.00    -0.311 N 
ATOM     14  C   LIG d   1       2.384  87.781 115.739  0.00  0.00     0.210 C 
ATOM     15  C   LIG d   1       2.738  87.104 114.411  0.00  0.00     0.109 C 
ATOM     16  O   LIG d   1       2.684  87.241 116.814  0.00  0.00    -0.276 OA
ATOM     17  H   LIG d   1       1.492  89.279 114.715  0.00  0.00     0.149 HD
ENDBRANCH   6  13
BRANCH   5  18
ATOM     18  N   LIG d   1      -1.129  89.092 116.710  0.00  0.00     0.381 N 
ATOM     19  H   LIG d   1      -1.366  88.868 117.656  0.00  0.00    -0.090 HD
ATOM     20  H   LIG d   1      -0.698  88.286 116.294  0.00  0.00    -0.090 HD
ATOM     21  H   LIG d   1      -1.951  89.337 116.204  0.00  0.00    -0.090 HD
ENDBRANCH   5  18
BRANCH   3  22
ATOM     22  C   LIG d   1      -0.012  93.350 118.598  0.00  0.00     0.382 C 
ATOM     23  O   LIG d   1       0.254  93.622 119.793  0.00  0.00    -0.241 OA
ATOM     24  O   LIG d   1      -0.714  94.134 117.932  0.00  0.00    -0.241 OA
ENDBRANCH   3  22
TORSDOF 7
ENDMDL
MODEL 4
REMARK VINA RESULT:      -4.8      1.848      2.367
REMARK  7 active torsions:
REMARK  status: ('A' for Active; 'I' for Inactive)
REMARK    1  A    between atoms: C_2  and  C_3 
REMARK    2  A    between atoms: C_3  and  O_6 
REMARK    3  A    between atoms: C_3  and  C_4 
REMARK    4  A    between atoms: C_7  and  O_6 
REMARK    5  A    between atoms: C_9  and  C_10 
REMARK    6  A    between atoms: N_15  and  C_14 
REMARK    7  A    between atoms: N_20  and  C_19 
REMARK       I    between atoms: C_22  and  N_20 
ROOT
ATOM      1  C   LIG d   1       1.817  88.789 116.135  0.00  0.00     0.161 C 
ATOM      2  C   LIG d   1       0.474  89.176 116.272  0.00  0.00     0.016 C 
ATOM      3  C   LIG d   1      -0.061  89.722 117.461  0.00  0.00     0.038 C 
ATOM      4  C   LIG d   1       0.752  90.062 118.552  0.00  0.00     0.028 C 
ATOM      5  C   LIG d   1       2.023  89.224 118.644  0.00  0.00    -0.047 C 
ATOM      6  C   LIG d   1       2.744  89.254 117.278  0.00  0.00     0.091 C 
ENDROOT
BRANCH   1   7
ATOM      7  O   LIG d   1       2.327  89.235 114.863  0.00  0.00    -0.368 OA
BRANCH   7   8
ATOM      8  C   LIG d   1       2.687  88.196 113.920  0.00  0.00     0.119 C 
BRANCH   8   9
ATOM      9  C   LIG d   1       2.375  86.841 114.584  0.00  0.00     0.028 C 
ATOM     10  C   LIG d   1       3.594  85.903 114.606  0.00  0.00     0.006 C 
ENDBRANCH   8   9
BRANCH   8  11
ATOM     11  C   LIG d   1       4.196  88.180 113.657  0.00  0.00     0.028 C 
ATOM     12  C   LIG d   1       4.853  89.552 113.876  0.00  0.00     0.006 C 
ENDBRANCH   8  11
ENDBRANCH   7   8
ENDBRANCH   1   7
BRANCH   6  13
ATOM     13  N   LIG d   1       3.954  88.391 117.256  0.00  0.00    -0.311 N 
ATOM     14  C   LIG d   1       5.184  88.847 117.485  0.00  0.00     0.210 C 
ATOM     15  C   LIG d   1       6.291  87.792 117.394  0.00  0.00     0.109 C 
ATOM     16  O   LIG d   1       5.459  90.017 117.787  0.00  0.00    -0.276 OA
ATOM     17  H   LIG d   1       3.818  87.420 117.049  0.00  0.00     0.149 HD
ENDBRANCH   6  13
BRANCH   5  18
ATOM     18  N   LIG d   1       2.841  89.773 119.742  0.00  0.00     0.381 N 
ATOM     19  H   LIG d   1       3.418  89.053 120.128  0.00  0.00    -0.090 HD
ATOM     20  H   LIG d   1       2.230  90.110 120.466  0.00  0.00    -0.090 HD
ATOM     21  H   LIG d   1       3.409  90.519 119.404  0.00  0.00    -0.090 HD
ENDBRANCH   5  18
BRANCH   3  22
ATOM     22  C   LIG d   1      -1.431  89.898 117.581  0.00  0.00     0.382 C 
ATOM     23  O   LIG d   1      -1.886  90.779 118.350  0.00  0.00    -0.241 OA
ATOM     24  O   LIG d   1      -2.220  89.158 116.963  0.00  0.00    -0.241 OA
ENDBRANCH   3  22
TORSDOF 7
ENDMDL
MODEL 5
REMARK VINA RESULT:      -4.7      2.645      5.816
REMARK  7 active torsions:
REMARK  status: ('A' for Active; 'I' for Inactive)
REMARK    1  A    between atoms: C_2  and  C_3 
REMARK    2  A    between atoms: C_3  and  O_6 
REMARK    3  A    between atoms: C_3  and  C_4 
REMARK    4  A    between atoms: C_7  and  O_6 
REMARK    5  A    between atoms: C_9  and  C_10 
REMARK    6  A    between atoms: N_15  and  C_14 
REMARK    7  A    between atoms: N_20  and  C_19 
REMARK       I    between atoms: C_22  and  N_20 
ROOT
ATOM      1  C   LIG d   1       2.087  90.819 117.271  0.00  0.00     0.161 C 
ATOM      2  C   LIG d   1       2.531  89.788 116.426  0.00  0.00     0.016 C 
ATOM      3  C   LIG d   1       1.660  88.872 115.792  0.00  0.00     0.038 C 
ATOM      4  C   LIG d   1       0.266  89.020 115.840  0.00  0.00     0.028 C 
ATOM      5  C   LIG d   1      -0.223  89.743 117.091  0.00  0.00    -0.047 C 
ATOM      6  C   LIG d   1       0.564  91.064 117.247  0.00  0.00     0.091 C 
ENDROOT
BRANCH   1   7
ATOM      7  O   LIG d   1       2.796  92.037 116.969  0.00  0.00    -0.368 OA
BRANCH   7   8
ATOM      8  C   LIG d   1       3.794  92.450 117.934  0.00  0.00     0.119 C 
BRANCH   8   9
ATOM      9  C   LIG d   1       5.169  92.005 117.398  0.00  0.00     0.028 C 
ATOM     10  C   LIG d   1       5.746  90.813 118.179  0.00  0.00     0.006 C 
ENDBRANCH   8   9
BRANCH   8  11
ATOM     11  C   LIG d   1       3.620  91.712 119.265  0.00  0.00     0.028 C 
ATOM     12  C   LIG d   1       3.267  92.655 120.427  0.00  0.00     0.006 C 
ENDBRANCH   8  11
ENDBRANCH   7   8
ENDBRANCH   1   7
BRANCH   6  13
ATOM     13  N   LIG d   1       0.207  91.793 118.492  0.00  0.00    -0.311 N 
ATOM     14  C   LIG d   1      -0.194  93.063 118.509  0.00  0.00     0.210 C 
ATOM     15  C   LIG d   1      -0.493  93.629 119.900  0.00  0.00     0.109 C 
ATOM     16  O   LIG d   1      -0.360  93.765 117.500  0.00  0.00    -0.276 OA
ATOM     17  H   LIG d   1       0.283  91.289 119.354  0.00  0.00     0.149 HD
ENDBRANCH   6  13
BRANCH   5  18
ATOM     18  N   LIG d   1      -1.677  89.950 116.946  0.00  0.00     0.381 N 
ATOM     19  H   LIG d   1      -1.905  90.085 115.982  0.00  0.00    -0.090 HD
ATOM     20  H   LIG d   1      -1.939  90.778 117.451  0.00  0.00    -0.090 HD
ATOM     21  H   LIG d   1      -2.171  89.163 117.305  0.00  0.00    -0.090 HD
ENDBRANCH   5  18
BRANCH   3  22
ATOM     22  C   LIG d   1       2.183  87.771 115.131  0.00  0.00     0.382 C 
ATOM     23  O   LIG d   1       2.093  87.687 113.883  0.00  0.00    -0.241 OA
ATOM     24  O   LIG d   1       2.704  86.839 115.773  0.00  0.00    -0.241 OA
ENDBRANCH   3  22
TORSDOF 7
ENDMDL
MODEL 6
REMARK VINA RESULT:      -4.7      2.553      3.371
REMARK  7 active torsions:
REMARK  status: ('A' for Active; 'I' for Inactive)
REMARK    1  A    between atoms: C_2  and  C_3 
REMARK    2  A    between atoms: C_3  and  O_6 
REMARK    3  A    between atoms: C_3  and  C_4 
REMARK    4  A    between atoms: C_7  and  O_6 
REMARK    5  A    between atoms: C_9  and  C_10 
REMARK    6  A    between atoms: N_15  and  C_14 
REMARK    7  A    between atoms: N_20  and  C_19 
REMARK       I    between atoms: C_22  and  N_20 
ROOT
ATOM      1  C   LIG d   1       3.423  90.191 116.503  0.00  0.00     0.161 C 
ATOM      2  C   LIG d   1       2.332  91.035 116.768  0.00  0.00     0.016 C 
ATOM      3  C   LIG d   1       2.296  91.943 117.851  0.00  0.00     0.038 C 
ATOM      4  C   LIG d   1       3.419  92.179 118.658  0.00  0.00     0.028 C 
ATOM      5  C   LIG d   1       4.368  90.988 118.739  0.00  0.00    -0.047 C 
ATOM      6  C   LIG d   1       4.701  90.514 117.306  0.00  0.00     0.091 C 
ENDROOT
BRANCH   1   7
ATOM      7  O   LIG d   1       3.707  90.190 115.090  0.00  0.00    -0.368 OA
BRANCH   7   8
ATOM      8  C   LIG d   1       3.393  88.968 114.377  0.00  0.00     0.119 C 
BRANCH   8   9
ATOM      9  C   LIG d   1       2.940  87.928 115.420  0.00  0.00     0.028 C 
ATOM     10  C   LIG d   1       3.799  86.652 115.388  0.00  0.00     0.006 C 
ENDBRANCH   8   9
BRANCH   8  11
ATOM     11  C   LIG d   1       4.641  88.368 113.722  0.00  0.00     0.028 C 
ATOM     12  C   LIG d   1       5.837  89.333 113.725  0.00  0.00     0.006 C 
ENDBRANCH   8  11
ENDBRANCH   7   8
ENDBRANCH   1   7
BRANCH   6  13
ATOM     13  N   LIG d   1       5.557  89.299 117.296  0.00  0.00    -0.311 N 
ATOM     14  C   LIG d   1       6.887  89.341 117.246  0.00  0.00     0.210 C 
ATOM     15  C   LIG d   1       7.577  87.973 117.224  0.00  0.00     0.109 C 
ATOM     16  O   LIG d   1       7.563  90.381 117.250  0.00  0.00    -0.276 OA
ATOM     17  H   LIG d   1       5.092  88.413 117.322  0.00  0.00     0.149 HD
ENDBRANCH   6  13
BRANCH   5  18
ATOM     18  N   LIG d   1       5.558  91.418 119.497  0.00  0.00     0.381 N 
ATOM     19  H   LIG d   1       6.351  90.875 119.218  0.00  0.00    -0.090 HD
ATOM     20  H   LIG d   1       5.395  91.258 120.476  0.00  0.00    -0.090 HD
ATOM     21  H   LIG d   1       5.735  92.385 119.336  0.00  0.00    -0.090 HD
ENDBRANCH   5  18
BRANCH   3  22
ATOM     22  C   LIG d   1       1.114  92.599 118.159  0.00  0.00     0.382 C 
ATOM     23  O   LIG d   1       0.325  92.934 117.243  0.00  0.00    -0.241 OA
ATOM     24  O   LIG d   1       0.846  92.898 119.339  0.00  0.00    -0.241 OA
ENDBRANCH   3  22
TORSDOF 7
ENDMDL
MODEL 7
REMARK VINA RESULT:      -4.6      2.712      5.195
REMARK  7 active torsions:
REMARK  status: ('A' for Active; 'I' for Inactive)
REMARK    1  A    between atoms: C_2  and  C_3 
REMARK    2  A    between atoms: C_3  and  O_6 
REMARK    3  A    between atoms: C_3  and  C_4 
REMARK    4  A    between atoms: C_7  and  O_6 
REMARK    5  A    between atoms: C_9  and  C_10 
REMARK    6  A    between atoms: N_15  and  C_14 
REMARK    7  A    between atoms: N_20  and  C_19 
REMARK       I    between atoms: C_22  and  N_20 
ROOT
ATOM      1  C   LIG d   1       2.683  89.412 118.224  0.00  0.00     0.161 C 
ATOM      2  C   LIG d   1       3.176  90.481 118.990  0.00  0.00     0.016 C 
ATOM      3  C   LIG d   1       4.111  91.423 118.501  0.00  0.00     0.038 C 
ATOM      4  C   LIG d   1       4.503  91.447 117.154  0.00  0.00     0.028 C 
ATOM      5  C   LIG d   1       4.419  90.084 116.474  0.00  0.00    -0.047 C 
ATOM      6  C   LIG d   1       3.015  89.487 116.719  0.00  0.00     0.091 C 
ENDROOT
BRANCH   1   7
ATOM      7  O   LIG d   1       1.260  89.288 118.418  0.00  0.00    -0.368 OA
BRANCH   7   8
ATOM      8  C   LIG d   1       0.427  90.126 117.580  0.00  0.00     0.119 C 
BRANCH   8   9
ATOM      9  C   LIG d   1      -0.288  91.136 118.499  0.00  0.00     0.028 C 
ATOM     10  C   LIG d   1       0.220  92.573 118.299  0.00  0.00     0.006 C 
ENDBRANCH   8   9
BRANCH   8  11
ATOM     11  C   LIG d   1      -0.692  89.316 116.918  0.00  0.00     0.028 C 
ATOM     12  C   LIG d   1      -2.091  89.721 117.411  0.00  0.00     0.006 C 
ENDBRANCH   8  11
ENDBRANCH   7   8
ENDBRANCH   1   7
BRANCH   6  13
ATOM     13  N   LIG d   1       2.875  88.118 116.159  0.00  0.00    -0.311 N 
ATOM     14  C   LIG d   1       2.353  87.866 114.960  0.00  0.00     0.210 C 
ATOM     15  C   LIG d   1       2.284  86.382 114.584  0.00  0.00     0.109 C 
ATOM     16  O   LIG d   1       1.970  88.732 114.159  0.00  0.00    -0.276 OA
ATOM     17  H   LIG d   1       3.190  87.357 116.729  0.00  0.00     0.149 HD
ENDBRANCH   6  13
BRANCH   5  18
ATOM     18  N   LIG d   1       4.723  90.280 115.044  0.00  0.00     0.381 N 
ATOM     19  H   LIG d   1       5.710  90.382 114.919  0.00  0.00    -0.090 HD
ATOM     20  H   LIG d   1       4.276  91.123 114.730  0.00  0.00    -0.090 HD
ATOM     21  H   LIG d   1       4.392  89.503 114.516  0.00  0.00    -0.090 HD
ENDBRANCH   5  18
BRANCH   3  22
ATOM     22  C   LIG d   1       4.694  92.329 119.373  0.00  0.00     0.382 C 
ATOM     23  O   LIG d   1       4.021  93.289 119.821  0.00  0.00    -0.241 OA
ATOM     24  O   LIG d   1       5.896  92.225 119.683  0.00  0.00    -0.241 OA
ENDBRANCH   3  22
TORSDOF 7
ENDMDL
MODEL 8
REMARK VINA RESULT:      -4.6      2.318      4.394
REMARK  7 active torsions:
REMARK  status: ('A' for Active; 'I' for Inactive)
REMARK    1  A    between atoms: C_2  and  C_3 
REMARK    2  A    between atoms: C_3  and  O_6 
REMARK    3  A    between atoms: C_3  and  C_4 
REMARK    4  A    between atoms: C_7  and  O_6 
REMARK    5  A    between atoms: C_9  and  C_10 
REMARK    6  A    between atoms: N_15  and  C_14 
REMARK    7  A    between atoms: N_20  and  C_19 
REMARK       I    between atoms: C_22  and  N_20 
ROOT
ATOM      1  C   LIG d   1       2.498  90.673 116.791  0.00  0.00     0.161 C 
ATOM      2  C   LIG d   1       1.228  90.747 117.386  0.00  0.00     0.016 C 
ATOM      3  C   LIG d   1       0.173  89.855 117.083  0.00  0.00     0.038 C 
ATOM      4  C   LIG d   1       0.366  88.729 116.270  0.00  0.00     0.028 C 
ATOM      5  C   LIG d   1       1.488  88.901 115.252  0.00  0.00    -0.047 C 
ATOM      6  C   LIG d   1       2.760  89.384 115.985  0.00  0.00     0.091 C 
ENDROOT
BRANCH   1   7
ATOM      7  O   LIG d   1       3.518  90.855 117.792  0.00  0.00    -0.368 OA
BRANCH   7   8
ATOM      8  C   LIG d   1       4.417  91.973 117.592  0.00  0.00     0.119 C 
BRANCH   8   9
ATOM      9  C   LIG d   1       5.848  91.409 117.511  0.00  0.00     0.028 C 
ATOM     10  C   LIG d   1       5.951  89.985 118.082  0.00  0.00     0.006 C 
ENDBRANCH   8   9
BRANCH   8  11
ATOM     11  C   LIG d   1       4.418  92.911 118.803  0.00  0.00     0.028 C 
ATOM     12  C   LIG d   1       5.734  93.690 118.952  0.00  0.00     0.006 C 
ENDBRANCH   8  11
ENDBRANCH   7   8
ENDBRANCH   1   7
BRANCH   6  13
ATOM     13  N   LIG d   1       3.883  89.659 115.050  0.00  0.00    -0.311 N 
ATOM     14  C   LIG d   1       4.818  88.761 114.743  0.00  0.00     0.210 C 
ATOM     15  C   LIG d   1       5.897  89.256 113.775  0.00  0.00     0.109 C 
ATOM     16  O   LIG d   1       4.838  87.592 115.156  0.00  0.00    -0.276 OA
ATOM     17  H   LIG d   1       3.925  90.573 114.645  0.00  0.00     0.149 HD
ENDBRANCH   6  13
BRANCH   5  18
ATOM     18  N   LIG d   1       1.671  87.608 114.567  0.00  0.00     0.381 N 
ATOM     19  H   LIG d   1       2.568  87.582 114.125  0.00  0.00    -0.090 HD
ATOM     20  H   LIG d   1       0.967  87.513 113.856  0.00  0.00    -0.090 HD
ATOM     21  H   LIG d   1       1.594  86.861 115.222  0.00  0.00    -0.090 HD
ENDBRANCH   5  18
BRANCH   3  22
ATOM     22  C   LIG d   1      -1.102  90.110 117.565  0.00  0.00     0.382 C 
ATOM     23  O   LIG d   1      -2.054  89.356 117.249  0.00  0.00    -0.241 OA
ATOM     24  O   LIG d   1      -1.321  91.108 118.277  0.00  0.00    -0.241 OA
ENDBRANCH   3  22
TORSDOF 7
ENDMDL
MODEL 9
REMARK VINA RESULT:      -4.6      1.940      4.856
REMARK  7 active torsions:
REMARK  status: ('A' for Active; 'I' for Inactive)
REMARK    1  A    between atoms: C_2  and  C_3 
REMARK    2  A    between atoms: C_3  and  O_6 
REMARK    3  A    between atoms: C_3  and  C_4 
REMARK    4  A    between atoms: C_7  and  O_6 
REMARK    5  A    between atoms: C_9  and  C_10 
REMARK    6  A    between atoms: N_15  and  C_14 
REMARK    7  A    between atoms: N_20  and  C_19 
REMARK       I    between atoms: C_22  and  N_20 
ROOT
ATOM      1  C   LIG d   1       2.094  89.027 116.914  0.00  0.00     0.161 C 
ATOM      2  C   LIG d   1       1.590  88.156 115.934  0.00  0.00     0.016 C 
ATOM      3  C   LIG d   1       2.408  87.306 115.154  0.00  0.00     0.038 C 
ATOM      4  C   LIG d   1       3.780  87.159 115.408  0.00  0.00     0.028 C 
ATOM      5  C   LIG d   1       4.412  88.390 116.050  0.00  0.00    -0.047 C 
ATOM      6  C   LIG d   1       3.575  88.800 117.283  0.00  0.00     0.091 C 
ENDROOT
BRANCH   1   7
ATOM      7  O   LIG d   1       1.268  88.963 118.094  0.00  0.00    -0.368 OA
BRANCH   7   8
ATOM      8  C   LIG d   1       0.533  90.167 118.424  0.00  0.00     0.119 C 
BRANCH   8   9
ATOM      9  C   LIG d   1      -0.941  89.768 118.629  0.00  0.00     0.028 C 
ATOM     10  C   LIG d   1      -1.670  89.511 117.300  0.00  0.00     0.006 C 
ENDBRANCH   8   9
BRANCH   8  11
ATOM     11  C   LIG d   1       0.527  91.154 117.253  0.00  0.00     0.028 C 
ATOM     12  C   LIG d   1       0.688  92.615 117.703  0.00  0.00     0.006 C 
ENDBRANCH   8  11
ENDBRANCH   7   8
ENDBRANCH   1   7
BRANCH   6  13
ATOM     13  N   LIG d   1       4.076  90.045 117.920  0.00  0.00    -0.311 N 
ATOM     14  C   LIG d   1       4.213  91.198 117.268  0.00  0.00     0.210 C 
ATOM     15  C   LIG d   1       4.765  92.354 118.108  0.00  0.00     0.109 C 
ATOM     16  O   LIG d   1       3.899  91.382 116.083  0.00  0.00    -0.276 OA
ATOM     17  H   LIG d   1       4.325  89.994 118.889  0.00  0.00     0.149 HD
ENDBRANCH   6  13
BRANCH   5  18
ATOM     18  N   LIG d   1       5.808  88.050 116.386  0.00  0.00     0.381 N 
ATOM     19  H   LIG d   1       6.317  87.845 115.549  0.00  0.00    -0.090 HD
ATOM     20  H   LIG d   1       5.812  87.231 116.967  0.00  0.00    -0.090 HD
ATOM     21  H   LIG d   1       6.237  88.810 116.866  0.00  0.00    -0.090 HD
ENDBRANCH   5  18
BRANCH   3  22
ATOM     22  C   LIG d   1       1.861  86.622 114.079  0.00  0.00     0.382 C 
ATOM     23  O   LIG d   1       2.562  85.808 113.431  0.00  0.00    -0.241 OA
ATOM     24  O   LIG d   1       0.688  86.841 113.722  0.00  0.00    -0.241 OA
ENDBRANCH   3  22
TORSDOF 7
ENDMDL
