MODEL 1
REMARK VINA RESULT:      -5.4      0.000      0.000
REMARK  7 active torsions:
REMARK  status: ('A' for Active; 'I' for Inactive)
REMARK    1  A    between atoms: C_2  and  C_3 
REMARK    2  A    between atoms: C_3  and  O_6 
REMARK    3  A    between atoms: C_3  and  C_4 
REMARK    4  A    between atoms: C_7  and  O_6 
REMARK    5  A    between atoms: C_9  and  C_10 
REMARK    6  A    between atoms: N_15  and  C_14 
REMARK    7  A    between atoms: N_20  and  C_19 
REMARK       I    between atoms: C_22  and  N_20 
ROOT
ATOM      1  C   LIG d   1      -5.835  93.247 118.146  0.00  0.00     0.161 C 
ATOM      2  C   LIG d   1      -6.671  92.475 117.322  0.00  0.00     0.016 C 
ATOM      3  C   LIG d   1      -6.190  91.481 116.439  0.00  0.00     0.038 C 
ATOM      4  C   LIG d   1      -4.845  91.084 116.431  0.00  0.00     0.028 C 
ATOM      5  C   LIG d   1      -3.887  92.182 116.881  0.00  0.00    -0.047 C 
ATOM      6  C   LIG d   1      -4.376  92.752 118.232  0.00  0.00     0.091 C 
ENDROOT
BRANCH   1   7
ATOM      7  O   LIG d   1      -6.408  93.350 119.464  0.00  0.00    -0.368 OA
BRANCH   7   8
ATOM      8  C   LIG d   1      -6.973  94.637 119.816  0.00  0.00     0.119 C 
BRANCH   8   9
ATOM      9  C   LIG d   1      -8.494  94.555 119.579  0.00  0.00     0.028 C 
ATOM     10  C   LIG d   1      -8.966  95.501 118.462  0.00  0.00     0.006 C 
ENDBRANCH   8   9
BRANCH   8  11
ATOM     11  C   LIG d   1      -6.476  95.739 118.876  0.00  0.00     0.028 C 
ATOM     12  C   LIG d   1      -5.557  96.752 119.578  0.00  0.00     0.006 C 
ENDBRANCH   8  11
ENDBRANCH   7   8
ENDBRANCH   1   7
BRANCH   6  13
ATOM     13  N   LIG d   1      -3.543  93.889 118.703  0.00  0.00    -0.311 N 
ATOM     14  C   LIG d   1      -2.522  93.749 119.547  0.00  0.00     0.210 C 
ATOM     15  C   LIG d   1      -1.807  95.053 119.919  0.00  0.00     0.109 C 
ATOM     16  O   LIG d   1      -2.119  92.666 119.997  0.00  0.00    -0.276 OA
ATOM     17  H   LIG d   1      -3.780  94.800 118.363  0.00  0.00     0.149 HD
ENDBRANCH   6  13
BRANCH   5  18
ATOM     18  N   LIG d   1      -2.537  91.592 116.958  0.00  0.00     0.381 N 
ATOM     19  H   LIG d   1      -2.558  90.770 117.527  0.00  0.00    -0.090 HD
ATOM     20  H   LIG d   1      -1.916  92.256 117.386  0.00  0.00    -0.090 HD
ATOM     21  H   LIG d   1      -2.212  91.364 116.044  0.00  0.00    -0.090 HD
ENDBRANCH   5  18
BRANCH   3  22
ATOM     22  C   LIG d   1      -7.054  90.900 115.523  0.00  0.00     0.382 C 
ATOM     23  O   LIG d   1      -7.262  91.456 114.418  0.00  0.00    -0.241 OA
ATOM     24  O   LIG d   1      -7.661  89.850 115.805  0.00  0.00    -0.241 OA
ENDBRANCH   3  22
TORSDOF 7
ENDMDL
MODEL 2
REMARK VINA RESULT:      -5.2      2.312      4.784
REMARK  7 active torsions:
REMARK  status: ('A' for Active; 'I' for Inactive)
REMARK    1  A    between atoms: C_2  and  C_3 
REMARK    2  A    between atoms: C_3  and  O_6 
REMARK    3  A    between atoms: C_3  and  C_4 
REMARK    4  A    between atoms: C_7  and  O_6 
REMARK    5  A    between atoms: C_9  and  C_10 
REMARK    6  A    between atoms: N_15  and  C_14 
REMARK    7  A    between atoms: N_20  and  C_19 
REMARK       I    between atoms: C_22  and  N_20 
ROOT
ATOM      1  C   LIG d   1      -4.057  91.537 117.473  0.00  0.00     0.161 C 
ATOM      2  C   LIG d   1      -4.893  90.982 116.489  0.00  0.00     0.016 C 
ATOM      3  C   LIG d   1      -6.141  91.537 116.126  0.00  0.00     0.038 C 
ATOM      4  C   LIG d   1      -6.574  92.777 116.619  0.00  0.00     0.028 C 
ATOM      5  C   LIG d   1      -5.997  93.118 117.989  0.00  0.00    -0.047 C 
ATOM      6  C   LIG d   1      -4.461  92.950 117.943  0.00  0.00     0.091 C 
ENDROOT
BRANCH   1   7
ATOM      7  O   LIG d   1      -2.691  91.533 117.014  0.00  0.00    -0.368 OA
BRANCH   7   8
ATOM      8  C   LIG d   1      -1.728  90.892 117.885  0.00  0.00     0.119 C 
BRANCH   8   9
ATOM      9  C   LIG d   1      -0.482  90.567 117.038  0.00  0.00     0.028 C 
ATOM     10  C   LIG d   1       0.102  89.181 117.361  0.00  0.00     0.006 C 
ENDBRANCH   8   9
BRANCH   8  11
ATOM     11  C   LIG d   1      -2.242  89.539 118.385  0.00  0.00     0.028 C 
ATOM     12  C   LIG d   1      -2.502  89.523 119.900  0.00  0.00     0.006 C 
ENDBRANCH   8  11
ENDBRANCH   7   8
ENDBRANCH   1   7
BRANCH   6  13
ATOM     13  N   LIG d   1      -3.826  93.183 119.266  0.00  0.00    -0.311 N 
ATOM     14  C   LIG d   1      -2.878  94.095 119.474  0.00  0.00     0.210 C 
ATOM     15  C   LIG d   1      -2.343  94.157 120.908  0.00  0.00     0.109 C 
ATOM     16  O   LIG d   1      -2.451  94.880 118.614  0.00  0.00    -0.276 OA
ATOM     17  H   LIG d   1      -4.135  92.611 120.028  0.00  0.00     0.149 HD
ENDBRANCH   6  13
BRANCH   5  18
ATOM     18  N   LIG d   1      -6.419  94.492 118.320  0.00  0.00     0.381 N 
ATOM     19  H   LIG d   1      -7.385  94.615 118.091  0.00  0.00    -0.090 HD
ATOM     20  H   LIG d   1      -5.880  95.139 117.772  0.00  0.00    -0.090 HD
ATOM     21  H   LIG d   1      -6.276  94.668 119.290  0.00  0.00    -0.090 HD
ENDBRANCH   5  18
BRANCH   3  22
ATOM     22  C   LIG d   1      -6.990  90.829 115.289  0.00  0.00     0.382 C 
ATOM     23  O   LIG d   1      -7.024  91.091 114.062  0.00  0.00    -0.241 OA
ATOM     24  O   LIG d   1      -7.755  89.961 115.752  0.00  0.00    -0.241 OA
ENDBRANCH   3  22
TORSDOF 7
ENDMDL
MODEL 3
REMARK VINA RESULT:      -5.1      2.222      4.597
REMARK  7 active torsions:
REMARK  status: ('A' for Active; 'I' for Inactive)
REMARK    1  A    between atoms: C_2  and  C_3 
REMARK    2  A    between atoms: C_3  and  O_6 
REMARK    3  A    between atoms: C_3  and  C_4 
REMARK    4  A    between atoms: C_7  and  O_6 
REMARK    5  A    between atoms: C_9  and  C_10 
REMARK    6  A    between atoms: N_15  and  C_14 
REMARK    7  A    between atoms: N_20  and  C_19 
REMARK       I    between atoms: C_22  and  N_20 
ROOT
ATOM      1  C   LIG d   1      -3.807  92.044 117.579  0.00  0.00     0.161 C 
ATOM      2  C   LIG d   1      -4.558  91.277 116.672  0.00  0.00     0.016 C 
ATOM      3  C   LIG d   1      -5.912  91.541 116.365  0.00  0.00     0.038 C 
ATOM      4  C   LIG d   1      -6.569  92.689 116.833  0.00  0.00     0.028 C 
ATOM      5  C   LIG d   1      -6.006  93.214 118.150  0.00  0.00    -0.047 C 
ATOM      6  C   LIG d   1      -4.474  93.366 118.015  0.00  0.00     0.091 C 
ENDROOT
BRANCH   1   7
ATOM      7  O   LIG d   1      -2.497  92.299 117.036  0.00  0.00    -0.368 OA
BRANCH   7   8
ATOM      8  C   LIG d   1      -1.376  91.915 117.869  0.00  0.00     0.119 C 
BRANCH   8   9
ATOM      9  C   LIG d   1      -0.546  93.184 118.144  0.00  0.00     0.028 C 
ATOM     10  C   LIG d   1      -0.817  94.295 117.116  0.00  0.00     0.006 C 
ENDBRANCH   8   9
BRANCH   8  11
ATOM     11  C   LIG d   1      -0.430  90.965 117.128  0.00  0.00     0.028 C 
ATOM     12  C   LIG d   1      -0.623  89.495 117.533  0.00  0.00     0.006 C 
ENDBRANCH   8  11
ENDBRANCH   7   8
ENDBRANCH   1   7
BRANCH   6  13
ATOM     13  N   LIG d   1      -3.833  93.795 119.285  0.00  0.00    -0.311 N 
ATOM     14  C   LIG d   1      -3.510  95.059 119.553  0.00  0.00     0.210 C 
ATOM     15  C   LIG d   1      -2.840  95.281 120.913  0.00  0.00     0.109 C 
ATOM     16  O   LIG d   1      -3.746  96.022 118.808  0.00  0.00    -0.276 OA
ATOM     17  H   LIG d   1      -3.635  93.082 119.960  0.00  0.00     0.149 HD
ENDBRANCH   6  13
BRANCH   5  18
ATOM     18  N   LIG d   1      -6.689  94.487 118.450  0.00  0.00     0.381 N 
ATOM     19  H   LIG d   1      -6.017  95.175 118.725  0.00  0.00    -0.090 HD
ATOM     20  H   LIG d   1      -7.323  94.342 119.216  0.00  0.00    -0.090 HD
ATOM     21  H   LIG d   1      -7.190  94.802 117.649  0.00  0.00    -0.090 HD
ENDBRANCH   5  18
BRANCH   3  22
ATOM     22  C   LIG d   1      -6.636  90.629 115.612  0.00  0.00     0.382 C 
ATOM     23  O   LIG d   1      -6.138  90.140 114.570  0.00  0.00    -0.241 OA
ATOM     24  O   LIG d   1      -7.799  90.323 115.938  0.00  0.00    -0.241 OA
ENDBRANCH   3  22
TORSDOF 7
ENDMDL
MODEL 4
REMARK VINA RESULT:      -4.9      2.664      6.478
REMARK  7 active torsions:
REMARK  status: ('A' for Active; 'I' for Inactive)
REMARK    1  A    between atoms: C_2  and  C_3 
REMARK    2  A    between atoms: C_3  and  O_6 
REMARK    3  A    between atoms: C_3  and  C_4 
REMARK    4  A    between atoms: C_7  and  O_6 
REMARK    5  A    between atoms: C_9  and  C_10 
REMARK    6  A    between atoms: N_15  and  C_14 
REMARK    7  A    between atoms: N_20  and  C_19 
REMARK       I    between atoms: C_22  and  N_20 
ROOT
ATOM      1  C   LIG d   1      -3.791  92.195 117.242  0.00  0.00     0.161 C 
ATOM      2  C   LIG d   1      -3.244  92.883 118.338  0.00  0.00     0.016 C 
ATOM      3  C   LIG d   1      -4.018  93.640 119.247  0.00  0.00     0.038 C 
ATOM      4  C   LIG d   1      -5.421  93.638 119.208  0.00  0.00     0.028 C 
ATOM      5  C   LIG d   1      -5.988  93.368 117.818  0.00  0.00    -0.047 C 
ATOM      6  C   LIG d   1      -5.331  92.090 117.248  0.00  0.00     0.091 C 
ENDROOT
BRANCH   1   7
ATOM      7  O   LIG d   1      -3.200  90.885 117.142  0.00  0.00    -0.368 OA
BRANCH   7   8
ATOM      8  C   LIG d   1      -2.286  90.515 118.205  0.00  0.00     0.119 C 
BRANCH   8   9
ATOM      9  C   LIG d   1      -1.077  89.817 117.553  0.00  0.00     0.028 C 
ATOM     10  C   LIG d   1      -0.133  90.810 116.854  0.00  0.00     0.006 C 
ENDBRANCH   8   9
BRANCH   8  11
ATOM     11  C   LIG d   1      -2.907  89.468 119.134  0.00  0.00     0.028 C 
ATOM     12  C   LIG d   1      -1.897  88.402 119.588  0.00  0.00     0.006 C 
ENDBRANCH   8  11
ENDBRANCH   7   8
ENDBRANCH   1   7
BRANCH   6  13
ATOM     13  N   LIG d   1      -5.767  91.800 115.857  0.00  0.00    -0.311 N 
ATOM     14  C   LIG d   1      -6.791  91.001 115.561  0.00  0.00     0.210 C 
ATOM     15  C   LIG d   1      -7.060  90.823 114.063  0.00  0.00     0.109 C 
ATOM     16  O   LIG d   1      -7.522  90.449 116.397  0.00  0.00    -0.276 OA
ATOM     17  H   LIG d   1      -5.249  92.232 115.117  0.00  0.00     0.149 HD
ENDBRANCH   6  13
BRANCH   5  18
ATOM     18  N   LIG d   1      -7.453  93.256 117.948  0.00  0.00     0.381 N 
ATOM     19  H   LIG d   1      -7.680  92.543 118.612  0.00  0.00    -0.090 HD
ATOM     20  H   LIG d   1      -7.839  92.993 117.058  0.00  0.00    -0.090 HD
ATOM     21  H   LIG d   1      -7.836  94.127 118.241  0.00  0.00    -0.090 HD
ENDBRANCH   5  18
BRANCH   3  22
ATOM     22  C   LIG d   1      -3.387  94.444 120.184  0.00  0.00     0.382 C 
ATOM     23  O   LIG d   1      -3.783  95.620 120.369  0.00  0.00    -0.241 OA
ATOM     24  O   LIG d   1      -2.399  94.022 120.815  0.00  0.00    -0.241 OA
ENDBRANCH   3  22
TORSDOF 7
ENDMDL
MODEL 5
REMARK VINA RESULT:      -4.8      3.107      5.336
REMARK  7 active torsions:
REMARK  status: ('A' for Active; 'I' for Inactive)
REMARK    1  A    between atoms: C_2  and  C_3 
REMARK    2  A    between atoms: C_3  and  O_6 
REMARK    3  A    between atoms: C_3  and  C_4 
REMARK    4  A    between atoms: C_7  and  O_6 
REMARK    5  A    between atoms: C_9  and  C_10 
REMARK    6  A    between atoms: N_15  and  C_14 
REMARK    7  A    between atoms: N_20  and  C_19 
REMARK       I    between atoms: C_22  and  N_20 
ROOT
ATOM      1  C   LIG d   1      -3.448  91.657 118.038  0.00  0.00     0.161 C 
ATOM      2  C   LIG d   1      -2.985  92.833 117.425  0.00  0.00     0.016 C 
ATOM      3  C   LIG d   1      -1.657  93.303 117.545  0.00  0.00     0.038 C 
ATOM      4  C   LIG d   1      -0.655  92.544 118.168  0.00  0.00     0.028 C 
ATOM      5  C   LIG d   1      -1.190  91.593 119.234  0.00  0.00    -0.047 C 
ATOM      6  C   LIG d   1      -2.342  90.758 118.629  0.00  0.00     0.091 C 
ENDROOT
BRANCH   1   7
ATOM      7  O   LIG d   1      -4.259  90.909 117.111  0.00  0.00    -0.368 OA
BRANCH   7   8
ATOM      8  C   LIG d   1      -5.236  91.672 116.360  0.00  0.00     0.119 C 
BRANCH   8   9
ATOM      9  C   LIG d   1      -6.459  91.884 117.274  0.00  0.00     0.028 C 
ATOM     10  C   LIG d   1      -6.735  93.372 117.549  0.00  0.00     0.006 C 
ENDBRANCH   8   9
BRANCH   8  11
ATOM     11  C   LIG d   1      -5.760  90.878 115.160  0.00  0.00     0.028 C 
ATOM     12  C   LIG d   1      -7.235  90.471 115.312  0.00  0.00     0.006 C 
ENDBRANCH   8  11
ENDBRANCH   7   8
ENDBRANCH   1   7
BRANCH   6  13
ATOM     13  N   LIG d   1      -2.978  89.861 119.629  0.00  0.00    -0.311 N 
ATOM     14  C   LIG d   1      -2.557  88.621 119.875  0.00  0.00     0.210 C 
ATOM     15  C   LIG d   1      -3.367  87.861 120.930  0.00  0.00     0.109 C 
ATOM     16  O   LIG d   1      -1.571  88.090 119.342  0.00  0.00    -0.276 OA
ATOM     17  H   LIG d   1      -3.766  90.223 120.130  0.00  0.00     0.149 HD
ENDBRANCH   6  13
BRANCH   5  18
ATOM     18  N   LIG d   1      -0.061  90.768 119.703  0.00  0.00     0.381 N 
ATOM     19  H   LIG d   1       0.800  91.147 119.362  0.00  0.00    -0.090 HD
ATOM     20  H   LIG d   1      -0.164  89.838 119.335  0.00  0.00    -0.090 HD
ATOM     21  H   LIG d   1      -0.050  90.739 120.698  0.00  0.00    -0.090 HD
ENDBRANCH   5  18
BRANCH   3  22
ATOM     22  C   LIG d   1      -1.329  94.565 117.074  0.00  0.00     0.382 C 
ATOM     23  O   LIG d   1      -0.489  94.691 116.150  0.00  0.00    -0.241 OA
ATOM     24  O   LIG d   1      -1.830  95.582 117.590  0.00  0.00    -0.241 OA
ENDBRANCH   3  22
TORSDOF 7
ENDMDL
MODEL 6
REMARK VINA RESULT:      -4.7      2.380      4.570
REMARK  7 active torsions:
REMARK  status: ('A' for Active; 'I' for Inactive)
REMARK    1  A    between atoms: C_2  and  C_3 
REMARK    2  A    between atoms: C_3  and  O_6 
REMARK    3  A    between atoms: C_3  and  C_4 
REMARK    4  A    between atoms: C_7  and  O_6 
REMARK    5  A    between atoms: C_9  and  C_10 
REMARK    6  A    between atoms: N_15  and  C_14 
REMARK    7  A    between atoms: N_20  and  C_19 
REMARK       I    between atoms: C_22  and  N_20 
ROOT
ATOM      1  C   LIG d   1      -3.511  92.561 117.503  0.00  0.00     0.161 C 
ATOM      2  C   LIG d   1      -2.681  91.470 117.195  0.00  0.00     0.016 C 
ATOM      3  C   LIG d   1      -1.390  91.295 117.743  0.00  0.00     0.038 C 
ATOM      4  C   LIG d   1      -0.897  92.126 118.760  0.00  0.00     0.028 C 
ATOM      5  C   LIG d   1      -1.494  93.529 118.738  0.00  0.00    -0.047 C 
ATOM      6  C   LIG d   1      -3.035  93.418 118.694  0.00  0.00     0.091 C 
ENDROOT
BRANCH   1   7
ATOM      7  O   LIG d   1      -4.860  92.102 117.722  0.00  0.00    -0.368 OA
BRANCH   7   8
ATOM      8  C   LIG d   1      -5.827  92.454 116.702  0.00  0.00     0.119 C 
BRANCH   8   9
ATOM      9  C   LIG d   1      -6.856  93.402 117.348  0.00  0.00     0.028 C 
ATOM     10  C   LIG d   1      -6.992  93.177 118.863  0.00  0.00     0.006 C 
ENDBRANCH   8   9
BRANCH   8  11
ATOM     11  C   LIG d   1      -6.629  91.231 116.250  0.00  0.00     0.028 C 
ATOM     12  C   LIG d   1      -6.136  90.657 114.912  0.00  0.00     0.006 C 
ENDBRANCH   8  11
ENDBRANCH   7   8
ENDBRANCH   1   7
BRANCH   6  13
ATOM     13  N   LIG d   1      -3.696  94.745 118.586  0.00  0.00    -0.311 N 
ATOM     14  C   LIG d   1      -4.159  95.422 119.636  0.00  0.00     0.210 C 
ATOM     15  C   LIG d   1      -4.823  96.761 119.300  0.00  0.00     0.109 C 
ATOM     16  O   LIG d   1      -4.053  95.055 120.816  0.00  0.00    -0.276 OA
ATOM     17  H   LIG d   1      -3.796  95.131 117.667  0.00  0.00     0.149 HD
ENDBRANCH   6  13
BRANCH   5  18
ATOM     18  N   LIG d   1      -0.999  94.243 119.930  0.00  0.00     0.381 N 
ATOM     19  H   LIG d   1      -0.640  93.586 120.593  0.00  0.00    -0.090 HD
ATOM     20  H   LIG d   1      -1.765  94.735 120.355  0.00  0.00    -0.090 HD
ATOM     21  H   LIG d   1      -0.285  94.887 119.669  0.00  0.00    -0.090 HD
ENDBRANCH   5  18
BRANCH   3  22
ATOM     22  C   LIG d   1      -0.561  90.302 117.245  0.00  0.00     0.382 C 
ATOM     23  O   LIG d   1       0.169  90.534 116.251  0.00  0.00    -0.241 OA
ATOM     24  O   LIG d   1      -0.566  89.162 117.748  0.00  0.00    -0.241 OA
ENDBRANCH   3  22
TORSDOF 7
ENDMDL
MODEL 7
REMARK VINA RESULT:      -4.7      2.782      4.971
REMARK  7 active torsions:
REMARK  status: ('A' for Active; 'I' for Inactive)
REMARK    1  A    between atoms: C_2  and  C_3 
REMARK    2  A    between atoms: C_3  and  O_6 
REMARK    3  A    between atoms: C_3  and  C_4 
REMARK    4  A    between atoms: C_7  and  O_6 
REMARK    5  A    between atoms: C_9  and  C_10 
REMARK    6  A    between atoms: N_15  and  C_14 
REMARK    7  A    between atoms: N_20  and  C_19 
REMARK       I    between atoms: C_22  and  N_20 
ROOT
ATOM      1  C   LIG d   1      -2.795  93.304 119.309  0.00  0.00     0.161 C 
ATOM      2  C   LIG d   1      -2.654  94.642 118.904  0.00  0.00     0.016 C 
ATOM      3  C   LIG d   1      -1.802  95.051 117.853  0.00  0.00     0.038 C 
ATOM      4  C   LIG d   1      -1.143  94.126 117.030  0.00  0.00     0.028 C 
ATOM      5  C   LIG d   1      -0.859  92.796 117.720  0.00  0.00    -0.047 C 
ATOM      6  C   LIG d   1      -2.168  92.269 118.351  0.00  0.00     0.091 C 
ENDROOT
BRANCH   1   7
ATOM      7  O   LIG d   1      -4.187  93.004 119.530  0.00  0.00    -0.368 OA
BRANCH   7   8
ATOM      8  C   LIG d   1      -5.104  93.437 118.496  0.00  0.00     0.119 C 
BRANCH   8   9
ATOM      9  C   LIG d   1      -6.235  94.228 119.182  0.00  0.00     0.028 C 
ATOM     10  C   LIG d   1      -7.273  94.757 118.178  0.00  0.00     0.006 C 
ENDBRANCH   8   9
BRANCH   8  11
ATOM     11  C   LIG d   1      -5.792  92.245 117.825  0.00  0.00     0.028 C 
ATOM     12  C   LIG d   1      -5.350  92.045 116.367  0.00  0.00     0.006 C 
ENDBRANCH   8  11
ENDBRANCH   7   8
ENDBRANCH   1   7
BRANCH   6  13
ATOM     13  N   LIG d   1      -1.962  91.013 119.119  0.00  0.00    -0.311 N 
ATOM     14  C   LIG d   1      -2.584  89.870 118.834  0.00  0.00     0.210 C 
ATOM     15  C   LIG d   1      -2.243  88.700 119.763  0.00  0.00     0.109 C 
ATOM     16  O   LIG d   1      -3.361  89.705 117.882  0.00  0.00    -0.276 OA
ATOM     17  H   LIG d   1      -1.324  91.049 119.890  0.00  0.00     0.149 HD
ENDBRANCH   6  13
BRANCH   5  18
ATOM     18  N   LIG d   1      -0.295  91.881 116.710  0.00  0.00     0.381 N 
ATOM     19  H   LIG d   1       0.704  91.904 116.752  0.00  0.00    -0.090 HD
ATOM     20  H   LIG d   1      -0.579  92.190 115.797  0.00  0.00    -0.090 HD
ATOM     21  H   LIG d   1      -0.621  90.953 116.871  0.00  0.00    -0.090 HD
ENDBRANCH   5  18
BRANCH   3  22
ATOM     22  C   LIG d   1      -1.572  96.402 117.641  0.00  0.00     0.382 C 
ATOM     23  O   LIG d   1      -0.463  96.788 117.200  0.00  0.00    -0.241 OA
ATOM     24  O   LIG d   1      -2.444  97.244 117.928  0.00  0.00    -0.241 OA
ENDBRANCH   3  22
TORSDOF 7
ENDMDL
MODEL 8
REMARK VINA RESULT:      -4.6      1.977      4.546
REMARK  7 active torsions:
REMARK  status: ('A' for Active; 'I' for Inactive)
REMARK    1  A    between atoms: C_2  and  C_3 
REMARK    2  A    between atoms: C_3  and  O_6 
REMARK    3  A    between atoms: C_3  and  C_4 
REMARK    4  A    between atoms: C_7  and  O_6 
REMARK    5  A    between atoms: C_9  and  C_10 
REMARK    6  A    between atoms: N_15  and  C_14 
REMARK    7  A    between atoms: N_20  and  C_19 
REMARK       I    between atoms: C_22  and  N_20 
ROOT
ATOM      1  C   LIG d   1      -5.816  93.174 119.304  0.00  0.00     0.161 C 
ATOM      2  C   LIG d   1      -7.169  93.512 119.133  0.00  0.00     0.016 C 
ATOM      3  C   LIG d   1      -7.620  94.836 118.927  0.00  0.00     0.038 C 
ATOM      4  C   LIG d   1      -6.729  95.900 118.728  0.00  0.00     0.028 C 
ATOM      5  C   LIG d   1      -5.374  95.689 119.395  0.00  0.00    -0.047 C 
ATOM      6  C   LIG d   1      -4.820  94.306 118.979  0.00  0.00     0.091 C 
ENDROOT
BRANCH   1   7
ATOM      7  O   LIG d   1      -5.505  91.996 118.534  0.00  0.00    -0.368 OA
BRANCH   7   8
ATOM      8  C   LIG d   1      -5.123  92.220 117.154  0.00  0.00     0.119 C 
BRANCH   8   9
ATOM      9  C   LIG d   1      -6.287  91.736 116.267  0.00  0.00     0.028 C 
ATOM     10  C   LIG d   1      -5.825  90.757 115.175  0.00  0.00     0.006 C 
ENDBRANCH   8   9
BRANCH   8  11
ATOM     11  C   LIG d   1      -3.925  91.352 116.760  0.00  0.00     0.028 C 
ATOM     12  C   LIG d   1      -3.277  90.648 117.963  0.00  0.00     0.006 C 
ENDBRANCH   8  11
ENDBRANCH   7   8
ENDBRANCH   1   7
BRANCH   6  13
ATOM     13  N   LIG d   1      -3.536  93.984 119.654  0.00  0.00    -0.311 N 
ATOM     14  C   LIG d   1      -2.346  94.139 119.077  0.00  0.00     0.210 C 
ATOM     15  C   LIG d   1      -1.150  93.727 119.941  0.00  0.00     0.109 C 
ATOM     16  O   LIG d   1      -2.165  94.608 117.943  0.00  0.00    -0.276 OA
ATOM     17  H   LIG d   1      -3.589  93.626 120.587  0.00  0.00     0.149 HD
ENDBRANCH   6  13
BRANCH   5  18
ATOM     18  N   LIG d   1      -4.499  96.806 118.992  0.00  0.00     0.381 N 
ATOM     19  H   LIG d   1      -5.002  97.431 118.394  0.00  0.00    -0.090 HD
ATOM     20  H   LIG d   1      -3.718  96.439 118.478  0.00  0.00    -0.090 HD
ATOM     21  H   LIG d   1      -4.176  97.294 119.798  0.00  0.00    -0.090 HD
ENDBRANCH   5  18
BRANCH   3  22
ATOM     22  C   LIG d   1      -8.979  95.112 118.960  0.00  0.00     0.382 C 
ATOM     23  O   LIG d   1      -9.744  94.413 119.667  0.00  0.00    -0.241 OA
ATOM     24  O   LIG d   1      -9.455  96.023 118.257  0.00  0.00    -0.241 OA
ENDBRANCH   3  22
TORSDOF 7
ENDMDL
MODEL 9
REMARK VINA RESULT:      -4.3      2.885      5.324
REMARK  7 active torsions:
REMARK  status: ('A' for Active; 'I' for Inactive)
REMARK    1  A    between atoms: C_2  and  C_3 
REMARK    2  A    between atoms: C_3  and  O_6 
REMARK    3  A    between atoms: C_3  and  C_4 
REMARK    4  A    between atoms: C_7  and  O_6 
REMARK    5  A    between atoms: C_9  and  C_10 
REMARK    6  A    between atoms: N_15  and  C_14 
REMARK    7  A    between atoms: N_20  and  C_19 
REMARK       I    between atoms: C_22  and  N_20 
ROOT
ATOM      1  C   LIG d   1      -2.928  91.203 117.678  0.00  0.00     0.161 C 
ATOM      2  C   LIG d   1      -3.924  90.709 116.820  0.00  0.00     0.016 C 
ATOM      3  C   LIG d   1      -5.143  91.382 116.574  0.00  0.00     0.038 C 
ATOM      4  C   LIG d   1      -5.385  92.677 117.056  0.00  0.00     0.028 C 
ATOM      5  C   LIG d   1      -4.621  93.000 118.336  0.00  0.00    -0.047 C 
ATOM      6  C   LIG d   1      -3.127  92.666 118.125  0.00  0.00     0.091 C 
ENDROOT
BRANCH   1   7
ATOM      7  O   LIG d   1      -1.632  91.037 117.068  0.00  0.00    -0.368 OA
BRANCH   7   8
ATOM      8  C   LIG d   1      -0.892  89.854 117.457  0.00  0.00     0.119 C 
BRANCH   8   9
ATOM      9  C   LIG d   1      -1.322  89.488 118.890  0.00  0.00     0.028 C 
ATOM     10  C   LIG d   1      -0.711  88.159 119.366  0.00  0.00     0.006 C 
ENDBRANCH   8   9
BRANCH   8  11
ATOM     11  C   LIG d   1       0.610  90.140 117.545  0.00  0.00     0.028 C 
ATOM     12  C   LIG d   1       1.416  89.436 116.441  0.00  0.00     0.006 C 
ENDBRANCH   8  11
ENDBRANCH   7   8
ENDBRANCH   1   7
BRANCH   6  13
ATOM     13  N   LIG d   1      -2.321  92.873 119.357  0.00  0.00    -0.311 N 
ATOM     14  C   LIG d   1      -1.615  93.978 119.594  0.00  0.00     0.210 C 
ATOM     15  C   LIG d   1      -0.840  93.978 120.915  0.00  0.00     0.109 C 
ATOM     16  O   LIG d   1      -1.584  94.971 118.851  0.00  0.00    -0.276 OA
ATOM     17  H   LIG d   1      -2.315  92.131 120.028  0.00  0.00     0.149 HD
ENDBRANCH   6  13
BRANCH   5  18
ATOM     18  N   LIG d   1      -4.858  94.422 118.650  0.00  0.00     0.381 N 
ATOM     19  H   LIG d   1      -5.593  94.502 119.323  0.00  0.00    -0.090 HD
ATOM     20  H   LIG d   1      -5.144  94.896 117.812  0.00  0.00    -0.090 HD
ATOM     21  H   LIG d   1      -4.024  94.835 119.006  0.00  0.00    -0.090 HD
ENDBRANCH   5  18
BRANCH   3  22
ATOM     22  C   LIG d   1      -6.152  90.742 115.871  0.00  0.00     0.382 C 
ATOM     23  O   LIG d   1      -7.343  90.837 116.256  0.00  0.00    -0.241 OA
ATOM     24  O   LIG d   1      -5.882  90.033 114.883  0.00  0.00    -0.241 OA
ENDBRANCH   3  22
TORSDOF 7
ENDMDL
