MODEL 1
REMARK VINA RESULT:      -5.6      0.000      0.000
REMARK  7 active torsions:
REMARK  status: ('A' for Active; 'I' for Inactive)
REMARK    1  A    between atoms: C_2  and  C_3 
REMARK    2  A    between atoms: C_3  and  O_6 
REMARK    3  A    between atoms: C_3  and  C_4 
REMARK    4  A    between atoms: C_7  and  O_6 
REMARK    5  A    between atoms: C_9  and  C_10 
REMARK    6  A    between atoms: N_15  and  C_14 
REMARK    7  A    between atoms: N_20  and  C_19 
REMARK       I    between atoms: C_22  and  N_20 
ROOT
ATOM      1  C   LIG d   1      -5.935  92.715 117.592  0.00  0.00     0.161 C 
ATOM      2  C   LIG d   1      -7.111  93.481 117.544  0.00  0.00     0.016 C 
ATOM      3  C   LIG d   1      -7.320  94.635 118.334  0.00  0.00     0.038 C 
ATOM      4  C   LIG d   1      -6.300  95.191 119.120  0.00  0.00     0.028 C 
ATOM      5  C   LIG d   1      -5.269  94.168 119.585  0.00  0.00    -0.047 C 
ATOM      6  C   LIG d   1      -4.768  93.368 118.361  0.00  0.00     0.091 C 
ENDROOT
BRANCH   1   7
ATOM      7  O   LIG d   1      -5.522  92.369 116.255  0.00  0.00    -0.368 OA
BRANCH   7   8
ATOM      8  C   LIG d   1      -5.572  90.961 115.917  0.00  0.00     0.119 C 
BRANCH   8   9
ATOM      9  C   LIG d   1      -6.431  90.819 114.646  0.00  0.00     0.028 C 
ATOM     10  C   LIG d   1      -6.829  92.181 114.052  0.00  0.00     0.006 C 
ENDBRANCH   8   9
BRANCH   8  11
ATOM     11  C   LIG d   1      -6.304  90.155 116.994  0.00  0.00     0.028 C 
ATOM     12  C   LIG d   1      -7.536  89.414 116.449  0.00  0.00     0.006 C 
ENDBRANCH   8  11
ENDBRANCH   7   8
ENDBRANCH   1   7
BRANCH   6  13
ATOM     13  N   LIG d   1      -3.818  92.289 118.739  0.00  0.00    -0.311 N 
ATOM     14  C   LIG d   1      -2.555  92.245 118.320  0.00  0.00     0.210 C 
ATOM     15  C   LIG d   1      -1.753  91.035 118.811  0.00  0.00     0.109 C 
ATOM     16  O   LIG d   1      -2.013  93.108 117.614  0.00  0.00    -0.276 OA
ATOM     17  H   LIG d   1      -4.166  91.564 119.335  0.00  0.00     0.149 HD
ENDBRANCH   6  13
BRANCH   5  18
ATOM     18  N   LIG d   1      -4.192  94.903 120.275  0.00  0.00     0.381 N 
ATOM     19  H   LIG d   1      -4.581  95.468 121.004  0.00  0.00    -0.090 HD
ATOM     20  H   LIG d   1      -3.737  95.510 119.616  0.00  0.00    -0.090 HD
ATOM     21  H   LIG d   1      -3.532  94.262 120.658  0.00  0.00    -0.090 HD
ENDBRANCH   5  18
BRANCH   3  22
ATOM     22  C   LIG d   1      -8.575  95.223 118.372  0.00  0.00     0.382 C 
ATOM     23  O   LIG d   1      -8.718  96.420 118.023  0.00  0.00    -0.241 OA
ATOM     24  O   LIG d   1      -9.559  94.586 118.794  0.00  0.00    -0.241 OA
ENDBRANCH   3  22
TORSDOF 7
ENDMDL
MODEL 2
REMARK VINA RESULT:      -5.5      2.396      5.846
REMARK  7 active torsions:
REMARK  status: ('A' for Active; 'I' for Inactive)
REMARK    1  A    between atoms: C_2  and  C_3 
REMARK    2  A    between atoms: C_3  and  O_6 
REMARK    3  A    between atoms: C_3  and  C_4 
REMARK    4  A    between atoms: C_7  and  O_6 
REMARK    5  A    between atoms: C_9  and  C_10 
REMARK    6  A    between atoms: N_15  and  C_14 
REMARK    7  A    between atoms: N_20  and  C_19 
REMARK       I    between atoms: C_22  and  N_20 
ROOT
ATOM      1  C   LIG d   1      -5.397  91.222 118.021  0.00  0.00     0.161 C 
ATOM      2  C   LIG d   1      -4.975  90.234 117.115  0.00  0.00     0.016 C 
ATOM      3  C   LIG d   1      -5.454  90.139 115.789  0.00  0.00     0.038 C 
ATOM      4  C   LIG d   1      -6.281  91.122 115.227  0.00  0.00     0.028 C 
ATOM      5  C   LIG d   1      -7.131  91.860 116.256  0.00  0.00    -0.047 C 
ATOM      6  C   LIG d   1      -6.214  92.369 117.392  0.00  0.00     0.091 C 
ENDROOT
BRANCH   1   7
ATOM      7  O   LIG d   1      -4.260  91.749 118.734  0.00  0.00    -0.368 OA
BRANCH   7   8
ATOM      8  C   LIG d   1      -3.361  92.588 117.968  0.00  0.00     0.119 C 
BRANCH   8   9
ATOM      9  C   LIG d   1      -1.967  91.932 118.012  0.00  0.00     0.028 C 
ATOM     10  C   LIG d   1      -1.841  90.895 119.140  0.00  0.00     0.006 C 
ENDBRANCH   8   9
BRANCH   8  11
ATOM     11  C   LIG d   1      -3.184  93.960 118.626  0.00  0.00     0.028 C 
ATOM     12  C   LIG d   1      -1.879  94.657 118.208  0.00  0.00     0.006 C 
ENDBRANCH   8  11
ENDBRANCH   7   8
ENDBRANCH   1   7
BRANCH   6  13
ATOM     13  N   LIG d   1      -6.977  93.029 118.483  0.00  0.00    -0.311 N 
ATOM     14  C   LIG d   1      -7.295  94.323 118.477  0.00  0.00     0.210 C 
ATOM     15  C   LIG d   1      -8.067  94.804 119.710  0.00  0.00     0.109 C 
ATOM     16  O   LIG d   1      -7.038  95.110 117.554  0.00  0.00    -0.276 OA
ATOM     17  H   LIG d   1      -7.252  92.457 119.258  0.00  0.00     0.149 HD
ENDBRANCH   6  13
BRANCH   5  18
ATOM     18  N   LIG d   1      -7.840  92.946 115.554  0.00  0.00     0.381 N 
ATOM     19  H   LIG d   1      -8.104  92.641 114.638  0.00  0.00    -0.090 HD
ATOM     20  H   LIG d   1      -7.219  93.730 115.458  0.00  0.00    -0.090 HD
ATOM     21  H   LIG d   1      -8.649  93.214 116.069  0.00  0.00    -0.090 HD
ENDBRANCH   5  18
BRANCH   3  22
ATOM     22  C   LIG d   1      -5.138  89.027 115.022  0.00  0.00     0.382 C 
ATOM     23  O   LIG d   1      -5.706  88.845 113.919  0.00  0.00    -0.241 OA
ATOM     24  O   LIG d   1      -4.323  88.183 115.440  0.00  0.00    -0.241 OA
ENDBRANCH   3  22
TORSDOF 7
ENDMDL
MODEL 3
REMARK VINA RESULT:      -5.5      2.020      4.963
REMARK  7 active torsions:
REMARK  status: ('A' for Active; 'I' for Inactive)
REMARK    1  A    between atoms: C_2  and  C_3 
REMARK    2  A    between atoms: C_3  and  O_6 
REMARK    3  A    between atoms: C_3  and  C_4 
REMARK    4  A    between atoms: C_7  and  O_6 
REMARK    5  A    between atoms: C_9  and  C_10 
REMARK    6  A    between atoms: N_15  and  C_14 
REMARK    7  A    between atoms: N_20  and  C_19 
REMARK       I    between atoms: C_22  and  N_20 
ROOT
ATOM      1  C   LIG d   1      -5.728  92.605 117.401  0.00  0.00     0.161 C 
ATOM      2  C   LIG d   1      -6.472  91.538 116.871  0.00  0.00     0.016 C 
ATOM      3  C   LIG d   1      -5.902  90.295 116.510  0.00  0.00     0.038 C 
ATOM      4  C   LIG d   1      -4.566  89.982 116.796  0.00  0.00     0.028 C 
ATOM      5  C   LIG d   1      -3.658  91.205 116.868  0.00  0.00    -0.047 C 
ATOM      6  C   LIG d   1      -4.289  92.243 117.824  0.00  0.00     0.091 C 
ENDROOT
BRANCH   1   7
ATOM      7  O   LIG d   1      -6.441  93.197 118.505  0.00  0.00    -0.368 OA
BRANCH   7   8
ATOM      8  C   LIG d   1      -6.744  94.609 118.384  0.00  0.00     0.119 C 
BRANCH   8   9
ATOM      9  C   LIG d   1      -6.648  95.225 119.793  0.00  0.00     0.028 C 
ATOM     10  C   LIG d   1      -5.325  95.977 120.016  0.00  0.00     0.006 C 
ENDBRANCH   8   9
BRANCH   8  11
ATOM     11  C   LIG d   1      -8.193  94.832 117.942  0.00  0.00     0.028 C 
ATOM     12  C   LIG d   1      -9.123  95.197 119.109  0.00  0.00     0.006 C 
ENDBRANCH   8  11
ENDBRANCH   7   8
ENDBRANCH   1   7
BRANCH   6  13
ATOM     13  N   LIG d   1      -3.507  93.505 117.886  0.00  0.00    -0.311 N 
ATOM     14  C   LIG d   1      -2.556  93.735 118.790  0.00  0.00     0.210 C 
ATOM     15  C   LIG d   1      -1.887  95.109 118.689  0.00  0.00     0.109 C 
ATOM     16  O   LIG d   1      -2.180  92.918 119.644  0.00  0.00    -0.276 OA
ATOM     17  H   LIG d   1      -3.725  94.210 117.210  0.00  0.00     0.149 HD
ENDBRANCH   6  13
BRANCH   5  18
ATOM     18  N   LIG d   1      -2.327  90.747 117.308  0.00  0.00     0.381 N 
ATOM     19  H   LIG d   1      -2.001  91.325 118.057  0.00  0.00    -0.090 HD
ATOM     20  H   LIG d   1      -1.684  90.832 116.541  0.00  0.00    -0.090 HD
ATOM     21  H   LIG d   1      -2.374  89.798 117.608  0.00  0.00    -0.090 HD
ENDBRANCH   5  18
BRANCH   3  22
ATOM     22  C   LIG d   1      -6.663  89.366 115.818  0.00  0.00     0.382 C 
ATOM     23  O   LIG d   1      -6.488  89.204 114.586  0.00  0.00    -0.241 OA
ATOM     24  O   LIG d   1      -7.554  88.718 116.401  0.00  0.00    -0.241 OA
ENDBRANCH   3  22
TORSDOF 7
ENDMDL
MODEL 4
REMARK VINA RESULT:      -5.3      2.900      4.986
REMARK  7 active torsions:
REMARK  status: ('A' for Active; 'I' for Inactive)
REMARK    1  A    between atoms: C_2  and  C_3 
REMARK    2  A    between atoms: C_3  and  O_6 
REMARK    3  A    between atoms: C_3  and  C_4 
REMARK    4  A    between atoms: C_7  and  O_6 
REMARK    5  A    between atoms: C_9  and  C_10 
REMARK    6  A    between atoms: N_15  and  C_14 
REMARK    7  A    between atoms: N_20  and  C_19 
REMARK       I    between atoms: C_22  and  N_20 
ROOT
ATOM      1  C   LIG d   1      -3.882  91.086 117.730  0.00  0.00     0.161 C 
ATOM      2  C   LIG d   1      -4.534  90.157 116.902  0.00  0.00     0.016 C 
ATOM      3  C   LIG d   1      -5.751  90.429 116.235  0.00  0.00     0.038 C 
ATOM      4  C   LIG d   1      -6.323  91.710 116.230  0.00  0.00     0.028 C 
ATOM      5  C   LIG d   1      -5.967  92.537 117.461  0.00  0.00    -0.047 C 
ATOM      6  C   LIG d   1      -4.433  92.525 117.648  0.00  0.00     0.091 C 
ENDROOT
BRANCH   1   7
ATOM      7  O   LIG d   1      -2.467  91.075 117.455  0.00  0.00    -0.368 OA
BRANCH   7   8
ATOM      8  C   LIG d   1      -1.628  90.448 118.457  0.00  0.00     0.119 C 
BRANCH   8   9
ATOM      9  C   LIG d   1      -1.261  89.044 117.940  0.00  0.00     0.028 C 
ATOM     10  C   LIG d   1      -2.051  87.932 118.652  0.00  0.00     0.006 C 
ENDBRANCH   8   9
BRANCH   8  11
ATOM     11  C   LIG d   1      -2.397  90.213 119.760  0.00  0.00     0.028 C 
ATOM     12  C   LIG d   1      -1.857  91.051 120.930  0.00  0.00     0.006 C 
ENDBRANCH   8  11
ENDBRANCH   7   8
ENDBRANCH   1   7
BRANCH   6  13
ATOM     13  N   LIG d   1      -4.005  93.241 118.878  0.00  0.00    -0.311 N 
ATOM     14  C   LIG d   1      -2.960  94.065 118.920  0.00  0.00     0.210 C 
ATOM     15  C   LIG d   1      -2.680  94.685 120.293  0.00  0.00     0.109 C 
ATOM     16  O   LIG d   1      -2.257  94.367 117.944  0.00  0.00    -0.276 OA
ATOM     17  H   LIG d   1      -4.539  93.079 119.709  0.00  0.00     0.149 HD
ENDBRANCH   6  13
BRANCH   5  18
ATOM     18  N   LIG d   1      -6.514  93.893 117.261  0.00  0.00     0.381 N 
ATOM     19  H   LIG d   1      -6.474  94.404 118.119  0.00  0.00    -0.090 HD
ATOM     20  H   LIG d   1      -7.477  93.817 116.983  0.00  0.00    -0.090 HD
ATOM     21  H   LIG d   1      -5.995  94.369 116.557  0.00  0.00    -0.090 HD
ENDBRANCH   5  18
BRANCH   3  22
ATOM     22  C   LIG d   1      -6.429  89.403 115.596  0.00  0.00     0.382 C 
ATOM     23  O   LIG d   1      -6.192  89.151 114.390  0.00  0.00    -0.241 OA
ATOM     24  O   LIG d   1      -7.306  88.754 116.197  0.00  0.00    -0.241 OA
ENDBRANCH   3  22
TORSDOF 7
ENDMDL
MODEL 5
REMARK VINA RESULT:      -5.2      2.380      4.237
REMARK  7 active torsions:
REMARK  status: ('A' for Active; 'I' for Inactive)
REMARK    1  A    between atoms: C_2  and  C_3 
REMARK    2  A    between atoms: C_3  and  O_6 
REMARK    3  A    between atoms: C_3  and  C_4 
REMARK    4  A    between atoms: C_7  and  O_6 
REMARK    5  A    between atoms: C_9  and  C_10 
REMARK    6  A    between atoms: N_15  and  C_14 
REMARK    7  A    between atoms: N_20  and  C_19 
REMARK       I    between atoms: C_22  and  N_20 
ROOT
ATOM      1  C   LIG d   1      -5.042  92.143 117.764  0.00  0.00     0.161 C 
ATOM      2  C   LIG d   1      -5.324  93.289 118.525  0.00  0.00     0.016 C 
ATOM      3  C   LIG d   1      -6.404  94.159 118.249  0.00  0.00     0.038 C 
ATOM      4  C   LIG d   1      -7.371  93.857 117.280  0.00  0.00     0.028 C 
ATOM      5  C   LIG d   1      -6.845  92.972 116.155  0.00  0.00    -0.047 C 
ATOM      6  C   LIG d   1      -6.151  91.736 116.771  0.00  0.00     0.091 C 
ENDROOT
BRANCH   1   7
ATOM      7  O   LIG d   1      -4.724  91.042 118.639  0.00  0.00    -0.368 OA
BRANCH   7   8
ATOM      8  C   LIG d   1      -3.341  90.612 118.646  0.00  0.00     0.119 C 
BRANCH   8   9
ATOM      9  C   LIG d   1      -2.553  91.571 117.732  0.00  0.00     0.028 C 
ATOM     10  C   LIG d   1      -1.339  92.193 118.442  0.00  0.00     0.006 C 
ENDBRANCH   8   9
BRANCH   8  11
ATOM     11  C   LIG d   1      -3.184  89.227 118.011  0.00  0.00     0.028 C 
ATOM     12  C   LIG d   1      -2.351  88.267 118.876  0.00  0.00     0.006 C 
ENDBRANCH   8  11
ENDBRANCH   7   8
ENDBRANCH   1   7
BRANCH   6  13
ATOM     13  N   LIG d   1      -5.534  90.860 115.741  0.00  0.00    -0.311 N 
ATOM     14  C   LIG d   1      -5.845  89.574 115.591  0.00  0.00     0.210 C 
ATOM     15  C   LIG d   1      -5.077  88.848 114.482  0.00  0.00     0.109 C 
ATOM     16  O   LIG d   1      -6.708  88.973 116.249  0.00  0.00    -0.276 OA
ATOM     17  H   LIG d   1      -4.846  91.274 115.143  0.00  0.00     0.149 HD
ENDBRANCH   6  13
BRANCH   5  18
ATOM     18  N   LIG d   1      -7.988  92.622 115.291  0.00  0.00     0.381 N 
ATOM     19  H   LIG d   1      -8.767  93.214 115.502  0.00  0.00    -0.090 HD
ATOM     20  H   LIG d   1      -8.256  91.671 115.475  0.00  0.00    -0.090 HD
ATOM     21  H   LIG d   1      -7.735  92.723 114.332  0.00  0.00    -0.090 HD
ENDBRANCH   5  18
BRANCH   3  22
ATOM     22  C   LIG d   1      -6.502  95.368 118.922  0.00  0.00     0.382 C 
ATOM     23  O   LIG d   1      -7.203  96.294 118.449  0.00  0.00    -0.241 OA
ATOM     24  O   LIG d   1      -5.862  95.559 119.974  0.00  0.00    -0.241 OA
ENDBRANCH   3  22
TORSDOF 7
ENDMDL
MODEL 6
REMARK VINA RESULT:      -5.2      2.568      5.038
REMARK  7 active torsions:
REMARK  status: ('A' for Active; 'I' for Inactive)
REMARK    1  A    between atoms: C_2  and  C_3 
REMARK    2  A    between atoms: C_3  and  O_6 
REMARK    3  A    between atoms: C_3  and  C_4 
REMARK    4  A    between atoms: C_7  and  O_6 
REMARK    5  A    between atoms: C_9  and  C_10 
REMARK    6  A    between atoms: N_15  and  C_14 
REMARK    7  A    between atoms: N_20  and  C_19 
REMARK       I    between atoms: C_22  and  N_20 
ROOT
ATOM      1  C   LIG d   1      -3.832  91.961 117.800  0.00  0.00     0.161 C 
ATOM      2  C   LIG d   1      -4.985  92.654 117.396  0.00  0.00     0.016 C 
ATOM      3  C   LIG d   1      -5.941  92.119 116.502  0.00  0.00     0.038 C 
ATOM      4  C   LIG d   1      -5.885  90.786 116.066  0.00  0.00     0.028 C 
ATOM      5  C   LIG d   1      -4.471  90.214 116.048  0.00  0.00    -0.047 C 
ATOM      6  C   LIG d   1      -3.810  90.465 117.423  0.00  0.00     0.091 C 
ENDROOT
BRANCH   1   7
ATOM      7  O   LIG d   1      -3.637  92.123 119.219  0.00  0.00    -0.368 OA
BRANCH   7   8
ATOM      8  C   LIG d   1      -2.458  92.863 119.620  0.00  0.00     0.119 C 
BRANCH   8   9
ATOM      9  C   LIG d   1      -2.932  94.090 120.422  0.00  0.00     0.028 C 
ATOM     10  C   LIG d   1      -4.397  93.965 120.875  0.00  0.00     0.006 C 
ENDBRANCH   8   9
BRANCH   8  11
ATOM     11  C   LIG d   1      -1.718  93.433 118.406  0.00  0.00     0.028 C 
ATOM     12  C   LIG d   1      -1.602  94.965 118.445  0.00  0.00     0.006 C 
ENDBRANCH   8  11
ENDBRANCH   7   8
ENDBRANCH   1   7
BRANCH   6  13
ATOM     13  N   LIG d   1      -2.396  90.011 117.463  0.00  0.00    -0.311 N 
ATOM     14  C   LIG d   1      -2.020  88.822 117.931  0.00  0.00     0.210 C 
ATOM     15  C   LIG d   1      -0.511  88.562 117.900  0.00  0.00     0.109 C 
ATOM     16  O   LIG d   1      -2.797  87.946 118.340  0.00  0.00    -0.276 OA
ATOM     17  H   LIG d   1      -1.702  90.648 117.122  0.00  0.00     0.149 HD
ENDBRANCH   6  13
BRANCH   5  18
ATOM     18  N   LIG d   1      -4.574  88.782 115.708  0.00  0.00     0.381 N 
ATOM     19  H   LIG d   1      -5.474  88.436 115.973  0.00  0.00    -0.090 HD
ATOM     20  H   LIG d   1      -3.877  88.275 116.224  0.00  0.00    -0.090 HD
ATOM     21  H   LIG d   1      -4.434  88.653 114.730  0.00  0.00    -0.090 HD
ENDBRANCH   5  18
BRANCH   3  22
ATOM     22  C   LIG d   1      -6.946  92.933 116.003  0.00  0.00     0.382 C 
ATOM     23  O   LIG d   1      -7.121  93.025 114.764  0.00  0.00    -0.241 OA
ATOM     24  O   LIG d   1      -7.652  93.610 116.774  0.00  0.00    -0.241 OA
ENDBRANCH   3  22
TORSDOF 7
ENDMDL
MODEL 7
REMARK VINA RESULT:      -4.9      2.435      5.415
REMARK  7 active torsions:
REMARK  status: ('A' for Active; 'I' for Inactive)
REMARK    1  A    between atoms: C_2  and  C_3 
REMARK    2  A    between atoms: C_3  and  O_6 
REMARK    3  A    between atoms: C_3  and  C_4 
REMARK    4  A    between atoms: C_7  and  O_6 
REMARK    5  A    between atoms: C_9  and  C_10 
REMARK    6  A    between atoms: N_15  and  C_14 
REMARK    7  A    between atoms: N_20  and  C_19 
REMARK       I    between atoms: C_22  and  N_20 
ROOT
ATOM      1  C   LIG d   1      -4.104  91.990 117.651  0.00  0.00     0.161 C 
ATOM      2  C   LIG d   1      -4.235  90.861 116.826  0.00  0.00     0.016 C 
ATOM      3  C   LIG d   1      -5.353  90.631 115.992  0.00  0.00     0.038 C 
ATOM      4  C   LIG d   1      -6.354  91.596 115.812  0.00  0.00     0.028 C 
ATOM      5  C   LIG d   1      -6.517  92.530 117.006  0.00  0.00    -0.047 C 
ATOM      6  C   LIG d   1      -5.134  93.108 117.384  0.00  0.00     0.091 C 
ENDROOT
BRANCH   1   7
ATOM      7  O   LIG d   1      -2.764  92.511 117.557  0.00  0.00    -0.368 OA
BRANCH   7   8
ATOM      8  C   LIG d   1      -1.912  92.290 118.708  0.00  0.00     0.119 C 
BRANCH   8   9
ATOM      9  C   LIG d   1      -1.269  93.641 119.076  0.00  0.00     0.028 C 
ATOM     10  C   LIG d   1      -1.679  94.767 118.112  0.00  0.00     0.006 C 
ENDBRANCH   8   9
BRANCH   8  11
ATOM     11  C   LIG d   1      -0.741  91.364 118.365  0.00  0.00     0.028 C 
ATOM     12  C   LIG d   1      -0.991  89.907 118.785  0.00  0.00     0.006 C 
ENDBRANCH   8  11
ENDBRANCH   7   8
ENDBRANCH   1   7
BRANCH   6  13
ATOM     13  N   LIG d   1      -5.190  93.967 118.596  0.00  0.00    -0.311 N 
ATOM     14  C   LIG d   1      -5.383  93.490 119.824  0.00  0.00     0.210 C 
ATOM     15  C   LIG d   1      -5.426  94.549 120.930  0.00  0.00     0.109 C 
ATOM     16  O   LIG d   1      -5.489  92.287 120.107  0.00  0.00    -0.276 OA
ATOM     17  H   LIG d   1      -5.081  94.953 118.461  0.00  0.00     0.149 HD
ENDBRANCH   6  13
BRANCH   5  18
ATOM     18  N   LIG d   1      -7.494  93.569 116.630  0.00  0.00     0.381 N 
ATOM     19  H   LIG d   1      -7.017  94.363 116.252  0.00  0.00    -0.090 HD
ATOM     20  H   LIG d   1      -7.991  93.862 117.453  0.00  0.00    -0.090 HD
ATOM     21  H   LIG d   1      -8.135  93.207 115.958  0.00  0.00    -0.090 HD
ENDBRANCH   5  18
BRANCH   3  22
ATOM     22  C   LIG d   1      -5.497  89.406 115.358  0.00  0.00     0.382 C 
ATOM     23  O   LIG d   1      -4.723  88.459 115.640  0.00  0.00    -0.241 OA
ATOM     24  O   LIG d   1      -6.363  89.249 114.477  0.00  0.00    -0.241 OA
ENDBRANCH   3  22
TORSDOF 7
ENDMDL
MODEL 8
REMARK VINA RESULT:      -4.8      2.368      4.871
REMARK  7 active torsions:
REMARK  status: ('A' for Active; 'I' for Inactive)
REMARK    1  A    between atoms: C_2  and  C_3 
REMARK    2  A    between atoms: C_3  and  O_6 
REMARK    3  A    between atoms: C_3  and  C_4 
REMARK    4  A    between atoms: C_7  and  O_6 
REMARK    5  A    between atoms: C_9  and  C_10 
REMARK    6  A    between atoms: N_15  and  C_14 
REMARK    7  A    between atoms: N_20  and  C_19 
REMARK       I    between atoms: C_22  and  N_20 
ROOT
ATOM      1  C   LIG d   1      -4.501  92.691 118.000  0.00  0.00     0.161 C 
ATOM      2  C   LIG d   1      -5.535  92.701 117.049  0.00  0.00     0.016 C 
ATOM      3  C   LIG d   1      -5.794  91.623 116.170  0.00  0.00     0.038 C 
ATOM      4  C   LIG d   1      -5.128  90.394 116.287  0.00  0.00     0.028 C 
ATOM      5  C   LIG d   1      -3.736  90.516 116.899  0.00  0.00    -0.047 C 
ATOM      6  C   LIG d   1      -3.835  91.316 118.218  0.00  0.00     0.091 C 
ENDROOT
BRANCH   1   7
ATOM      7  O   LIG d   1      -4.984  93.217 119.252  0.00  0.00    -0.368 OA
BRANCH   7   8
ATOM      8  C   LIG d   1      -4.750  94.628 119.483  0.00  0.00     0.119 C 
BRANCH   8   9
ATOM      9  C   LIG d   1      -3.567  94.747 120.462  0.00  0.00     0.028 C 
ATOM     10  C   LIG d   1      -2.253  95.117 119.753  0.00  0.00     0.006 C 
ENDBRANCH   8   9
BRANCH   8  11
ATOM     11  C   LIG d   1      -5.937  95.280 120.199  0.00  0.00     0.028 C 
ATOM     12  C   LIG d   1      -7.288  94.676 119.785  0.00  0.00     0.006 C 
ENDBRANCH   8  11
ENDBRANCH   7   8
ENDBRANCH   1   7
BRANCH   6  13
ATOM     13  N   LIG d   1      -2.506  91.553 118.838  0.00  0.00    -0.311 N 
ATOM     14  C   LIG d   1      -2.232  91.277 120.112  0.00  0.00     0.210 C 
ATOM     15  C   LIG d   1      -0.805  91.617 120.554  0.00  0.00     0.109 C 
ATOM     16  O   LIG d   1      -3.025  90.754 120.909  0.00  0.00    -0.276 OA
ATOM     17  H   LIG d   1      -1.794  91.947 118.254  0.00  0.00     0.149 HD
ENDBRANCH   6  13
BRANCH   5  18
ATOM     18  N   LIG d   1      -3.213  89.150 117.089  0.00  0.00     0.381 N 
ATOM     19  H   LIG d   1      -2.337  89.053 116.615  0.00  0.00    -0.090 HD
ATOM     20  H   LIG d   1      -3.861  88.494 116.690  0.00  0.00    -0.090 HD
ATOM     21  H   LIG d   1      -3.095  88.962 118.060  0.00  0.00    -0.090 HD
ENDBRANCH   5  18
BRANCH   3  22
ATOM     22  C   LIG d   1      -6.702  91.784 115.135  0.00  0.00     0.382 C 
ATOM     23  O   LIG d   1      -6.709  92.845 114.466  0.00  0.00    -0.241 OA
ATOM     24  O   LIG d   1      -7.545  90.900 114.891  0.00  0.00    -0.241 OA
ENDBRANCH   3  22
TORSDOF 7
ENDMDL
MODEL 9
REMARK VINA RESULT:      -4.7      2.127      4.779
REMARK  7 active torsions:
REMARK  status: ('A' for Active; 'I' for Inactive)
REMARK    1  A    between atoms: C_2  and  C_3 
REMARK    2  A    between atoms: C_3  and  O_6 
REMARK    3  A    between atoms: C_3  and  C_4 
REMARK    4  A    between atoms: C_7  and  O_6 
REMARK    5  A    between atoms: C_9  and  C_10 
REMARK    6  A    between atoms: N_15  and  C_14 
REMARK    7  A    between atoms: N_20  and  C_19 
REMARK       I    between atoms: C_22  and  N_20 
ROOT
ATOM      1  C   LIG d   1      -4.946  92.384 118.175  0.00  0.00     0.161 C 
ATOM      2  C   LIG d   1      -5.785  92.465 117.051  0.00  0.00     0.016 C 
ATOM      3  C   LIG d   1      -5.785  91.509 116.009  0.00  0.00     0.038 C 
ATOM      4  C   LIG d   1      -5.048  90.319 116.095  0.00  0.00     0.028 C 
ATOM      5  C   LIG d   1      -3.808  90.436 116.974  0.00  0.00    -0.047 C 
ATOM      6  C   LIG d   1      -4.215  91.035 118.340  0.00  0.00     0.091 C 
ENDROOT
BRANCH   1   7
ATOM      7  O   LIG d   1      -5.694  92.698 119.366  0.00  0.00    -0.368 OA
BRANCH   7   8
ATOM      8  C   LIG d   1      -5.436  93.995 119.957  0.00  0.00     0.119 C 
BRANCH   8   9
ATOM      9  C   LIG d   1      -6.610  94.918 119.576  0.00  0.00     0.028 C 
ATOM     10  C   LIG d   1      -7.978  94.272 119.850  0.00  0.00     0.006 C 
ENDBRANCH   8   9
BRANCH   8  11
ATOM     11  C   LIG d   1      -4.192  94.648 119.347  0.00  0.00     0.028 C 
ATOM     12  C   LIG d   1      -3.155  95.057 120.405  0.00  0.00     0.006 C 
ENDBRANCH   8  11
ENDBRANCH   7   8
ENDBRANCH   1   7
BRANCH   6  13
ATOM     13  N   LIG d   1      -3.047  91.262 119.230  0.00  0.00    -0.311 N 
ATOM     14  C   LIG d   1      -1.956  91.925 118.853  0.00  0.00     0.210 C 
ATOM     15  C   LIG d   1      -0.861  92.028 119.920  0.00  0.00     0.109 C 
ATOM     16  O   LIG d   1      -1.804  92.466 117.748  0.00  0.00    -0.276 OA
ATOM     17  H   LIG d   1      -3.099  90.884 120.156  0.00  0.00     0.149 HD
ENDBRANCH   6  13
BRANCH   5  18
ATOM     18  N   LIG d   1      -3.212  89.092 117.087  0.00  0.00     0.381 N 
ATOM     19  H   LIG d   1      -3.505  88.526 116.315  0.00  0.00    -0.090 HD
ATOM     20  H   LIG d   1      -3.537  88.662 117.934  0.00  0.00    -0.090 HD
ATOM     21  H   LIG d   1      -2.218  89.159 117.100  0.00  0.00    -0.090 HD
ENDBRANCH   5  18
BRANCH   3  22
ATOM     22  C   LIG d   1      -6.499  91.760 114.847  0.00  0.00     0.382 C 
ATOM     23  O   LIG d   1      -6.854  90.807 114.112  0.00  0.00    -0.241 OA
ATOM     24  O   LIG d   1      -6.753  92.929 114.501  0.00  0.00    -0.241 OA
ENDBRANCH   3  22
TORSDOF 7
ENDMDL
