MODEL 1
REMARK VINA RESULT:      -5.5      0.000      0.000
REMARK  7 active torsions:
REMARK  status: ('A' for Active; 'I' for Inactive)
REMARK    1  A    between atoms: C_2  and  C_3 
REMARK    2  A    between atoms: C_3  and  O_6 
REMARK    3  A    between atoms: C_3  and  C_4 
REMARK    4  A    between atoms: C_7  and  O_6 
REMARK    5  A    between atoms: C_9  and  C_10 
REMARK    6  A    between atoms: N_15  and  C_14 
REMARK    7  A    between atoms: N_20  and  C_19 
REMARK       I    between atoms: C_22  and  N_20 
ROOT
ATOM      1  C   LIG d   1      -5.565  92.933 117.449  0.00  0.00     0.161 C 
ATOM      2  C   LIG d   1      -6.623  92.054 117.164  0.00  0.00     0.016 C 
ATOM      3  C   LIG d   1      -6.434  90.702 116.796  0.00  0.00     0.038 C 
ATOM      4  C   LIG d   1      -5.171  90.093 116.835  0.00  0.00     0.028 C 
ATOM      5  C   LIG d   1      -4.020  91.071 116.629  0.00  0.00    -0.047 C 
ATOM      6  C   LIG d   1      -4.187  92.257 117.606  0.00  0.00     0.091 C 
ENDROOT
BRANCH   1   7
ATOM      7  O   LIG d   1      -5.879  93.710 118.622  0.00  0.00    -0.368 OA
BRANCH   7   8
ATOM      8  C   LIG d   1      -6.868  94.754 118.450  0.00  0.00     0.119 C 
BRANCH   8   9
ATOM      9  C   LIG d   1      -6.164  96.103 118.690  0.00  0.00     0.028 C 
ATOM     10  C   LIG d   1      -4.928  95.968 119.595  0.00  0.00     0.006 C 
ENDBRANCH   8   9
BRANCH   8  11
ATOM     11  C   LIG d   1      -7.960  94.670 119.521  0.00  0.00     0.028 C 
ATOM     12  C   LIG d   1      -9.020  95.773 119.379  0.00  0.00     0.006 C 
ENDBRANCH   8  11
ENDBRANCH   7   8
ENDBRANCH   1   7
BRANCH   6  13
ATOM     13  N   LIG d   1      -3.149  93.302 117.412  0.00  0.00    -0.311 N 
ATOM     14  C   LIG d   1      -2.319  93.698 118.375  0.00  0.00     0.210 C 
ATOM     15  C   LIG d   1      -1.337  94.803 117.969  0.00  0.00     0.109 C 
ATOM     16  O   LIG d   1      -2.280  93.218 119.518  0.00  0.00    -0.276 OA
ATOM     17  H   LIG d   1      -3.090  93.724 116.506  0.00  0.00     0.149 HD
ENDBRANCH   6  13
BRANCH   5  18
ATOM     18  N   LIG d   1      -2.762  90.328 116.831  0.00  0.00     0.381 N 
ATOM     19  H   LIG d   1      -2.739  89.530 116.228  0.00  0.00    -0.090 HD
ATOM     20  H   LIG d   1      -2.724  90.005 117.782  0.00  0.00    -0.090 HD
ATOM     21  H   LIG d   1      -1.982  90.919 116.643  0.00  0.00    -0.090 HD
ENDBRANCH   5  18
BRANCH   3  22
ATOM     22  C   LIG d   1      -7.512  89.956 116.344  0.00  0.00     0.382 C 
ATOM     23  O   LIG d   1      -7.798  88.868 116.900  0.00  0.00    -0.241 OA
ATOM     24  O   LIG d   1      -8.174  90.334 115.359  0.00  0.00    -0.241 OA
ENDBRANCH   3  22
TORSDOF 7
ENDMDL
MODEL 2
REMARK VINA RESULT:      -5.4      2.097      4.762
REMARK  7 active torsions:
REMARK  status: ('A' for Active; 'I' for Inactive)
REMARK    1  A    between atoms: C_2  and  C_3 
REMARK    2  A    between atoms: C_3  and  O_6 
REMARK    3  A    between atoms: C_3  and  C_4 
REMARK    4  A    between atoms: C_7  and  O_6 
REMARK    5  A    between atoms: C_9  and  C_10 
REMARK    6  A    between atoms: N_15  and  C_14 
REMARK    7  A    between atoms: N_20  and  C_19 
REMARK       I    between atoms: C_22  and  N_20 
ROOT
ATOM      1  C   LIG d   1      -5.623  92.459 117.341  0.00  0.00     0.161 C 
ATOM      2  C   LIG d   1      -6.679  93.372 117.498  0.00  0.00     0.016 C 
ATOM      3  C   LIG d   1      -6.629  94.476 118.381  0.00  0.00     0.038 C 
ATOM      4  C   LIG d   1      -5.453  94.830 119.059  0.00  0.00     0.028 C 
ATOM      5  C   LIG d   1      -4.524  93.649 119.318  0.00  0.00    -0.047 C 
ATOM      6  C   LIG d   1      -4.291  92.893 117.990  0.00  0.00     0.091 C 
ENDROOT
BRANCH   1   7
ATOM      7  O   LIG d   1      -5.428  92.173 115.942  0.00  0.00    -0.368 OA
BRANCH   7   8
ATOM      8  C   LIG d   1      -5.623  90.795 115.541  0.00  0.00     0.119 C 
BRANCH   8   9
ATOM      9  C   LIG d   1      -6.644  90.789 114.387  0.00  0.00     0.028 C 
ATOM     10  C   LIG d   1      -7.054  92.208 113.958  0.00  0.00     0.006 C 
ENDBRANCH   8   9
BRANCH   8  11
ATOM     11  C   LIG d   1      -6.271  89.974 116.660  0.00  0.00     0.028 C 
ATOM     12  C   LIG d   1      -7.740  89.630 116.372  0.00  0.00     0.006 C 
ENDBRANCH   8  11
ENDBRANCH   7   8
ENDBRANCH   1   7
BRANCH   6  13
ATOM     13  N   LIG d   1      -3.461  91.674 118.170  0.00  0.00    -0.311 N 
ATOM     14  C   LIG d   1      -2.138  91.658 118.014  0.00  0.00     0.210 C 
ATOM     15  C   LIG d   1      -1.478  90.292 118.227  0.00  0.00     0.109 C 
ATOM     16  O   LIG d   1      -1.445  92.652 117.751  0.00  0.00    -0.276 OA
ATOM     17  H   LIG d   1      -3.938  90.828 118.415  0.00  0.00     0.149 HD
ENDBRANCH   6  13
BRANCH   5  18
ATOM     18  N   LIG d   1      -3.281  94.181 119.907  0.00  0.00     0.381 N 
ATOM     19  H   LIG d   1      -3.044  93.659 120.728  0.00  0.00    -0.090 HD
ATOM     20  H   LIG d   1      -3.431  95.138 120.174  0.00  0.00    -0.090 HD
ATOM     21  H   LIG d   1      -2.539  94.125 119.244  0.00  0.00    -0.090 HD
ENDBRANCH   5  18
BRANCH   3  22
ATOM     22  C   LIG d   1      -7.777  95.215 118.622  0.00  0.00     0.382 C 
ATOM     23  O   LIG d   1      -7.759  96.144 119.466  0.00  0.00    -0.241 OA
ATOM     24  O   LIG d   1      -8.842  94.937 118.038  0.00  0.00    -0.241 OA
ENDBRANCH   3  22
TORSDOF 7
ENDMDL
MODEL 3
REMARK VINA RESULT:      -5.3      2.233      5.253
REMARK  7 active torsions:
REMARK  status: ('A' for Active; 'I' for Inactive)
REMARK    1  A    between atoms: C_2  and  C_3 
REMARK    2  A    between atoms: C_3  and  O_6 
REMARK    3  A    between atoms: C_3  and  C_4 
REMARK    4  A    between atoms: C_7  and  O_6 
REMARK    5  A    between atoms: C_9  and  C_10 
REMARK    6  A    between atoms: N_15  and  C_14 
REMARK    7  A    between atoms: N_20  and  C_19 
REMARK       I    between atoms: C_22  and  N_20 
ROOT
ATOM      1  C   LIG d   1      -4.626  91.792 117.349  0.00  0.00     0.161 C 
ATOM      2  C   LIG d   1      -3.509  90.949 117.223  0.00  0.00     0.016 C 
ATOM      3  C   LIG d   1      -2.308  91.136 117.944  0.00  0.00     0.038 C 
ATOM      4  C   LIG d   1      -2.195  92.096 118.961  0.00  0.00     0.028 C 
ATOM      5  C   LIG d   1      -3.123  93.292 118.770  0.00  0.00    -0.047 C 
ATOM      6  C   LIG d   1      -4.561  92.778 118.534  0.00  0.00     0.091 C 
ENDROOT
BRANCH   1   7
ATOM      7  O   LIG d   1      -5.829  91.001 117.421  0.00  0.00    -0.368 OA
BRANCH   7   8
ATOM      8  C   LIG d   1      -6.819  91.252 116.393  0.00  0.00     0.119 C 
BRANCH   8   9
ATOM      9  C   LIG d   1      -7.184  89.894 115.761  0.00  0.00     0.028 C 
ATOM     10  C   LIG d   1      -8.464  89.292 116.364  0.00  0.00     0.006 C 
ENDBRANCH   8   9
BRANCH   8  11
ATOM     11  C   LIG d   1      -6.235  92.087 115.250  0.00  0.00     0.028 C 
ATOM     12  C   LIG d   1      -7.026  91.940 113.940  0.00  0.00     0.006 C 
ENDBRANCH   8  11
ENDBRANCH   7   8
ENDBRANCH   1   7
BRANCH   6  13
ATOM     13  N   LIG d   1      -5.518  93.880 118.255  0.00  0.00    -0.311 N 
ATOM     14  C   LIG d   1      -6.728  93.958 118.807  0.00  0.00     0.210 C 
ATOM     15  C   LIG d   1      -7.563  95.165 118.367  0.00  0.00     0.109 C 
ATOM     16  O   LIG d   1      -7.177  93.160 119.643  0.00  0.00    -0.276 OA
ATOM     17  H   LIG d   1      -5.223  94.588 117.611  0.00  0.00     0.149 HD
ENDBRANCH   6  13
BRANCH   5  18
ATOM     18  N   LIG d   1      -3.002  94.145 119.968  0.00  0.00     0.381 N 
ATOM     19  H   LIG d   1      -2.603  93.619 120.719  0.00  0.00    -0.090 HD
ATOM     20  H   LIG d   1      -3.920  94.445 120.246  0.00  0.00    -0.090 HD
ATOM     21  H   LIG d   1      -2.432  94.936 119.767  0.00  0.00    -0.090 HD
ENDBRANCH   5  18
BRANCH   3  22
ATOM     22  C   LIG d   1      -1.189  90.383 117.623  0.00  0.00     0.382 C 
ATOM     23  O   LIG d   1      -0.189  90.935 117.105  0.00  0.00    -0.241 OA
ATOM     24  O   LIG d   1      -1.184  89.150 117.805  0.00  0.00    -0.241 OA
ENDBRANCH   3  22
TORSDOF 7
ENDMDL
MODEL 4
REMARK VINA RESULT:      -5.2      2.326      4.699
REMARK  7 active torsions:
REMARK  status: ('A' for Active; 'I' for Inactive)
REMARK    1  A    between atoms: C_2  and  C_3 
REMARK    2  A    between atoms: C_3  and  O_6 
REMARK    3  A    between atoms: C_3  and  C_4 
REMARK    4  A    between atoms: C_7  and  O_6 
REMARK    5  A    between atoms: C_9  and  C_10 
REMARK    6  A    between atoms: N_15  and  C_14 
REMARK    7  A    between atoms: N_20  and  C_19 
REMARK       I    between atoms: C_22  and  N_20 
ROOT
ATOM      1  C   LIG d   1      -3.881  91.077 117.655  0.00  0.00     0.161 C 
ATOM      2  C   LIG d   1      -4.696  90.327 116.792  0.00  0.00     0.016 C 
ATOM      3  C   LIG d   1      -5.945  90.782 116.309  0.00  0.00     0.038 C 
ATOM      4  C   LIG d   1      -6.396  92.090 116.539  0.00  0.00     0.028 C 
ATOM      5  C   LIG d   1      -5.843  92.706 117.820  0.00  0.00    -0.047 C 
ATOM      6  C   LIG d   1      -4.305  92.551 117.827  0.00  0.00     0.091 C 
ENDROOT
BRANCH   1   7
ATOM      7  O   LIG d   1      -2.508  90.998 117.222  0.00  0.00    -0.368 OA
BRANCH   7   8
ATOM      8  C   LIG d   1      -1.588  90.353 118.136  0.00  0.00     0.119 C 
BRANCH   8   9
ATOM      9  C   LIG d   1      -0.160  90.629 117.628  0.00  0.00     0.028 C 
ATOM     10  C   LIG d   1       0.456  91.887 118.263  0.00  0.00     0.006 C 
ENDBRANCH   8   9
BRANCH   8  11
ATOM     11  C   LIG d   1      -1.743  88.830 118.101  0.00  0.00     0.028 C 
ATOM     12  C   LIG d   1      -2.126  88.238 119.466  0.00  0.00     0.006 C 
ENDBRANCH   8  11
ENDBRANCH   7   8
ENDBRANCH   1   7
BRANCH   6  13
ATOM     13  N   LIG d   1      -3.691  93.052 119.084  0.00  0.00    -0.311 N 
ATOM     14  C   LIG d   1      -2.638  93.866 119.112  0.00  0.00     0.210 C 
ATOM     15  C   LIG d   1      -2.151  94.246 120.514  0.00  0.00     0.109 C 
ATOM     16  O   LIG d   1      -2.081  94.336 118.109  0.00  0.00    -0.276 OA
ATOM     17  H   LIG d   1      -4.100  92.745 119.945  0.00  0.00     0.149 HD
ENDBRANCH   6  13
BRANCH   5  18
ATOM     18  N   LIG d   1      -6.283  94.113 117.864  0.00  0.00     0.381 N 
ATOM     19  H   LIG d   1      -6.297  94.434 118.811  0.00  0.00    -0.090 HD
ATOM     20  H   LIG d   1      -7.216  94.174 117.496  0.00  0.00    -0.090 HD
ATOM     21  H   LIG d   1      -5.667  94.679 117.323  0.00  0.00    -0.090 HD
ENDBRANCH   5  18
BRANCH   3  22
ATOM     22  C   LIG d   1      -6.775  89.910 115.621  0.00  0.00     0.382 C 
ATOM     23  O   LIG d   1      -6.498  89.579 114.443  0.00  0.00    -0.241 OA
ATOM     24  O   LIG d   1      -7.821  89.485 116.148  0.00  0.00    -0.241 OA
ENDBRANCH   3  22
TORSDOF 7
ENDMDL
MODEL 5
REMARK VINA RESULT:      -5.2      2.426      4.431
REMARK  7 active torsions:
REMARK  status: ('A' for Active; 'I' for Inactive)
REMARK    1  A    between atoms: C_2  and  C_3 
REMARK    2  A    between atoms: C_3  and  O_6 
REMARK    3  A    between atoms: C_3  and  C_4 
REMARK    4  A    between atoms: C_7  and  O_6 
REMARK    5  A    between atoms: C_9  and  C_10 
REMARK    6  A    between atoms: N_15  and  C_14 
REMARK    7  A    between atoms: N_20  and  C_19 
REMARK       I    between atoms: C_22  and  N_20 
ROOT
ATOM      1  C   LIG d   1      -5.546  91.660 118.305  0.00  0.00     0.161 C 
ATOM      2  C   LIG d   1      -4.503  91.154 119.098  0.00  0.00     0.016 C 
ATOM      3  C   LIG d   1      -3.553  90.218 118.630  0.00  0.00     0.038 C 
ATOM      4  C   LIG d   1      -3.491  89.836 117.282  0.00  0.00     0.028 C 
ATOM      5  C   LIG d   1      -4.832  89.933 116.562  0.00  0.00    -0.047 C 
ATOM      6  C   LIG d   1      -5.428  91.339 116.800  0.00  0.00     0.091 C 
ENDROOT
BRANCH   1   7
ATOM      7  O   LIG d   1      -5.668  93.082 118.506  0.00  0.00    -0.368 OA
BRANCH   7   8
ATOM      8  C   LIG d   1      -6.077  93.506 119.829  0.00  0.00     0.119 C 
BRANCH   8   9
ATOM      9  C   LIG d   1      -7.410  94.265 119.681  0.00  0.00     0.028 C 
ATOM     10  C   LIG d   1      -7.536  94.969 118.319  0.00  0.00     0.006 C 
ENDBRANCH   8   9
BRANCH   8  11
ATOM     11  C   LIG d   1      -5.095  94.523 120.417  0.00  0.00     0.028 C 
ATOM     12  C   LIG d   1      -3.914  94.822 119.479  0.00  0.00     0.006 C 
ENDBRANCH   8  11
ENDBRANCH   7   8
ENDBRANCH   1   7
BRANCH   6  13
ATOM     13  N   LIG d   1      -6.780  91.490 116.200  0.00  0.00    -0.311 N 
ATOM     14  C   LIG d   1      -6.988  91.951 114.968  0.00  0.00     0.210 C 
ATOM     15  C   LIG d   1      -8.459  92.047 114.553  0.00  0.00     0.109 C 
ATOM     16  O   LIG d   1      -6.092  92.260 114.168  0.00  0.00    -0.276 OA
ATOM     17  H   LIG d   1      -7.563  91.234 116.769  0.00  0.00     0.149 HD
ENDBRANCH   6  13
BRANCH   5  18
ATOM     18  N   LIG d   1      -4.595  89.639 115.136  0.00  0.00     0.381 N 
ATOM     19  H   LIG d   1      -5.184  90.216 114.569  0.00  0.00    -0.090 HD
ATOM     20  H   LIG d   1      -4.830  88.678 114.959  0.00  0.00    -0.090 HD
ATOM     21  H   LIG d   1      -3.639  89.802 114.909  0.00  0.00    -0.090 HD
ENDBRANCH   5  18
BRANCH   3  22
ATOM     22  C   LIG d   1      -2.676  89.624 119.524  0.00  0.00     0.382 C 
ATOM     23  O   LIG d   1      -2.842  88.427 119.864  0.00  0.00    -0.241 OA
ATOM     24  O   LIG d   1      -1.746  90.281 120.029  0.00  0.00    -0.241 OA
ENDBRANCH   3  22
TORSDOF 7
ENDMDL
MODEL 6
REMARK VINA RESULT:      -5.2      1.834      2.424
REMARK  7 active torsions:
REMARK  status: ('A' for Active; 'I' for Inactive)
REMARK    1  A    between atoms: C_2  and  C_3 
REMARK    2  A    between atoms: C_3  and  O_6 
REMARK    3  A    between atoms: C_3  and  C_4 
REMARK    4  A    between atoms: C_7  and  O_6 
REMARK    5  A    between atoms: C_9  and  C_10 
REMARK    6  A    between atoms: N_15  and  C_14 
REMARK    7  A    between atoms: N_20  and  C_19 
REMARK       I    between atoms: C_22  and  N_20 
ROOT
ATOM      1  C   LIG d   1      -6.145  93.210 117.839  0.00  0.00     0.161 C 
ATOM      2  C   LIG d   1      -6.976  92.950 116.737  0.00  0.00     0.016 C 
ATOM      3  C   LIG d   1      -6.654  92.019 115.722  0.00  0.00     0.038 C 
ATOM      4  C   LIG d   1      -5.543  91.169 115.821  0.00  0.00     0.028 C 
ATOM      5  C   LIG d   1      -4.410  91.748 116.662  0.00  0.00    -0.047 C 
ATOM      6  C   LIG d   1      -4.982  92.212 118.022  0.00  0.00     0.091 C 
ENDROOT
BRANCH   1   7
ATOM      7  O   LIG d   1      -6.936  93.282 119.042  0.00  0.00    -0.368 OA
BRANCH   7   8
ATOM      8  C   LIG d   1      -6.834  94.512 119.799  0.00  0.00     0.119 C 
BRANCH   8   9
ATOM      9  C   LIG d   1      -8.260  94.919 120.217  0.00  0.00     0.028 C 
ATOM     10  C   LIG d   1      -9.042  95.580 119.069  0.00  0.00     0.006 C 
ENDBRANCH   8   9
BRANCH   8  11
ATOM     11  C   LIG d   1      -6.323  95.663 118.927  0.00  0.00     0.028 C 
ATOM     12  C   LIG d   1      -5.108  96.379 119.537  0.00  0.00     0.006 C 
ENDBRANCH   8  11
ENDBRANCH   7   8
ENDBRANCH   1   7
BRANCH   6  13
ATOM     13  N   LIG d   1      -3.956  92.868 118.873  0.00  0.00    -0.311 N 
ATOM     14  C   LIG d   1      -3.686  92.488 120.121  0.00  0.00     0.210 C 
ATOM     15  C   LIG d   1      -2.607  93.313 120.830  0.00  0.00     0.109 C 
ATOM     16  O   LIG d   1      -4.216  91.527 120.698  0.00  0.00    -0.276 OA
ATOM     17  H   LIG d   1      -3.456  93.638 118.474  0.00  0.00     0.149 HD
ENDBRANCH   6  13
BRANCH   5  18
ATOM     18  N   LIG d   1      -3.376  90.705 116.796  0.00  0.00     0.381 N 
ATOM     19  H   LIG d   1      -2.502  91.049 116.452  0.00  0.00    -0.090 HD
ATOM     20  H   LIG d   1      -3.642  89.910 116.242  0.00  0.00    -0.090 HD
ATOM     21  H   LIG d   1      -3.283  90.437 117.751  0.00  0.00    -0.090 HD
ENDBRANCH   5  18
BRANCH   3  22
ATOM     22  C   LIG d   1      -7.429  91.959 114.574  0.00  0.00     0.382 C 
ATOM     23  O   LIG d   1      -8.666  92.153 114.641  0.00  0.00    -0.241 OA
ATOM     24  O   LIG d   1      -6.912  91.671 113.478  0.00  0.00    -0.241 OA
ENDBRANCH   3  22
TORSDOF 7
ENDMDL
MODEL 7
REMARK VINA RESULT:      -5.1      2.342      5.283
REMARK  7 active torsions:
REMARK  status: ('A' for Active; 'I' for Inactive)
REMARK    1  A    between atoms: C_2  and  C_3 
REMARK    2  A    between atoms: C_3  and  O_6 
REMARK    3  A    between atoms: C_3  and  C_4 
REMARK    4  A    between atoms: C_7  and  O_6 
REMARK    5  A    between atoms: C_9  and  C_10 
REMARK    6  A    between atoms: N_15  and  C_14 
REMARK    7  A    between atoms: N_20  and  C_19 
REMARK       I    between atoms: C_22  and  N_20 
ROOT
ATOM      1  C   LIG d   1      -4.165  91.107 117.189  0.00  0.00     0.161 C 
ATOM      2  C   LIG d   1      -3.015  90.301 117.188  0.00  0.00     0.016 C 
ATOM      3  C   LIG d   1      -1.836  90.625 117.899  0.00  0.00     0.038 C 
ATOM      4  C   LIG d   1      -1.781  91.709 118.787  0.00  0.00     0.028 C 
ATOM      5  C   LIG d   1      -2.749  92.833 118.432  0.00  0.00    -0.047 C 
ATOM      6  C   LIG d   1      -4.162  92.236 118.241  0.00  0.00     0.091 C 
ENDROOT
BRANCH   1   7
ATOM      7  O   LIG d   1      -5.338  90.283 117.342  0.00  0.00    -0.368 OA
BRANCH   7   8
ATOM      8  C   LIG d   1      -6.099  90.028 116.135  0.00  0.00     0.119 C 
BRANCH   8   9
ATOM      9  C   LIG d   1      -5.554  90.963 115.038  0.00  0.00     0.028 C 
ATOM     10  C   LIG d   1      -6.626  91.930 114.506  0.00  0.00     0.006 C 
ENDBRANCH   8   9
BRANCH   8  11
ATOM     11  C   LIG d   1      -7.569  90.420 116.309  0.00  0.00     0.028 C 
ATOM     12  C   LIG d   1      -8.511  89.205 116.329  0.00  0.00     0.006 C 
ENDBRANCH   8  11
ENDBRANCH   7   8
ENDBRANCH   1   7
BRANCH   6  13
ATOM     13  N   LIG d   1      -5.154  93.255 117.809  0.00  0.00    -0.311 N 
ATOM     14  C   LIG d   1      -6.374  93.359 118.334  0.00  0.00     0.210 C 
ATOM     15  C   LIG d   1      -7.245  94.465 117.731  0.00  0.00     0.109 C 
ATOM     16  O   LIG d   1      -6.806  92.660 119.263  0.00  0.00    -0.276 OA
ATOM     17  H   LIG d   1      -4.876  93.883 117.081  0.00  0.00     0.149 HD
ENDBRANCH   6  13
BRANCH   5  18
ATOM     18  N   LIG d   1      -2.686  93.834 119.514  0.00  0.00     0.381 N 
ATOM     19  H   LIG d   1      -2.793  93.382 120.400  0.00  0.00    -0.090 HD
ATOM     20  H   LIG d   1      -3.442  94.485 119.399  0.00  0.00    -0.090 HD
ATOM     21  H   LIG d   1      -1.815  94.316 119.482  0.00  0.00    -0.090 HD
ENDBRANCH   5  18
BRANCH   3  22
ATOM     22  C   LIG d   1      -0.683  89.882 117.693  0.00  0.00     0.382 C 
ATOM     23  O   LIG d   1       0.240  90.343 116.980  0.00  0.00    -0.241 OA
ATOM     24  O   LIG d   1      -0.574  88.739 118.176  0.00  0.00    -0.241 OA
ENDBRANCH   3  22
TORSDOF 7
ENDMDL
MODEL 8
REMARK VINA RESULT:      -5.1      1.481      4.825
REMARK  7 active torsions:
REMARK  status: ('A' for Active; 'I' for Inactive)
REMARK    1  A    between atoms: C_2  and  C_3 
REMARK    2  A    between atoms: C_3  and  O_6 
REMARK    3  A    between atoms: C_3  and  C_4 
REMARK    4  A    between atoms: C_7  and  O_6 
REMARK    5  A    between atoms: C_9  and  C_10 
REMARK    6  A    between atoms: N_15  and  C_14 
REMARK    7  A    between atoms: N_20  and  C_19 
REMARK       I    between atoms: C_22  and  N_20 
ROOT
ATOM      1  C   LIG d   1      -5.996  92.341 118.871  0.00  0.00     0.161 C 
ATOM      2  C   LIG d   1      -4.861  93.004 119.366  0.00  0.00     0.016 C 
ATOM      3  C   LIG d   1      -3.565  92.836 118.828  0.00  0.00     0.038 C 
ATOM      4  C   LIG d   1      -3.339  92.103 117.653  0.00  0.00     0.028 C 
ATOM      5  C   LIG d   1      -4.374  91.009 117.414  0.00  0.00    -0.047 C 
ATOM      6  C   LIG d   1      -5.788  91.624 117.521  0.00  0.00     0.091 C 
ENDROOT
BRANCH   1   7
ATOM      7  O   LIG d   1      -7.102  93.262 118.784  0.00  0.00    -0.368 OA
BRANCH   7   8
ATOM      8  C   LIG d   1      -6.973  94.486 119.549  0.00  0.00     0.119 C 
BRANCH   8   9
ATOM      9  C   LIG d   1      -8.249  94.635 120.401  0.00  0.00     0.028 C 
ATOM     10  C   LIG d   1      -9.346  95.436 119.679  0.00  0.00     0.006 C 
ENDBRANCH   8   9
BRANCH   8  11
ATOM     11  C   LIG d   1      -6.949  95.714 118.636  0.00  0.00     0.028 C 
ATOM     12  C   LIG d   1      -5.843  96.714 119.010  0.00  0.00     0.006 C 
ENDBRANCH   8  11
ENDBRANCH   7   8
ENDBRANCH   1   7
BRANCH   6  13
ATOM     13  N   LIG d   1      -6.861  90.605 117.383  0.00  0.00    -0.311 N 
ATOM     14  C   LIG d   1      -7.423  90.284 116.218  0.00  0.00     0.210 C 
ATOM     15  C   LIG d   1      -8.524  89.223 116.302  0.00  0.00     0.109 C 
ATOM     16  O   LIG d   1      -7.090  90.754 115.120  0.00  0.00    -0.276 OA
ATOM     17  H   LIG d   1      -7.170  90.151 118.220  0.00  0.00     0.149 HD
ENDBRANCH   6  13
BRANCH   5  18
ATOM     18  N   LIG d   1      -4.100  90.417 116.091  0.00  0.00     0.381 N 
ATOM     19  H   LIG d   1      -3.225  89.933 116.111  0.00  0.00    -0.090 HD
ATOM     20  H   LIG d   1      -4.035  91.155 115.412  0.00  0.00    -0.090 HD
ATOM     21  H   LIG d   1      -4.830  89.788 115.840  0.00  0.00    -0.090 HD
ENDBRANCH   5  18
BRANCH   3  22
ATOM     22  C   LIG d   1      -2.471  93.372 119.489  0.00  0.00     0.382 C 
ATOM     23  O   LIG d   1      -1.558  92.619 119.905  0.00  0.00    -0.241 OA
ATOM     24  O   LIG d   1      -2.407  94.596 119.715  0.00  0.00    -0.241 OA
ENDBRANCH   3  22
TORSDOF 7
ENDMDL
MODEL 9
REMARK VINA RESULT:      -5.1      2.464      5.418
REMARK  7 active torsions:
REMARK  status: ('A' for Active; 'I' for Inactive)
REMARK    1  A    between atoms: C_2  and  C_3 
REMARK    2  A    between atoms: C_3  and  O_6 
REMARK    3  A    between atoms: C_3  and  C_4 
REMARK    4  A    between atoms: C_7  and  O_6 
REMARK    5  A    between atoms: C_9  and  C_10 
REMARK    6  A    between atoms: N_15  and  C_14 
REMARK    7  A    between atoms: N_20  and  C_19 
REMARK       I    between atoms: C_22  and  N_20 
ROOT
ATOM      1  C   LIG d   1      -5.892  92.976 117.198  0.00  0.00     0.161 C 
ATOM      2  C   LIG d   1      -4.653  92.326 117.080  0.00  0.00     0.016 C 
ATOM      3  C   LIG d   1      -3.717  92.237 118.136  0.00  0.00     0.038 C 
ATOM      4  C   LIG d   1      -4.023  92.666 119.436  0.00  0.00     0.028 C 
ATOM      5  C   LIG d   1      -5.063  93.781 119.477  0.00  0.00    -0.047 C 
ATOM      6  C   LIG d   1      -6.291  93.353 118.640  0.00  0.00     0.091 C 
ENDROOT
BRANCH   1   7
ATOM      7  O   LIG d   1      -6.924  92.177 116.586  0.00  0.00    -0.368 OA
BRANCH   7   8
ATOM      8  C   LIG d   1      -6.527  90.858 116.138  0.00  0.00     0.119 C 
BRANCH   8   9
ATOM      9  C   LIG d   1      -6.959  90.720 114.665  0.00  0.00     0.028 C 
ATOM     10  C   LIG d   1      -7.209  92.083 113.996  0.00  0.00     0.006 C 
ENDBRANCH   8   9
BRANCH   8  11
ATOM     11  C   LIG d   1      -7.288  89.761 116.888  0.00  0.00     0.028 C 
ATOM     12  C   LIG d   1      -8.598  89.362 116.190  0.00  0.00     0.006 C 
ENDBRANCH   8  11
ENDBRANCH   7   8
ENDBRANCH   1   7
BRANCH   6  13
ATOM     13  N   LIG d   1      -7.321  94.421 118.558  0.00  0.00    -0.311 N 
ATOM     14  C   LIG d   1      -8.305  94.560 119.444  0.00  0.00     0.210 C 
ATOM     15  C   LIG d   1      -9.271  95.715 119.162  0.00  0.00     0.109 C 
ATOM     16  O   LIG d   1      -8.452  93.856 120.455  0.00  0.00    -0.276 OA
ATOM     17  H   LIG d   1      -7.259  95.056 117.787  0.00  0.00     0.149 HD
ENDBRANCH   6  13
BRANCH   5  18
ATOM     18  N   LIG d   1      -5.389  94.035 120.893  0.00  0.00     0.381 N 
ATOM     19  H   LIG d   1      -6.379  93.981 121.028  0.00  0.00    -0.090 HD
ATOM     20  H   LIG d   1      -5.087  94.962 121.135  0.00  0.00    -0.090 HD
ATOM     21  H   LIG d   1      -4.931  93.367 121.474  0.00  0.00    -0.090 HD
ENDBRANCH   5  18
BRANCH   3  22
ATOM     22  C   LIG d   1      -2.443  91.751 117.886  0.00  0.00     0.382 C 
ATOM     23  O   LIG d   1      -1.449  92.506 118.005  0.00  0.00    -0.241 OA
ATOM     24  O   LIG d   1      -2.279  90.578 117.501  0.00  0.00    -0.241 OA
ENDBRANCH   3  22
TORSDOF 7
ENDMDL
