MODEL 1
REMARK VINA RESULT:      -4.9      0.000      0.000
REMARK  7 active torsions:
REMARK  status: ('A' for Active; 'I' for Inactive)
REMARK    1  A    between atoms: C_2  and  C_3 
REMARK    2  A    between atoms: C_3  and  O_6 
REMARK    3  A    between atoms: C_3  and  C_4 
REMARK    4  A    between atoms: C_7  and  O_6 
REMARK    5  A    between atoms: C_9  and  C_10 
REMARK    6  A    between atoms: N_15  and  C_14 
REMARK    7  A    between atoms: N_20  and  C_19 
REMARK       I    between atoms: C_22  and  N_20 
ROOT
ATOM      1  C   LIG d   1       1.582  89.401 116.643  0.00  0.00     0.161 C 
ATOM      2  C   LIG d   1       0.196  89.200 116.754  0.00  0.00     0.016 C 
ATOM      3  C   LIG d   1      -0.649  90.019 117.538  0.00  0.00     0.038 C 
ATOM      4  C   LIG d   1      -0.184  91.194 118.148  0.00  0.00     0.028 C 
ATOM      5  C   LIG d   1       1.304  91.158 118.477  0.00  0.00    -0.047 C 
ATOM      6  C   LIG d   1       2.088  90.743 117.211  0.00  0.00     0.091 C 
ENDROOT
BRANCH   1   7
ATOM      7  O   LIG d   1       1.988  89.254 115.268  0.00  0.00    -0.368 OA
BRANCH   7   8
ATOM      8  C   LIG d   1       2.898  88.162 114.985  0.00  0.00     0.119 C 
BRANCH   8   9
ATOM      9  C   LIG d   1       3.628  88.497 113.670  0.00  0.00     0.028 C 
ATOM     10  C   LIG d   1       4.716  89.568 113.859  0.00  0.00     0.006 C 
ENDBRANCH   8   9
BRANCH   8  11
ATOM     11  C   LIG d   1       2.139  86.862 114.708  0.00  0.00     0.028 C 
ATOM     12  C   LIG d   1       3.054  85.733 114.208  0.00  0.00     0.006 C 
ENDBRANCH   8  11
ENDBRANCH   7   8
ENDBRANCH   1   7
BRANCH   6  13
ATOM     13  N   LIG d   1       3.545  90.601 117.468  0.00  0.00    -0.311 N 
ATOM     14  C   LIG d   1       4.411  91.607 117.354  0.00  0.00     0.210 C 
ATOM     15  C   LIG d   1       5.870  91.241 117.644  0.00  0.00     0.109 C 
ATOM     16  O   LIG d   1       4.105  92.775 117.070  0.00  0.00    -0.276 OA
ATOM     17  H   LIG d   1       3.876  89.694 117.734  0.00  0.00     0.149 HD
ENDBRANCH   6  13
BRANCH   5  18
ATOM     18  N   LIG d   1       1.682  92.493 118.980  0.00  0.00     0.381 N 
ATOM     19  H   LIG d   1       2.520  92.800 118.528  0.00  0.00    -0.090 HD
ATOM     20  H   LIG d   1       1.861  92.430 119.966  0.00  0.00    -0.090 HD
ATOM     21  H   LIG d   1       0.946  93.142 118.809  0.00  0.00    -0.090 HD
ENDBRANCH   5  18
BRANCH   3  22
ATOM     22  C   LIG d   1      -1.966  89.643 117.751  0.00  0.00     0.382 C 
ATOM     23  O   LIG d   1      -2.228  88.671 118.500  0.00  0.00    -0.241 OA
ATOM     24  O   LIG d   1      -2.894  90.235 117.169  0.00  0.00    -0.241 OA
ENDBRANCH   3  22
TORSDOF 7
ENDMDL
MODEL 2
REMARK VINA RESULT:      -4.9      5.515      7.776
REMARK  7 active torsions:
REMARK  status: ('A' for Active; 'I' for Inactive)
REMARK    1  A    between atoms: C_2  and  C_3 
REMARK    2  A    between atoms: C_3  and  O_6 
REMARK    3  A    between atoms: C_3  and  C_4 
REMARK    4  A    between atoms: C_7  and  O_6 
REMARK    5  A    between atoms: C_9  and  C_10 
REMARK    6  A    between atoms: N_15  and  C_14 
REMARK    7  A    between atoms: N_20  and  C_19 
REMARK       I    between atoms: C_22  and  N_20 
ROOT
ATOM      1  C   LIG d   1      -4.472  92.406 117.584  0.00  0.00     0.161 C 
ATOM      2  C   LIG d   1      -4.787  91.546 116.520  0.00  0.00     0.016 C 
ATOM      3  C   LIG d   1      -5.917  91.720 115.687  0.00  0.00     0.038 C 
ATOM      4  C   LIG d   1      -6.730  92.859 115.770  0.00  0.00     0.028 C 
ATOM      5  C   LIG d   1      -6.743  93.495 117.156  0.00  0.00    -0.047 C 
ATOM      6  C   LIG d   1      -5.285  93.717 117.620  0.00  0.00     0.091 C 
ENDROOT
BRANCH   1   7
ATOM      7  O   LIG d   1      -3.059  92.693 117.579  0.00  0.00    -0.368 OA
BRANCH   7   8
ATOM      8  C   LIG d   1      -2.260  91.983 118.557  0.00  0.00     0.119 C 
BRANCH   8   9
ATOM      9  C   LIG d   1      -1.330  93.011 119.229  0.00  0.00     0.028 C 
ATOM     10  C   LIG d   1      -0.705  93.986 118.218  0.00  0.00     0.006 C 
ENDBRANCH   8   9
BRANCH   8  11
ATOM     11  C   LIG d   1      -1.328  90.970 117.886  0.00  0.00     0.028 C 
ATOM     12  C   LIG d   1      -1.843  89.526 117.989  0.00  0.00     0.006 C 
ENDBRANCH   8  11
ENDBRANCH   7   8
ENDBRANCH   1   7
BRANCH   6  13
ATOM     13  N   LIG d   1      -5.206  94.258 119.002  0.00  0.00    -0.311 N 
ATOM     14  C   LIG d   1      -4.379  95.239 119.359  0.00  0.00     0.210 C 
ATOM     15  C   LIG d   1      -4.443  95.633 120.838  0.00  0.00     0.109 C 
ATOM     16  O   LIG d   1      -3.622  95.843 118.584  0.00  0.00    -0.276 OA
ATOM     17  H   LIG d   1      -5.808  93.847 119.688  0.00  0.00     0.149 HD
ENDBRANCH   6  13
BRANCH   5  18
ATOM     18  N   LIG d   1      -7.517  94.748 117.065  0.00  0.00     0.381 N 
ATOM     19  H   LIG d   1      -7.207  95.281 116.278  0.00  0.00    -0.090 HD
ATOM     20  H   LIG d   1      -7.358  95.290 117.896  0.00  0.00    -0.090 HD
ATOM     21  H   LIG d   1      -8.488  94.543 116.975  0.00  0.00    -0.090 HD
ENDBRANCH   5  18
BRANCH   3  22
ATOM     22  C   LIG d   1      -6.265  90.726 114.786  0.00  0.00     0.382 C 
ATOM     23  O   LIG d   1      -7.292  90.855 114.077  0.00  0.00    -0.241 OA
ATOM     24  O   LIG d   1      -5.591  89.682 114.704  0.00  0.00    -0.241 OA
ENDBRANCH   3  22
TORSDOF 7
ENDMDL
MODEL 3
REMARK VINA RESULT:      -4.7      2.279      5.246
REMARK  7 active torsions:
REMARK  status: ('A' for Active; 'I' for Inactive)
REMARK    1  A    between atoms: C_2  and  C_3 
REMARK    2  A    between atoms: C_3  and  O_6 
REMARK    3  A    between atoms: C_3  and  C_4 
REMARK    4  A    between atoms: C_7  and  O_6 
REMARK    5  A    between atoms: C_9  and  C_10 
REMARK    6  A    between atoms: N_15  and  C_14 
REMARK    7  A    between atoms: N_20  and  C_19 
REMARK       I    between atoms: C_22  and  N_20 
ROOT
ATOM      1  C   LIG d   1       1.904  89.988 116.008  0.00  0.00     0.161 C 
ATOM      2  C   LIG d   1       3.029  89.283 115.549  0.00  0.00     0.016 C 
ATOM      3  C   LIG d   1       4.354  89.600 115.929  0.00  0.00     0.038 C 
ATOM      4  C   LIG d   1       4.633  90.554 116.920  0.00  0.00     0.028 C 
ATOM      5  C   LIG d   1       3.564  91.635 117.038  0.00  0.00    -0.047 C 
ATOM      6  C   LIG d   1       2.180  90.959 117.174  0.00  0.00     0.091 C 
ENDROOT
BRANCH   1   7
ATOM      7  O   LIG d   1       0.859  89.061 116.364  0.00  0.00    -0.368 OA
BRANCH   7   8
ATOM      8  C   LIG d   1       0.922  88.514 117.704  0.00  0.00     0.119 C 
BRANCH   8   9
ATOM      9  C   LIG d   1       1.211  87.006 117.577  0.00  0.00     0.028 C 
ATOM     10  C   LIG d   1       0.548  86.185 118.695  0.00  0.00     0.006 C 
ENDBRANCH   8   9
BRANCH   8  11
ATOM     11  C   LIG d   1      -0.435  88.609 118.409  0.00  0.00     0.028 C 
ATOM     12  C   LIG d   1      -1.500  89.318 117.557  0.00  0.00     0.006 C 
ENDBRANCH   8  11
ENDBRANCH   7   8
ENDBRANCH   1   7
BRANCH   6  13
ATOM     13  N   LIG d   1       1.069  91.945 117.211  0.00  0.00    -0.311 N 
ATOM     14  C   LIG d   1       0.555  92.429 118.341  0.00  0.00     0.210 C 
ATOM     15  C   LIG d   1      -0.599  93.420 118.154  0.00  0.00     0.109 C 
ATOM     16  O   LIG d   1       0.965  92.156 119.478  0.00  0.00    -0.276 OA
ATOM     17  H   LIG d   1       0.696  92.245 116.332  0.00  0.00     0.149 HD
ENDBRANCH   6  13
BRANCH   5  18
ATOM     18  N   LIG d   1       3.911  92.480 118.196  0.00  0.00     0.381 N 
ATOM     19  H   LIG d   1       3.755  93.442 117.972  0.00  0.00    -0.090 HD
ATOM     20  H   LIG d   1       4.886  92.359 118.406  0.00  0.00    -0.090 HD
ATOM     21  H   LIG d   1       3.359  92.222 118.984  0.00  0.00    -0.090 HD
ENDBRANCH   5  18
BRANCH   3  22
ATOM     22  C   LIG d   1       5.419  88.987 115.287  0.00  0.00     0.382 C 
ATOM     23  O   LIG d   1       5.341  88.714 114.065  0.00  0.00    -0.241 OA
ATOM     24  O   LIG d   1       6.439  88.663 115.924  0.00  0.00    -0.241 OA
ENDBRANCH   3  22
TORSDOF 7
ENDMDL
MODEL 4
REMARK VINA RESULT:      -4.5      4.900      8.183
REMARK  7 active torsions:
REMARK  status: ('A' for Active; 'I' for Inactive)
REMARK    1  A    between atoms: C_2  and  C_3 
REMARK    2  A    between atoms: C_3  and  O_6 
REMARK    3  A    between atoms: C_3  and  C_4 
REMARK    4  A    between atoms: C_7  and  O_6 
REMARK    5  A    between atoms: C_9  and  C_10 
REMARK    6  A    between atoms: N_15  and  C_14 
REMARK    7  A    between atoms: N_20  and  C_19 
REMARK       I    between atoms: C_22  and  N_20 
ROOT
ATOM      1  C   LIG d   1      -4.373  92.261 117.138  0.00  0.00     0.161 C 
ATOM      2  C   LIG d   1      -3.455  91.208 116.996  0.00  0.00     0.016 C 
ATOM      3  C   LIG d   1      -2.416  90.952 117.921  0.00  0.00     0.038 C 
ATOM      4  C   LIG d   1      -2.318  91.645 119.137  0.00  0.00     0.028 C 
ATOM      5  C   LIG d   1      -2.917  93.046 119.085  0.00  0.00    -0.047 C 
ATOM      6  C   LIG d   1      -4.351  92.959 118.515  0.00  0.00     0.091 C 
ENDROOT
BRANCH   1   7
ATOM      7  O   LIG d   1      -5.703  91.794 116.836  0.00  0.00    -0.368 OA
BRANCH   7   8
ATOM      8  C   LIG d   1      -5.962  91.463 115.449  0.00  0.00     0.119 C 
BRANCH   8   9
ATOM      9  C   LIG d   1      -6.939  92.519 114.896  0.00  0.00     0.028 C 
ATOM     10  C   LIG d   1      -7.324  92.251 113.431  0.00  0.00     0.006 C 
ENDBRANCH   8   9
BRANCH   8  11
ATOM     11  C   LIG d   1      -6.696  90.125 115.323  0.00  0.00     0.028 C 
ATOM     12  C   LIG d   1      -8.122  90.172 115.896  0.00  0.00     0.006 C 
ENDBRANCH   8  11
ENDBRANCH   7   8
ENDBRANCH   1   7
BRANCH   6  13
ATOM     13  N   LIG d   1      -4.979  94.296 118.352  0.00  0.00    -0.311 N 
ATOM     14  C   LIG d   1      -5.665  94.905 119.317  0.00  0.00     0.210 C 
ATOM     15  C   LIG d   1      -6.247  96.270 118.934  0.00  0.00     0.109 C 
ATOM     16  O   LIG d   1      -5.820  94.460 120.464  0.00  0.00    -0.276 OA
ATOM     17  H   LIG d   1      -4.875  94.743 117.462  0.00  0.00     0.149 HD
ENDBRANCH   6  13
BRANCH   5  18
ATOM     18  N   LIG d   1      -2.871  93.601 120.452  0.00  0.00     0.381 N 
ATOM     19  H   LIG d   1      -3.797  93.824 120.758  0.00  0.00    -0.090 HD
ATOM     20  H   LIG d   1      -2.330  94.447 120.441  0.00  0.00    -0.090 HD
ATOM     21  H   LIG d   1      -2.458  92.941 121.074  0.00  0.00    -0.090 HD
ENDBRANCH   5  18
BRANCH   3  22
ATOM     22  C   LIG d   1      -1.437  90.020 117.613  0.00  0.00     0.382 C 
ATOM     23  O   LIG d   1      -1.703  88.794 117.653  0.00  0.00    -0.241 OA
ATOM     24  O   LIG d   1      -0.278  90.387 117.339  0.00  0.00    -0.241 OA
ENDBRANCH   3  22
TORSDOF 7
ENDMDL
MODEL 5
REMARK VINA RESULT:      -4.5      2.303      6.251
REMARK  7 active torsions:
REMARK  status: ('A' for Active; 'I' for Inactive)
REMARK    1  A    between atoms: C_2  and  C_3 
REMARK    2  A    between atoms: C_3  and  O_6 
REMARK    3  A    between atoms: C_3  and  C_4 
REMARK    4  A    between atoms: C_7  and  O_6 
REMARK    5  A    between atoms: C_9  and  C_10 
REMARK    6  A    between atoms: N_15  and  C_14 
REMARK    7  A    between atoms: N_20  and  C_19 
REMARK       I    between atoms: C_22  and  N_20 
ROOT
ATOM      1  C   LIG d   1       1.735  90.368 117.062  0.00  0.00     0.161 C 
ATOM      2  C   LIG d   1       2.731  90.516 116.083  0.00  0.00     0.016 C 
ATOM      3  C   LIG d   1       3.345  89.426 115.425  0.00  0.00     0.038 C 
ATOM      4  C   LIG d   1       2.893  88.108 115.595  0.00  0.00     0.028 C 
ATOM      5  C   LIG d   1       2.233  87.864 116.948  0.00  0.00    -0.047 C 
ATOM      6  C   LIG d   1       1.151  88.944 117.180  0.00  0.00     0.091 C 
ENDROOT
BRANCH   1   7
ATOM      7  O   LIG d   1       0.680  91.324 116.836  0.00  0.00    -0.368 OA
BRANCH   7   8
ATOM      8  C   LIG d   1       0.670  92.480 117.709  0.00  0.00     0.119 C 
BRANCH   8   9
ATOM      9  C   LIG d   1       1.530  92.137 118.941  0.00  0.00     0.028 C 
ATOM     10  C   LIG d   1       0.888  92.610 120.256  0.00  0.00     0.006 C 
ENDBRANCH   8   9
BRANCH   8  11
ATOM     11  C   LIG d   1      -0.734  92.751 118.258  0.00  0.00     0.028 C 
ATOM     12  C   LIG d   1      -1.379  94.007 117.652  0.00  0.00     0.006 C 
ENDBRANCH   8  11
ENDBRANCH   7   8
ENDBRANCH   1   7
BRANCH   6  13
ATOM     13  N   LIG d   1       0.514  88.829 118.518  0.00  0.00    -0.311 N 
ATOM     14  C   LIG d   1      -0.805  88.778 118.699  0.00  0.00     0.210 C 
ATOM     15  C   LIG d   1      -1.253  88.679 120.161  0.00  0.00     0.109 C 
ATOM     16  O   LIG d   1      -1.645  88.772 117.787  0.00  0.00    -0.276 OA
ATOM     17  H   LIG d   1       1.122  88.795 119.312  0.00  0.00     0.149 HD
ENDBRANCH   6  13
BRANCH   5  18
ATOM     18  N   LIG d   1       1.688  86.493 116.936  0.00  0.00     0.381 N 
ATOM     19  H   LIG d   1       2.410  85.840 117.166  0.00  0.00    -0.090 HD
ATOM     20  H   LIG d   1       1.354  86.284 116.012  0.00  0.00    -0.090 HD
ATOM     21  H   LIG d   1       0.941  86.418 117.592  0.00  0.00    -0.090 HD
ENDBRANCH   5  18
BRANCH   3  22
ATOM     22  C   LIG d   1       4.450  89.644 114.617  0.00  0.00     0.382 C 
ATOM     23  O   LIG d   1       4.293  90.023 113.431  0.00  0.00    -0.241 OA
ATOM     24  O   LIG d   1       5.599  89.424 115.044  0.00  0.00    -0.241 OA
ENDBRANCH   3  22
TORSDOF 7
ENDMDL
MODEL 6
REMARK VINA RESULT:      -4.5      2.383      4.251
REMARK  7 active torsions:
REMARK  status: ('A' for Active; 'I' for Inactive)
REMARK    1  A    between atoms: C_2  and  C_3 
REMARK    2  A    between atoms: C_3  and  O_6 
REMARK    3  A    between atoms: C_3  and  C_4 
REMARK    4  A    between atoms: C_7  and  O_6 
REMARK    5  A    between atoms: C_9  and  C_10 
REMARK    6  A    between atoms: N_15  and  C_14 
REMARK    7  A    between atoms: N_20  and  C_19 
REMARK       I    between atoms: C_22  and  N_20 
ROOT
ATOM      1  C   LIG d   1       2.136  90.732 116.968  0.00  0.00     0.161 C 
ATOM      2  C   LIG d   1       1.671  91.877 117.635  0.00  0.00     0.016 C 
ATOM      3  C   LIG d   1       0.334  92.035 118.069  0.00  0.00     0.038 C 
ATOM      4  C   LIG d   1      -0.597  90.989 117.998  0.00  0.00     0.028 C 
ATOM      5  C   LIG d   1      -0.309  89.996 116.877  0.00  0.00    -0.047 C 
ATOM      6  C   LIG d   1       1.163  89.535 116.981  0.00  0.00     0.091 C 
ENDROOT
BRANCH   1   7
ATOM      7  O   LIG d   1       3.417  90.341 117.502  0.00  0.00    -0.368 OA
BRANCH   7   8
ATOM      8  C   LIG d   1       4.578  90.764 116.747  0.00  0.00     0.119 C 
BRANCH   8   9
ATOM      9  C   LIG d   1       5.062  89.554 115.925  0.00  0.00     0.028 C 
ATOM     10  C   LIG d   1       4.681  89.663 114.439  0.00  0.00     0.006 C 
ENDBRANCH   8   9
BRANCH   8  11
ATOM     11  C   LIG d   1       5.746  91.119 117.672  0.00  0.00     0.028 C 
ATOM     12  C   LIG d   1       7.046  90.390 117.297  0.00  0.00     0.006 C 
ENDBRANCH   8  11
ENDBRANCH   7   8
ENDBRANCH   1   7
BRANCH   6  13
ATOM     13  N   LIG d   1       1.552  88.626 115.871  0.00  0.00    -0.311 N 
ATOM     14  C   LIG d   1       2.021  87.395 116.061  0.00  0.00     0.210 C 
ATOM     15  C   LIG d   1       2.381  86.634 114.781  0.00  0.00     0.109 C 
ATOM     16  O   LIG d   1       2.144  86.848 117.168  0.00  0.00    -0.276 OA
ATOM     17  H   LIG d   1       1.455  88.978 114.938  0.00  0.00     0.149 HD
ENDBRANCH   6  13
BRANCH   5  18
ATOM     18  N   LIG d   1      -1.273  88.887 117.005  0.00  0.00     0.381 N 
ATOM     19  H   LIG d   1      -1.817  89.005 117.836  0.00  0.00    -0.090 HD
ATOM     20  H   LIG d   1      -0.766  88.023 117.080  0.00  0.00    -0.090 HD
ATOM     21  H   LIG d   1      -1.871  88.862 116.208  0.00  0.00    -0.090 HD
ENDBRANCH   5  18
BRANCH   3  22
ATOM     22  C   LIG d   1      -0.093  93.266 118.545  0.00  0.00     0.382 C 
ATOM     23  O   LIG d   1      -0.690  94.060 117.780  0.00  0.00    -0.241 OA
ATOM     24  O   LIG d   1       0.151  93.609 119.717  0.00  0.00    -0.241 OA
ENDBRANCH   3  22
TORSDOF 7
ENDMDL
MODEL 7
REMARK VINA RESULT:      -4.4      2.583      6.004
REMARK  7 active torsions:
REMARK  status: ('A' for Active; 'I' for Inactive)
REMARK    1  A    between atoms: C_2  and  C_3 
REMARK    2  A    between atoms: C_3  and  O_6 
REMARK    3  A    between atoms: C_3  and  C_4 
REMARK    4  A    between atoms: C_7  and  O_6 
REMARK    5  A    between atoms: C_9  and  C_10 
REMARK    6  A    between atoms: N_15  and  C_14 
REMARK    7  A    between atoms: N_20  and  C_19 
REMARK       I    between atoms: C_22  and  N_20 
ROOT
ATOM      1  C   LIG d   1       3.523  91.700 117.945  0.00  0.00     0.161 C 
ATOM      2  C   LIG d   1       3.920  92.739 118.802  0.00  0.00     0.016 C 
ATOM      3  C   LIG d   1       5.269  93.007 119.129  0.00  0.00     0.038 C 
ATOM      4  C   LIG d   1       6.330  92.342 118.497  0.00  0.00     0.028 C 
ATOM      5  C   LIG d   1       5.964  90.946 118.005  0.00  0.00    -0.047 C 
ATOM      6  C   LIG d   1       4.673  91.035 117.159  0.00  0.00     0.091 C 
ENDROOT
BRANCH   1   7
ATOM      7  O   LIG d   1       2.506  92.174 117.040  0.00  0.00    -0.368 OA
BRANCH   7   8
ATOM      8  C   LIG d   1       1.182  91.615 117.220  0.00  0.00     0.119 C 
BRANCH   8   9
ATOM      9  C   LIG d   1       0.266  92.746 117.726  0.00  0.00     0.028 C 
ATOM     10  C   LIG d   1       0.191  92.799 119.261  0.00  0.00     0.006 C 
ENDBRANCH   8   9
BRANCH   8  11
ATOM     11  C   LIG d   1       1.169  90.557 118.328  0.00  0.00     0.028 C 
ATOM     12  C   LIG d   1       0.732  89.173 117.826  0.00  0.00     0.006 C 
ENDBRANCH   8  11
ENDBRANCH   7   8
ENDBRANCH   1   7
BRANCH   6  13
ATOM     13  N   LIG d   1       4.198  89.701 116.708  0.00  0.00    -0.311 N 
ATOM     14  C   LIG d   1       3.874  89.427 115.446  0.00  0.00     0.210 C 
ATOM     15  C   LIG d   1       3.388  87.995 115.199  0.00  0.00     0.109 C 
ATOM     16  O   LIG d   1       3.975  90.224 114.500  0.00  0.00    -0.276 OA
ATOM     17  H   LIG d   1       4.116  88.987 117.404  0.00  0.00     0.149 HD
ENDBRANCH   6  13
BRANCH   5  18
ATOM     18  N   LIG d   1       7.117  90.424 117.247  0.00  0.00     0.381 N 
ATOM     19  H   LIG d   1       6.798  89.797 116.535  0.00  0.00    -0.090 HD
ATOM     20  H   LIG d   1       7.713  89.913 117.873  0.00  0.00    -0.090 HD
ATOM     21  H   LIG d   1       7.623  91.177 116.834  0.00  0.00    -0.090 HD
ENDBRANCH   5  18
BRANCH   3  22
ATOM     22  C   LIG d   1       5.566  93.921 120.128  0.00  0.00     0.382 C 
ATOM     23  O   LIG d   1       6.708  93.934 120.647  0.00  0.00    -0.241 OA
ATOM     24  O   LIG d   1       4.693  94.704 120.548  0.00  0.00    -0.241 OA
ENDBRANCH   3  22
TORSDOF 7
ENDMDL
MODEL 8
REMARK VINA RESULT:      -4.4      2.120      5.033
REMARK  7 active torsions:
REMARK  status: ('A' for Active; 'I' for Inactive)
REMARK    1  A    between atoms: C_2  and  C_3 
REMARK    2  A    between atoms: C_3  and  O_6 
REMARK    3  A    between atoms: C_3  and  C_4 
REMARK    4  A    between atoms: C_7  and  O_6 
REMARK    5  A    between atoms: C_9  and  C_10 
REMARK    6  A    between atoms: N_15  and  C_14 
REMARK    7  A    between atoms: N_20  and  C_19 
REMARK       I    between atoms: C_22  and  N_20 
ROOT
ATOM      1  C   LIG d   1       2.853  90.568 116.102  0.00  0.00     0.161 C 
ATOM      2  C   LIG d   1       4.147  90.029 116.010  0.00  0.00     0.016 C 
ATOM      3  C   LIG d   1       5.153  90.251 116.979  0.00  0.00     0.038 C 
ATOM      4  C   LIG d   1       4.885  90.907 118.189  0.00  0.00     0.028 C 
ATOM      5  C   LIG d   1       3.732  91.901 118.097  0.00  0.00    -0.047 C 
ATOM      6  C   LIG d   1       2.509  91.194 117.470  0.00  0.00     0.091 C 
ENDROOT
BRANCH   1   7
ATOM      7  O   LIG d   1       1.880  89.564 115.751  0.00  0.00    -0.368 OA
BRANCH   7   8
ATOM      8  C   LIG d   1       2.097  88.244 116.308  0.00  0.00     0.119 C 
BRANCH   8   9
ATOM      9  C   LIG d   1       2.028  87.235 115.146  0.00  0.00     0.028 C 
ATOM     10  C   LIG d   1       3.347  86.467 114.956  0.00  0.00     0.006 C 
ENDBRANCH   8   9
BRANCH   8  11
ATOM     11  C   LIG d   1       0.963  87.848 117.258  0.00  0.00     0.028 C 
ATOM     12  C   LIG d   1      -0.276  88.745 117.115  0.00  0.00     0.006 C 
ENDBRANCH   8  11
ENDBRANCH   7   8
ENDBRANCH   1   7
BRANCH   6  13
ATOM     13  N   LIG d   1       1.363  92.118 117.266  0.00  0.00    -0.311 N 
ATOM     14  C   LIG d   1       0.394  92.293 118.163  0.00  0.00     0.210 C 
ATOM     15  C   LIG d   1      -0.704  93.276 117.745  0.00  0.00     0.109 C 
ATOM     16  O   LIG d   1       0.357  91.752 119.278  0.00  0.00    -0.276 OA
ATOM     17  H   LIG d   1       1.331  92.621 116.401  0.00  0.00     0.149 HD
ENDBRANCH   6  13
BRANCH   5  18
ATOM     18  N   LIG d   1       3.471  92.409 119.457  0.00  0.00     0.381 N 
ATOM     19  H   LIG d   1       3.147  93.354 119.410  0.00  0.00    -0.090 HD
ATOM     20  H   LIG d   1       4.330  92.396 119.979  0.00  0.00    -0.090 HD
ATOM     21  H   LIG d   1       2.791  91.838 119.910  0.00  0.00    -0.090 HD
ENDBRANCH   5  18
BRANCH   3  22
ATOM     22  C   LIG d   1       6.455  89.849 116.722  0.00  0.00     0.382 C 
ATOM     23  O   LIG d   1       7.418  90.527 117.155  0.00  0.00    -0.241 OA
ATOM     24  O   LIG d   1       6.679  88.840 116.025  0.00  0.00    -0.241 OA
ENDBRANCH   3  22
TORSDOF 7
ENDMDL
MODEL 9
REMARK VINA RESULT:      -4.4      2.627      5.440
REMARK  7 active torsions:
REMARK  status: ('A' for Active; 'I' for Inactive)
REMARK    1  A    between atoms: C_2  and  C_3 
REMARK    2  A    between atoms: C_3  and  O_6 
REMARK    3  A    between atoms: C_3  and  C_4 
REMARK    4  A    between atoms: C_7  and  O_6 
REMARK    5  A    between atoms: C_9  and  C_10 
REMARK    6  A    between atoms: N_15  and  C_14 
REMARK    7  A    between atoms: N_20  and  C_19 
REMARK       I    between atoms: C_22  and  N_20 
ROOT
ATOM      1  C   LIG d   1       0.614  91.669 117.022  0.00  0.00     0.161 C 
ATOM      2  C   LIG d   1       1.987  91.601 117.310  0.00  0.00     0.016 C 
ATOM      3  C   LIG d   1       2.556  92.088 118.510  0.00  0.00     0.038 C 
ATOM      4  C   LIG d   1       1.764  92.541 119.575  0.00  0.00     0.028 C 
ATOM      5  C   LIG d   1       0.414  93.096 119.133  0.00  0.00    -0.047 C 
ATOM      6  C   LIG d   1      -0.279  92.059 118.219  0.00  0.00     0.091 C 
ENDROOT
BRANCH   1   7
ATOM      7  O   LIG d   1       0.172  90.421 116.453  0.00  0.00    -0.368 OA
BRANCH   7   8
ATOM      8  C   LIG d   1       0.140  89.286 117.353  0.00  0.00     0.119 C 
BRANCH   8   9
ATOM      9  C   LIG d   1       0.821  88.105 116.634  0.00  0.00     0.028 C 
ATOM     10  C   LIG d   1       2.263  87.875 117.117  0.00  0.00     0.006 C 
ENDBRANCH   8   9
BRANCH   8  11
ATOM     11  C   LIG d   1      -1.296  88.825 117.619  0.00  0.00     0.028 C 
ATOM     12  C   LIG d   1      -1.541  88.457 119.091  0.00  0.00     0.006 C 
ENDBRANCH   8  11
ENDBRANCH   7   8
ENDBRANCH   1   7
BRANCH   6  13
ATOM     13  N   LIG d   1      -1.569  92.557 117.674  0.00  0.00    -0.311 N 
ATOM     14  C   LIG d   1      -2.741  92.373 118.280  0.00  0.00     0.210 C 
ATOM     15  C   LIG d   1      -3.950  92.950 117.537  0.00  0.00     0.109 C 
ATOM     16  O   LIG d   1      -2.889  91.816 119.378  0.00  0.00    -0.276 OA
ATOM     17  H   LIG d   1      -1.536  93.048 116.801  0.00  0.00     0.149 HD
ENDBRANCH   6  13
BRANCH   5  18
ATOM     18  N   LIG d   1      -0.362  93.403 120.349  0.00  0.00     0.381 N 
ATOM     19  H   LIG d   1      -0.984  92.647 120.555  0.00  0.00    -0.090 HD
ATOM     20  H   LIG d   1      -0.911  94.228 120.184  0.00  0.00    -0.090 HD
ATOM     21  H   LIG d   1       0.254  93.554 121.118  0.00  0.00    -0.090 HD
ENDBRANCH   5  18
BRANCH   3  22
ATOM     22  C   LIG d   1       3.935  92.160 118.637  0.00  0.00     0.382 C 
ATOM     23  O   LIG d   1       4.450  92.384 119.759  0.00  0.00    -0.241 OA
ATOM     24  O   LIG d   1       4.668  92.049 117.637  0.00  0.00    -0.241 OA
ENDBRANCH   3  22
TORSDOF 7
ENDMDL
