MODEL 1
REMARK VINA RESULT:      -5.7      0.000      0.000
REMARK  7 active torsions:
REMARK  status: ('A' for Active; 'I' for Inactive)
REMARK    1  A    between atoms: C_2  and  C_3 
REMARK    2  A    between atoms: C_3  and  O_6 
REMARK    3  A    between atoms: C_3  and  C_4 
REMARK    4  A    between atoms: C_7  and  O_6 
REMARK    5  A    between atoms: C_9  and  C_10 
REMARK    6  A    between atoms: N_15  and  C_14 
REMARK    7  A    between atoms: N_20  and  C_19 
REMARK       I    between atoms: C_22  and  N_20 
ROOT
ATOM      1  C   LIG d   1      -5.056  91.911 118.726  0.00  0.00     0.161 C 
ATOM      2  C   LIG d   1      -3.939  92.190 119.530  0.00  0.00     0.016 C 
ATOM      3  C   LIG d   1      -2.628  91.763 119.216  0.00  0.00     0.038 C 
ATOM      4  C   LIG d   1      -2.321  91.153 117.990  0.00  0.00     0.028 C 
ATOM      5  C   LIG d   1      -3.498  90.404 117.374  0.00  0.00    -0.047 C 
ATOM      6  C   LIG d   1      -4.724  91.344 117.330  0.00  0.00     0.091 C 
ENDROOT
BRANCH   1   7
ATOM      7  O   LIG d   1      -5.877  93.090 118.605  0.00  0.00    -0.368 OA
BRANCH   7   8
ATOM      8  C   LIG d   1      -6.185  93.782 119.840  0.00  0.00     0.119 C 
BRANCH   8   9
ATOM      9  C   LIG d   1      -7.719  93.790 119.996  0.00  0.00     0.028 C 
ATOM     10  C   LIG d   1      -8.290  95.215 120.098  0.00  0.00     0.006 C 
ENDBRANCH   8   9
BRANCH   8  11
ATOM     11  C   LIG d   1      -5.776  95.256 119.771  0.00  0.00     0.028 C 
ATOM     12  C   LIG d   1      -4.544  95.574 120.632  0.00  0.00     0.006 C 
ENDBRANCH   8  11
ENDBRANCH   7   8
ENDBRANCH   1   7
BRANCH   6  13
ATOM     13  N   LIG d   1      -5.942  90.663 116.819  0.00  0.00    -0.311 N 
ATOM     14  C   LIG d   1      -6.348  90.739 115.553  0.00  0.00     0.210 C 
ATOM     15  C   LIG d   1      -7.640  89.979 115.241  0.00  0.00     0.109 C 
ATOM     16  O   LIG d   1      -5.742  91.338 114.651  0.00  0.00    -0.276 OA
ATOM     17  H   LIG d   1      -6.476  90.130 117.477  0.00  0.00     0.149 HD
ENDBRANCH   6  13
BRANCH   5  18
ATOM     18  N   LIG d   1      -3.079  89.936 116.040  0.00  0.00     0.381 N 
ATOM     19  H   LIG d   1      -2.484  89.137 116.132  0.00  0.00    -0.090 HD
ATOM     20  H   LIG d   1      -2.558  90.667 115.588  0.00  0.00    -0.090 HD
ATOM     21  H   LIG d   1      -3.879  89.702 115.494  0.00  0.00    -0.090 HD
ENDBRANCH   5  18
BRANCH   3  22
ATOM     22  C   LIG d   1      -1.615  91.909 120.151  0.00  0.00     0.382 C 
ATOM     23  O   LIG d   1      -1.605  92.904 120.915  0.00  0.00    -0.241 OA
ATOM     24  O   LIG d   1      -0.686  91.081 120.210  0.00  0.00    -0.241 OA
ENDBRANCH   3  22
TORSDOF 7
ENDMDL
MODEL 2
REMARK VINA RESULT:      -5.6      1.588      4.584
REMARK  7 active torsions:
REMARK  status: ('A' for Active; 'I' for Inactive)
REMARK    1  A    between atoms: C_2  and  C_3 
REMARK    2  A    between atoms: C_3  and  O_6 
REMARK    3  A    between atoms: C_3  and  C_4 
REMARK    4  A    between atoms: C_7  and  O_6 
REMARK    5  A    between atoms: C_9  and  C_10 
REMARK    6  A    between atoms: N_15  and  C_14 
REMARK    7  A    between atoms: N_20  and  C_19 
REMARK       I    between atoms: C_22  and  N_20 
ROOT
ATOM      1  C   LIG d   1      -4.883  92.433 118.796  0.00  0.00     0.161 C 
ATOM      2  C   LIG d   1      -5.853  91.805 117.998  0.00  0.00     0.016 C 
ATOM      3  C   LIG d   1      -5.538  90.921 116.941  0.00  0.00     0.038 C 
ATOM      4  C   LIG d   1      -4.226  90.485 116.705  0.00  0.00     0.028 C 
ATOM      5  C   LIG d   1      -3.165  91.482 117.161  0.00  0.00    -0.047 C 
ATOM      6  C   LIG d   1      -3.451  91.884 118.626  0.00  0.00     0.091 C 
ENDROOT
BRANCH   1   7
ATOM      7  O   LIG d   1      -5.279  92.379 120.181  0.00  0.00    -0.368 OA
BRANCH   7   8
ATOM      8  C   LIG d   1      -5.724  93.627 120.766  0.00  0.00     0.119 C 
BRANCH   8   9
ATOM      9  C   LIG d   1      -7.254  93.542 120.929  0.00  0.00     0.028 C 
ATOM     10  C   LIG d   1      -8.005  94.343 119.852  0.00  0.00     0.006 C 
ENDBRANCH   8   9
BRANCH   8  11
ATOM     11  C   LIG d   1      -5.482  94.805 119.818  0.00  0.00     0.028 C 
ATOM     12  C   LIG d   1      -4.395  95.765 120.325  0.00  0.00     0.006 C 
ENDBRANCH   8  11
ENDBRANCH   7   8
ENDBRANCH   1   7
BRANCH   6  13
ATOM     13  N   LIG d   1      -2.509  92.921 119.123  0.00  0.00    -0.311 N 
ATOM     14  C   LIG d   1      -1.347  92.636 119.707  0.00  0.00     0.210 C 
ATOM     15  C   LIG d   1      -0.537  93.853 120.164  0.00  0.00     0.109 C 
ATOM     16  O   LIG d   1      -0.895  91.491 119.861  0.00  0.00    -0.276 OA
ATOM     17  H   LIG d   1      -2.783  93.877 119.010  0.00  0.00     0.149 HD
ENDBRANCH   6  13
BRANCH   5  18
ATOM     18  N   LIG d   1      -1.848  90.844 116.982  0.00  0.00     0.381 N 
ATOM     19  H   LIG d   1      -1.619  90.806 116.009  0.00  0.00    -0.090 HD
ATOM     20  H   LIG d   1      -1.892  89.903 117.333  0.00  0.00    -0.090 HD
ATOM     21  H   LIG d   1      -1.151  91.358 117.475  0.00  0.00    -0.090 HD
ENDBRANCH   5  18
BRANCH   3  22
ATOM     22  C   LIG d   1      -6.538  90.495 116.080  0.00  0.00     0.382 C 
ATOM     23  O   LIG d   1      -7.271  89.528 116.401  0.00  0.00    -0.241 OA
ATOM     24  O   LIG d   1      -6.688  91.036 114.968  0.00  0.00    -0.241 OA
ENDBRANCH   3  22
TORSDOF 7
ENDMDL
MODEL 3
REMARK VINA RESULT:      -4.7      7.439      9.760
REMARK  7 active torsions:
REMARK  status: ('A' for Active; 'I' for Inactive)
REMARK    1  A    between atoms: C_2  and  C_3 
REMARK    2  A    between atoms: C_3  and  O_6 
REMARK    3  A    between atoms: C_3  and  C_4 
REMARK    4  A    between atoms: C_7  and  O_6 
REMARK    5  A    between atoms: C_9  and  C_10 
REMARK    6  A    between atoms: N_15  and  C_14 
REMARK    7  A    between atoms: N_20  and  C_19 
REMARK       I    between atoms: C_22  and  N_20 
ROOT
ATOM      1  C   LIG d   1       4.487  89.410 117.409  0.00  0.00     0.161 C 
ATOM      2  C   LIG d   1       5.493  90.103 118.104  0.00  0.00     0.016 C 
ATOM      3  C   LIG d   1       6.676  90.577 117.492  0.00  0.00     0.038 C 
ATOM      4  C   LIG d   1       6.866  90.522 116.103  0.00  0.00     0.028 C 
ATOM      5  C   LIG d   1       6.107  89.382 115.433  0.00  0.00    -0.047 C 
ATOM      6  C   LIG d   1       4.626  89.438 115.872  0.00  0.00     0.091 C 
ENDROOT
BRANCH   1   7
ATOM      7  O   LIG d   1       3.192  89.903 117.804  0.00  0.00    -0.368 OA
BRANCH   7   8
ATOM      8  C   LIG d   1       2.727  91.093 117.120  0.00  0.00     0.119 C 
BRANCH   8   9
ATOM      9  C   LIG d   1       2.601  92.212 118.172  0.00  0.00     0.028 C 
ATOM     10  C   LIG d   1       3.653  93.317 117.980  0.00  0.00     0.006 C 
ENDBRANCH   8   9
BRANCH   8  11
ATOM     11  C   LIG d   1       1.313  90.898 116.564  0.00  0.00     0.028 C 
ATOM     12  C   LIG d   1       0.262  91.747 117.298  0.00  0.00     0.006 C 
ENDBRANCH   8  11
ENDBRANCH   7   8
ENDBRANCH   1   7
BRANCH   6  13
ATOM     13  N   LIG d   1       3.830  88.308 115.328  0.00  0.00    -0.311 N 
ATOM     14  C   LIG d   1       3.145  88.375 114.188  0.00  0.00     0.210 C 
ATOM     15  C   LIG d   1       2.376  87.102 113.819  0.00  0.00     0.109 C 
ATOM     16  O   LIG d   1       3.128  89.357 113.430  0.00  0.00    -0.276 OA
ATOM     17  H   LIG d   1       3.814  87.462 115.864  0.00  0.00     0.149 HD
ENDBRANCH   6  13
BRANCH   5  18
ATOM     18  N   LIG d   1       6.283  89.525 113.975  0.00  0.00     0.381 N 
ATOM     19  H   LIG d   1       6.983  88.887 113.654  0.00  0.00    -0.090 HD
ATOM     20  H   LIG d   1       6.593  90.460 113.776  0.00  0.00    -0.090 HD
ATOM     21  H   LIG d   1       5.421  89.347 113.508  0.00  0.00    -0.090 HD
ENDBRANCH   5  18
BRANCH   3  22
ATOM     22  C   LIG d   1       7.703  91.078 118.278  0.00  0.00     0.382 C 
ATOM     23  O   LIG d   1       7.534  91.221 119.513  0.00  0.00    -0.241 OA
ATOM     24  O   LIG d   1       8.779  91.431 117.760  0.00  0.00    -0.241 OA
ENDBRANCH   3  22
TORSDOF 7
ENDMDL
MODEL 4
REMARK VINA RESULT:      -4.6      4.964      8.065
REMARK  7 active torsions:
REMARK  status: ('A' for Active; 'I' for Inactive)
REMARK    1  A    between atoms: C_2  and  C_3 
REMARK    2  A    between atoms: C_3  and  O_6 
REMARK    3  A    between atoms: C_3  and  C_4 
REMARK    4  A    between atoms: C_7  and  O_6 
REMARK    5  A    between atoms: C_9  and  C_10 
REMARK    6  A    between atoms: N_15  and  C_14 
REMARK    7  A    between atoms: N_20  and  C_19 
REMARK       I    between atoms: C_22  and  N_20 
ROOT
ATOM      1  C   LIG d   1       1.433  91.544 116.982  0.00  0.00     0.161 C 
ATOM      2  C   LIG d   1       2.647  92.162 117.326  0.00  0.00     0.016 C 
ATOM      3  C   LIG d   1       2.771  93.106 118.371  0.00  0.00     0.038 C 
ATOM      4  C   LIG d   1       1.712  93.385 119.248  0.00  0.00     0.028 C 
ATOM      5  C   LIG d   1       0.337  93.165 118.626  0.00  0.00    -0.047 C 
ATOM      6  C   LIG d   1       0.291  91.753 117.999  0.00  0.00     0.091 C 
ENDROOT
BRANCH   1   7
ATOM      7  O   LIG d   1       1.648  90.138 116.752  0.00  0.00    -0.368 OA
BRANCH   7   8
ATOM      8  C   LIG d   1       3.019  89.733 116.514  0.00  0.00     0.119 C 
BRANCH   8   9
ATOM      9  C   LIG d   1       3.120  89.287 115.043  0.00  0.00     0.028 C 
ATOM     10  C   LIG d   1       4.222  90.038 114.277  0.00  0.00     0.006 C 
ENDBRANCH   8   9
BRANCH   8  11
ATOM     11  C   LIG d   1       3.386  88.496 117.340  0.00  0.00     0.028 C 
ATOM     12  C   LIG d   1       3.148  87.182 116.580  0.00  0.00     0.006 C 
ENDBRANCH   8  11
ENDBRANCH   7   8
ENDBRANCH   1   7
BRANCH   6  13
ATOM     13  N   LIG d   1      -0.991  91.488 117.295  0.00  0.00    -0.311 N 
ATOM     14  C   LIG d   1      -2.094  91.068 117.914  0.00  0.00     0.210 C 
ATOM     15  C   LIG d   1      -3.300  90.837 116.999  0.00  0.00     0.109 C 
ATOM     16  O   LIG d   1      -2.196  90.897 119.138  0.00  0.00    -0.276 OA
ATOM     17  H   LIG d   1      -1.006  91.631 116.305  0.00  0.00     0.149 HD
ENDBRANCH   6  13
BRANCH   5  18
ATOM     18  N   LIG d   1      -0.668  93.359 119.688  0.00  0.00     0.381 N 
ATOM     19  H   LIG d   1      -1.536  92.946 119.412  0.00  0.00    -0.090 HD
ATOM     20  H   LIG d   1      -0.815  94.345 119.820  0.00  0.00    -0.090 HD
ATOM     21  H   LIG d   1      -0.351  92.947 120.538  0.00  0.00    -0.090 HD
ENDBRANCH   5  18
BRANCH   3  22
ATOM     22  C   LIG d   1       3.955  93.812 118.522  0.00  0.00     0.382 C 
ATOM     23  O   LIG d   1       4.810  93.807 117.604  0.00  0.00    -0.241 OA
ATOM     24  O   LIG d   1       4.199  94.416 119.584  0.00  0.00    -0.241 OA
ENDBRANCH   3  22
TORSDOF 7
ENDMDL
MODEL 5
REMARK VINA RESULT:      -4.5      4.082      6.539
REMARK  7 active torsions:
REMARK  status: ('A' for Active; 'I' for Inactive)
REMARK    1  A    between atoms: C_2  and  C_3 
REMARK    2  A    between atoms: C_3  and  O_6 
REMARK    3  A    between atoms: C_3  and  C_4 
REMARK    4  A    between atoms: C_7  and  O_6 
REMARK    5  A    between atoms: C_9  and  C_10 
REMARK    6  A    between atoms: N_15  and  C_14 
REMARK    7  A    between atoms: N_20  and  C_19 
REMARK       I    between atoms: C_22  and  N_20 
ROOT
ATOM      1  C   LIG d   1      -0.139  92.157 118.143  0.00  0.00     0.161 C 
ATOM      2  C   LIG d   1       0.666  91.475 117.215  0.00  0.00     0.016 C 
ATOM      3  C   LIG d   1       2.079  91.511 117.236  0.00  0.00     0.038 C 
ATOM      4  C   LIG d   1       2.790  92.113 118.285  0.00  0.00     0.028 C 
ATOM      5  C   LIG d   1       2.023  93.241 118.967  0.00  0.00    -0.047 C 
ATOM      6  C   LIG d   1       0.619  92.728 119.360  0.00  0.00     0.091 C 
ENDROOT
BRANCH   1   7
ATOM      7  O   LIG d   1      -1.214  91.302 118.579  0.00  0.00    -0.368 OA
BRANCH   7   8
ATOM      8  C   LIG d   1      -2.524  91.596 118.034  0.00  0.00     0.119 C 
BRANCH   8   9
ATOM      9  C   LIG d   1      -3.317  92.352 119.117  0.00  0.00     0.028 C 
ATOM     10  C   LIG d   1      -4.838  92.190 118.952  0.00  0.00     0.006 C 
ENDBRANCH   8   9
BRANCH   8  11
ATOM     11  C   LIG d   1      -3.319  90.314 117.770  0.00  0.00     0.028 C 
ATOM     12  C   LIG d   1      -3.499  90.022 116.272  0.00  0.00     0.006 C 
ENDBRANCH   8  11
ENDBRANCH   7   8
ENDBRANCH   1   7
BRANCH   6  13
ATOM     13  N   LIG d   1      -0.227  93.794 119.957  0.00  0.00    -0.311 N 
ATOM     14  C   LIG d   1      -0.161  95.073 119.593  0.00  0.00     0.210 C 
ATOM     15  C   LIG d   1      -1.107  96.011 120.349  0.00  0.00     0.109 C 
ATOM     16  O   LIG d   1       0.568  95.515 118.692  0.00  0.00    -0.276 OA
ATOM     17  H   LIG d   1      -0.870  93.518 120.674  0.00  0.00     0.149 HD
ENDBRANCH   6  13
BRANCH   5  18
ATOM     18  N   LIG d   1       2.822  93.686 120.125  0.00  0.00     0.381 N 
ATOM     19  H   LIG d   1       2.346  94.427 120.600  0.00  0.00    -0.090 HD
ATOM     20  H   LIG d   1       3.704  94.037 119.796  0.00  0.00    -0.090 HD
ATOM     21  H   LIG d   1       2.971  92.924 120.749  0.00  0.00    -0.090 HD
ENDBRANCH   5  18
BRANCH   3  22
ATOM     22  C   LIG d   1       2.796  90.973 116.178  0.00  0.00     0.382 C 
ATOM     23  O   LIG d   1       2.220  90.239 115.340  0.00  0.00    -0.241 OA
ATOM     24  O   LIG d   1       4.020  91.177 116.076  0.00  0.00    -0.241 OA
ENDBRANCH   3  22
TORSDOF 7
ENDMDL
MODEL 6
REMARK VINA RESULT:      -4.4      6.597      9.531
REMARK  7 active torsions:
REMARK  status: ('A' for Active; 'I' for Inactive)
REMARK    1  A    between atoms: C_2  and  C_3 
REMARK    2  A    between atoms: C_3  and  O_6 
REMARK    3  A    between atoms: C_3  and  C_4 
REMARK    4  A    between atoms: C_7  and  O_6 
REMARK    5  A    between atoms: C_9  and  C_10 
REMARK    6  A    between atoms: N_15  and  C_14 
REMARK    7  A    between atoms: N_20  and  C_19 
REMARK       I    between atoms: C_22  and  N_20 
ROOT
ATOM      1  C   LIG d   1       3.010  90.816 116.611  0.00  0.00     0.161 C 
ATOM      2  C   LIG d   1       2.632  89.718 115.821  0.00  0.00     0.016 C 
ATOM      3  C   LIG d   1       3.558  88.826 115.234  0.00  0.00     0.038 C 
ATOM      4  C   LIG d   1       4.930  88.884 115.524  0.00  0.00     0.028 C 
ATOM      5  C   LIG d   1       5.408  90.280 115.911  0.00  0.00    -0.047 C 
ATOM      6  C   LIG d   1       4.495  90.831 117.029  0.00  0.00     0.091 C 
ENDROOT
BRANCH   1   7
ATOM      7  O   LIG d   1       2.161  90.898 117.773  0.00  0.00    -0.368 OA
BRANCH   7   8
ATOM      8  C   LIG d   1       1.253  92.026 117.821  0.00  0.00     0.119 C 
BRANCH   8   9
ATOM      9  C   LIG d   1       1.208  92.522 119.279  0.00  0.00     0.028 C 
ATOM     10  C   LIG d   1       2.179  93.687 119.533  0.00  0.00     0.006 C 
ENDBRANCH   8   9
BRANCH   8  11
ATOM     11  C   LIG d   1      -0.181  91.601 117.493  0.00  0.00     0.028 C 
ATOM     12  C   LIG d   1      -1.135  91.746 118.689  0.00  0.00     0.006 C 
ENDBRANCH   8  11
ENDBRANCH   7   8
ENDBRANCH   1   7
BRANCH   6  13
ATOM     13  N   LIG d   1       4.842  92.226 117.408  0.00  0.00    -0.311 N 
ATOM     14  C   LIG d   1       5.633  92.532 118.435  0.00  0.00     0.210 C 
ATOM     15  C   LIG d   1       5.845  94.031 118.664  0.00  0.00     0.109 C 
ATOM     16  O   LIG d   1       6.204  91.703 119.159  0.00  0.00    -0.276 OA
ATOM     17  H   LIG d   1       4.447  92.961 116.855  0.00  0.00     0.149 HD
ENDBRANCH   6  13
BRANCH   5  18
ATOM     18  N   LIG d   1       6.821  90.169 116.319  0.00  0.00     0.381 N 
ATOM     19  H   LIG d   1       6.908  89.507 117.065  0.00  0.00    -0.090 HD
ATOM     20  H   LIG d   1       7.134  91.063 116.654  0.00  0.00    -0.090 HD
ATOM     21  H   LIG d   1       7.379  89.882 115.545  0.00  0.00    -0.090 HD
ENDBRANCH   5  18
BRANCH   3  22
ATOM     22  C   LIG d   1       3.119  87.886 114.315  0.00  0.00     0.382 C 
ATOM     23  O   LIG d   1       1.947  87.443 114.382  0.00  0.00    -0.241 OA
ATOM     24  O   LIG d   1       3.894  87.442 113.446  0.00  0.00    -0.241 OA
ENDBRANCH   3  22
TORSDOF 7
ENDMDL
MODEL 7
REMARK VINA RESULT:      -4.4      7.693     10.852
REMARK  7 active torsions:
REMARK  status: ('A' for Active; 'I' for Inactive)
REMARK    1  A    between atoms: C_2  and  C_3 
REMARK    2  A    between atoms: C_3  and  O_6 
REMARK    3  A    between atoms: C_3  and  C_4 
REMARK    4  A    between atoms: C_7  and  O_6 
REMARK    5  A    between atoms: C_9  and  C_10 
REMARK    6  A    between atoms: N_15  and  C_14 
REMARK    7  A    between atoms: N_20  and  C_19 
REMARK       I    between atoms: C_22  and  N_20 
ROOT
ATOM      1  C   LIG d   1       4.005  90.894 116.850  0.00  0.00     0.161 C 
ATOM      2  C   LIG d   1       2.960  91.767 117.195  0.00  0.00     0.016 C 
ATOM      3  C   LIG d   1       3.041  92.697 118.257  0.00  0.00     0.038 C 
ATOM      4  C   LIG d   1       4.238  92.923 118.955  0.00  0.00     0.028 C 
ATOM      5  C   LIG d   1       5.165  91.712 118.974  0.00  0.00    -0.047 C 
ATOM      6  C   LIG d   1       5.357  91.204 117.527  0.00  0.00     0.091 C 
ENDROOT
BRANCH   1   7
ATOM      7  O   LIG d   1       4.159  90.860 115.417  0.00  0.00    -0.368 OA
BRANCH   7   8
ATOM      8  C   LIG d   1       3.496  89.770 114.730  0.00  0.00     0.119 C 
BRANCH   8   9
ATOM      9  C   LIG d   1       3.369  88.603 115.728  0.00  0.00     0.028 C 
ATOM     10  C   LIG d   1       2.719  87.360 115.098  0.00  0.00     0.006 C 
ENDBRANCH   8   9
BRANCH   8  11
ATOM     11  C   LIG d   1       4.354  89.230 113.582  0.00  0.00     0.028 C 
ATOM     12  C   LIG d   1       5.860  89.307 113.877  0.00  0.00     0.006 C 
ENDBRANCH   8  11
ENDBRANCH   7   8
ENDBRANCH   1   7
BRANCH   6  13
ATOM     13  N   LIG d   1       6.184  89.970 117.465  0.00  0.00    -0.311 N 
ATOM     14  C   LIG d   1       7.498  89.979 117.250  0.00  0.00     0.210 C 
ATOM     15  C   LIG d   1       8.155  88.596 117.203  0.00  0.00     0.109 C 
ATOM     16  O   LIG d   1       8.188  91.002 117.126  0.00  0.00    -0.276 OA
ATOM     17  H   LIG d   1       5.710  89.097 117.586  0.00  0.00     0.149 HD
ENDBRANCH   6  13
BRANCH   5  18
ATOM     18  N   LIG d   1       6.428  92.129 119.612  0.00  0.00     0.381 N 
ATOM     19  H   LIG d   1       6.262  92.913 120.212  0.00  0.00    -0.090 HD
ATOM     20  H   LIG d   1       7.076  92.411 118.897  0.00  0.00    -0.090 HD
ATOM     21  H   LIG d   1       6.810  91.374 120.138  0.00  0.00    -0.090 HD
ENDBRANCH   5  18
BRANCH   3  22
ATOM     22  C   LIG d   1       1.906  93.384 118.658  0.00  0.00     0.382 C 
ATOM     23  O   LIG d   1       0.782  92.829 118.594  0.00  0.00    -0.241 OA
ATOM     24  O   LIG d   1       1.985  94.566 119.040  0.00  0.00    -0.241 OA
ENDBRANCH   3  22
TORSDOF 7
ENDMDL
MODEL 8
REMARK VINA RESULT:      -4.4      6.430     10.010
REMARK  7 active torsions:
REMARK  status: ('A' for Active; 'I' for Inactive)
REMARK    1  A    between atoms: C_2  and  C_3 
REMARK    2  A    between atoms: C_3  and  O_6 
REMARK    3  A    between atoms: C_3  and  C_4 
REMARK    4  A    between atoms: C_7  and  O_6 
REMARK    5  A    between atoms: C_9  and  C_10 
REMARK    6  A    between atoms: N_15  and  C_14 
REMARK    7  A    between atoms: N_20  and  C_19 
REMARK       I    between atoms: C_22  and  N_20 
ROOT
ATOM      1  C   LIG d   1       2.773  90.538 116.527  0.00  0.00     0.161 C 
ATOM      2  C   LIG d   1       1.430  90.952 116.540  0.00  0.00     0.016 C 
ATOM      3  C   LIG d   1       0.879  91.774 117.550  0.00  0.00     0.038 C 
ATOM      4  C   LIG d   1       1.676  92.366 118.541  0.00  0.00     0.028 C 
ATOM      5  C   LIG d   1       2.938  91.571 118.858  0.00  0.00    -0.047 C 
ATOM      6  C   LIG d   1       3.683  91.265 117.539  0.00  0.00     0.091 C 
ENDROOT
BRANCH   1   7
ATOM      7  O   LIG d   1       3.309  90.659 115.194  0.00  0.00    -0.368 OA
BRANCH   7   8
ATOM      8  C   LIG d   1       3.314  89.449 114.397  0.00  0.00     0.119 C 
BRANCH   8   9
ATOM      9  C   LIG d   1       3.342  88.254 115.370  0.00  0.00     0.028 C 
ATOM     10  C   LIG d   1       2.462  87.087 114.891  0.00  0.00     0.006 C 
ENDBRANCH   8   9
BRANCH   8  11
ATOM     11  C   LIG d   1       4.598  89.331 113.572  0.00  0.00     0.028 C 
ATOM     12  C   LIG d   1       5.867  89.564 114.408  0.00  0.00     0.006 C 
ENDBRANCH   8  11
ENDBRANCH   7   8
ENDBRANCH   1   7
BRANCH   6  13
ATOM     13  N   LIG d   1       4.886  90.418 117.751  0.00  0.00    -0.311 N 
ATOM     14  C   LIG d   1       6.099  90.913 117.988  0.00  0.00     0.210 C 
ATOM     15  C   LIG d   1       7.204  89.866 118.158  0.00  0.00     0.109 C 
ATOM     16  O   LIG d   1       6.359  92.120 118.107  0.00  0.00    -0.276 OA
ATOM     17  H   LIG d   1       4.759  89.426 117.703  0.00  0.00     0.149 HD
ENDBRANCH   6  13
BRANCH   5  18
ATOM     18  N   LIG d   1       3.741  92.369 119.804  0.00  0.00     0.381 N 
ATOM     19  H   LIG d   1       4.601  91.897 120.001  0.00  0.00    -0.090 HD
ATOM     20  H   LIG d   1       3.230  92.466 120.664  0.00  0.00    -0.090 HD
ATOM     21  H   LIG d   1       3.929  93.268 119.418  0.00  0.00    -0.090 HD
ENDBRANCH   5  18
BRANCH   3  22
ATOM     22  C   LIG d   1      -0.491  91.979 117.597  0.00  0.00     0.382 C 
ATOM     23  O   LIG d   1      -0.968  93.101 117.301  0.00  0.00    -0.241 OA
ATOM     24  O   LIG d   1      -1.253  91.069 117.975  0.00  0.00    -0.241 OA
ENDBRANCH   3  22
TORSDOF 7
ENDMDL
MODEL 9
REMARK VINA RESULT:      -4.4      7.274     10.165
REMARK  7 active torsions:
REMARK  status: ('A' for Active; 'I' for Inactive)
REMARK    1  A    between atoms: C_2  and  C_3 
REMARK    2  A    between atoms: C_3  and  O_6 
REMARK    3  A    between atoms: C_3  and  C_4 
REMARK    4  A    between atoms: C_7  and  O_6 
REMARK    5  A    between atoms: C_9  and  C_10 
REMARK    6  A    between atoms: N_15  and  C_14 
REMARK    7  A    between atoms: N_20  and  C_19 
REMARK       I    between atoms: C_22  and  N_20 
ROOT
ATOM      1  C   LIG d   1       4.401  91.036 116.929  0.00  0.00     0.161 C 
ATOM      2  C   LIG d   1       4.367  92.104 117.841  0.00  0.00     0.016 C 
ATOM      3  C   LIG d   1       3.168  92.704 118.291  0.00  0.00     0.038 C 
ATOM      4  C   LIG d   1       1.909  92.174 117.974  0.00  0.00     0.028 C 
ATOM      5  C   LIG d   1       1.888  91.409 116.655  0.00  0.00    -0.047 C 
ATOM      6  C   LIG d   1       3.034  90.372 116.658  0.00  0.00     0.091 C 
ENDROOT
BRANCH   1   7
ATOM      7  O   LIG d   1       5.358  90.051 117.366  0.00  0.00    -0.368 OA
BRANCH   7   8
ATOM      8  C   LIG d   1       6.571  89.948 116.581  0.00  0.00     0.119 C 
BRANCH   8   9
ATOM      9  C   LIG d   1       6.592  88.545 115.944  0.00  0.00     0.028 C 
ATOM     10  C   LIG d   1       6.313  87.431 116.967  0.00  0.00     0.006 C 
ENDBRANCH   8   9
BRANCH   8  11
ATOM     11  C   LIG d   1       7.817  90.009 117.469  0.00  0.00     0.028 C 
ATOM     12  C   LIG d   1       8.178  91.441 117.892  0.00  0.00     0.006 C 
ENDBRANCH   8  11
ENDBRANCH   7   8
ENDBRANCH   1   7
BRANCH   6  13
ATOM     13  N   LIG d   1       3.138  89.638 115.370  0.00  0.00    -0.311 N 
ATOM     14  C   LIG d   1       3.056  88.312 115.274  0.00  0.00     0.210 C 
ATOM     15  C   LIG d   1       3.209  87.756 113.854  0.00  0.00     0.109 C 
ATOM     16  O   LIG d   1       2.839  87.546 116.224  0.00  0.00    -0.276 OA
ATOM     17  H   LIG d   1       3.284  90.184 114.544  0.00  0.00     0.149 HD
ENDBRANCH   6  13
BRANCH   5  18
ATOM     18  N   LIG d   1       0.554  90.796 116.516  0.00  0.00     0.381 N 
ATOM     19  H   LIG d   1      -0.092  91.468 116.153  0.00  0.00    -0.090 HD
ATOM     20  H   LIG d   1       0.233  90.507 117.423  0.00  0.00    -0.090 HD
ATOM     21  H   LIG d   1       0.602  90.009 115.907  0.00  0.00    -0.090 HD
ENDBRANCH   5  18
BRANCH   3  22
ATOM     22  C   LIG d   1       3.223  93.873 119.036  0.00  0.00     0.382 C 
ATOM     23  O   LIG d   1       2.168  94.499 119.297  0.00  0.00    -0.241 OA
ATOM     24  O   LIG d   1       4.318  94.331 119.413  0.00  0.00    -0.241 OA
ENDBRANCH   3  22
TORSDOF 7
ENDMDL
