MODEL 1
REMARK VINA RESULT:      -5.4      0.000      0.000
REMARK  7 active torsions:
REMARK  status: ('A' for Active; 'I' for Inactive)
REMARK    1  A    between atoms: C_2  and  C_3 
REMARK    2  A    between atoms: C_3  and  O_6 
REMARK    3  A    between atoms: C_3  and  C_4 
REMARK    4  A    between atoms: C_7  and  O_6 
REMARK    5  A    between atoms: C_9  and  C_10 
REMARK    6  A    between atoms: N_15  and  C_14 
REMARK    7  A    between atoms: N_20  and  C_19 
REMARK       I    between atoms: C_22  and  N_20 
ROOT
ATOM      1  C   LIG d   1      -4.242  89.929 117.172  0.00  0.00     0.161 C 
ATOM      2  C   LIG d   1      -3.765  88.967 116.266  0.00  0.00     0.016 C 
ATOM      3  C   LIG d   1      -4.530  88.468 115.187  0.00  0.00     0.038 C 
ATOM      4  C   LIG d   1      -5.779  89.011 114.850  0.00  0.00     0.028 C 
ATOM      5  C   LIG d   1      -6.511  89.630 116.036  0.00  0.00    -0.047 C 
ATOM      6  C   LIG d   1      -5.560  90.614 116.754  0.00  0.00     0.091 C 
ENDROOT
BRANCH   1   7
ATOM      7  O   LIG d   1      -3.221  90.916 117.420  0.00  0.00    -0.368 OA
BRANCH   7   8
ATOM      8  C   LIG d   1      -2.775  91.041 118.793  0.00  0.00     0.119 C 
BRANCH   8   9
ATOM      9  C   LIG d   1      -2.805  92.538 119.155  0.00  0.00     0.028 C 
ATOM     10  C   LIG d   1      -2.912  93.440 117.914  0.00  0.00     0.006 C 
ENDBRANCH   8   9
BRANCH   8  11
ATOM     11  C   LIG d   1      -1.311  90.616 118.944  0.00  0.00     0.028 C 
ATOM     12  C   LIG d   1      -0.577  90.518 117.597  0.00  0.00     0.006 C 
ENDBRANCH   8  11
ENDBRANCH   7   8
ENDBRANCH   1   7
BRANCH   6  13
ATOM     13  N   LIG d   1      -6.170  91.200 117.977  0.00  0.00    -0.311 N 
ATOM     14  C   LIG d   1      -6.474  92.491 118.097  0.00  0.00     0.210 C 
ATOM     15  C   LIG d   1      -7.076  92.891 119.448  0.00  0.00     0.109 C 
ATOM     16  O   LIG d   1      -6.332  93.338 117.202  0.00  0.00    -0.276 OA
ATOM     17  H   LIG d   1      -6.348  90.579 118.741  0.00  0.00     0.149 HD
ENDBRANCH   6  13
BRANCH   5  18
ATOM     18  N   LIG d   1      -7.731  90.278 115.518  0.00  0.00     0.381 N 
ATOM     19  H   LIG d   1      -7.957  91.072 116.082  0.00  0.00    -0.090 HD
ATOM     20  H   LIG d   1      -8.493  89.625 115.571  0.00  0.00    -0.090 HD
ATOM     21  H   LIG d   1      -7.591  90.561 114.573  0.00  0.00    -0.090 HD
ENDBRANCH   5  18
BRANCH   3  22
ATOM     22  C   LIG d   1      -4.064  87.386 114.457  0.00  0.00     0.382 C 
ATOM     23  O   LIG d   1      -4.679  87.010 113.430  0.00  0.00    -0.241 OA
ATOM     24  O   LIG d   1      -3.060  86.753 114.836  0.00  0.00    -0.241 OA
ENDBRANCH   3  22
TORSDOF 7
ENDMDL
MODEL 2
REMARK VINA RESULT:      -5.2      2.491      4.627
REMARK  7 active torsions:
REMARK  status: ('A' for Active; 'I' for Inactive)
REMARK    1  A    between atoms: C_2  and  C_3 
REMARK    2  A    between atoms: C_3  and  O_6 
REMARK    3  A    between atoms: C_3  and  C_4 
REMARK    4  A    between atoms: C_7  and  O_6 
REMARK    5  A    between atoms: C_9  and  C_10 
REMARK    6  A    between atoms: N_15  and  C_14 
REMARK    7  A    between atoms: N_20  and  C_19 
REMARK       I    between atoms: C_22  and  N_20 
ROOT
ATOM      1  C   LIG d   1      -4.025  90.978 117.160  0.00  0.00     0.161 C 
ATOM      2  C   LIG d   1      -5.134  91.530 116.498  0.00  0.00     0.016 C 
ATOM      3  C   LIG d   1      -5.797  90.892 115.424  0.00  0.00     0.038 C 
ATOM      4  C   LIG d   1      -5.486  89.580 115.037  0.00  0.00     0.028 C 
ATOM      5  C   LIG d   1      -4.046  89.183 115.342  0.00  0.00    -0.047 C 
ATOM      6  C   LIG d   1      -3.742  89.499 116.824  0.00  0.00     0.091 C 
ENDROOT
BRANCH   1   7
ATOM      7  O   LIG d   1      -4.171  91.150 118.584  0.00  0.00    -0.368 OA
BRANCH   7   8
ATOM      8  C   LIG d   1      -5.048  92.221 119.010  0.00  0.00     0.119 C 
BRANCH   8   9
ATOM      9  C   LIG d   1      -4.188  93.249 119.771  0.00  0.00     0.028 C 
ATOM     10  C   LIG d   1      -3.550  94.288 118.833  0.00  0.00     0.006 C 
ENDBRANCH   8   9
BRANCH   8  11
ATOM     11  C   LIG d   1      -6.081  91.725 120.027  0.00  0.00     0.028 C 
ATOM     12  C   LIG d   1      -7.324  92.626 120.101  0.00  0.00     0.006 C 
ENDBRANCH   8  11
ENDBRANCH   7   8
ENDBRANCH   1   7
BRANCH   6  13
ATOM     13  N   LIG d   1      -2.328  89.218 117.185  0.00  0.00    -0.311 N 
ATOM     14  C   LIG d   1      -1.926  88.078 117.744  0.00  0.00     0.210 C 
ATOM     15  C   LIG d   1      -0.428  88.003 118.054  0.00  0.00     0.109 C 
ATOM     16  O   LIG d   1      -2.663  87.110 117.983  0.00  0.00    -0.276 OA
ATOM     17  H   LIG d   1      -1.658  89.938 116.997  0.00  0.00     0.149 HD
ENDBRANCH   6  13
BRANCH   5  18
ATOM     18  N   LIG d   1      -3.900  87.752 115.014  0.00  0.00     0.381 N 
ATOM     19  H   LIG d   1      -4.631  87.227 115.452  0.00  0.00    -0.090 HD
ATOM     20  H   LIG d   1      -3.019  87.425 115.373  0.00  0.00    -0.090 HD
ATOM     21  H   LIG d   1      -3.933  87.623 114.027  0.00  0.00    -0.090 HD
ENDBRANCH   5  18
BRANCH   3  22
ATOM     22  C   LIG d   1      -6.756  91.583 114.700  0.00  0.00     0.382 C 
ATOM     23  O   LIG d   1      -7.878  91.063 114.489  0.00  0.00    -0.241 OA
ATOM     24  O   LIG d   1      -6.498  92.702 114.217  0.00  0.00    -0.241 OA
ENDBRANCH   3  22
TORSDOF 7
ENDMDL
MODEL 3
REMARK VINA RESULT:      -5.0      2.644      4.625
REMARK  7 active torsions:
REMARK  status: ('A' for Active; 'I' for Inactive)
REMARK    1  A    between atoms: C_2  and  C_3 
REMARK    2  A    between atoms: C_3  and  O_6 
REMARK    3  A    between atoms: C_3  and  C_4 
REMARK    4  A    between atoms: C_7  and  O_6 
REMARK    5  A    between atoms: C_9  and  C_10 
REMARK    6  A    between atoms: N_15  and  C_14 
REMARK    7  A    between atoms: N_20  and  C_19 
REMARK       I    between atoms: C_22  and  N_20 
ROOT
ATOM      1  C   LIG d   1      -4.685  92.556 117.162  0.00  0.00     0.161 C 
ATOM      2  C   LIG d   1      -5.773  91.790 116.711  0.00  0.00     0.016 C 
ATOM      3  C   LIG d   1      -5.701  90.397 116.477  0.00  0.00     0.038 C 
ATOM      4  C   LIG d   1      -4.570  89.645 116.826  0.00  0.00     0.028 C 
ATOM      5  C   LIG d   1      -3.277  90.453 116.811  0.00  0.00    -0.047 C 
ATOM      6  C   LIG d   1      -3.475  91.734 117.653  0.00  0.00     0.091 C 
ENDROOT
BRANCH   1   7
ATOM      7  O   LIG d   1      -5.122  93.468 118.189  0.00  0.00    -0.368 OA
BRANCH   7   8
ATOM      8  C   LIG d   1      -6.551  93.531 118.420  0.00  0.00     0.119 C 
BRANCH   8   9
ATOM      9  C   LIG d   1      -7.006  94.972 118.119  0.00  0.00     0.028 C 
ATOM     10  C   LIG d   1      -8.426  95.259 118.636  0.00  0.00     0.006 C 
ENDBRANCH   8   9
BRANCH   8  11
ATOM     11  C   LIG d   1      -6.887  93.299 119.896  0.00  0.00     0.028 C 
ATOM     12  C   LIG d   1      -6.406  91.933 120.409  0.00  0.00     0.006 C 
ENDBRANCH   8  11
ENDBRANCH   7   8
ENDBRANCH   1   7
BRANCH   6  13
ATOM     13  N   LIG d   1      -2.285  92.623 117.622  0.00  0.00    -0.311 N 
ATOM     14  C   LIG d   1      -1.673  93.066 118.719  0.00  0.00     0.210 C 
ATOM     15  C   LIG d   1      -0.476  93.988 118.463  0.00  0.00     0.109 C 
ATOM     16  O   LIG d   1      -1.987  92.758 119.878  0.00  0.00    -0.276 OA
ATOM     17  H   LIG d   1      -1.944  92.898 116.722  0.00  0.00     0.149 HD
ENDBRANCH   6  13
BRANCH   5  18
ATOM     18  N   LIG d   1      -2.202  89.584 117.326  0.00  0.00     0.381 N 
ATOM     19  H   LIG d   1      -2.274  88.675 116.914  0.00  0.00    -0.090 HD
ATOM     20  H   LIG d   1      -2.309  89.488 118.320  0.00  0.00    -0.090 HD
ATOM     21  H   LIG d   1      -1.312  89.981 117.117  0.00  0.00    -0.090 HD
ENDBRANCH   5  18
BRANCH   3  22
ATOM     22  C   LIG d   1      -6.756  89.750 115.852  0.00  0.00     0.382 C 
ATOM     23  O   LIG d   1      -7.567  90.404 115.154  0.00  0.00    -0.241 OA
ATOM     24  O   LIG d   1      -6.931  88.527 116.013  0.00  0.00    -0.241 OA
ENDBRANCH   3  22
TORSDOF 7
ENDMDL
MODEL 4
REMARK VINA RESULT:      -4.9      1.925      2.682
REMARK  7 active torsions:
REMARK  status: ('A' for Active; 'I' for Inactive)
REMARK    1  A    between atoms: C_2  and  C_3 
REMARK    2  A    between atoms: C_3  and  O_6 
REMARK    3  A    between atoms: C_3  and  C_4 
REMARK    4  A    between atoms: C_7  and  O_6 
REMARK    5  A    between atoms: C_9  and  C_10 
REMARK    6  A    between atoms: N_15  and  C_14 
REMARK    7  A    between atoms: N_20  and  C_19 
REMARK       I    between atoms: C_22  and  N_20 
ROOT
ATOM      1  C   LIG d   1      -3.639  90.805 117.561  0.00  0.00     0.161 C 
ATOM      2  C   LIG d   1      -4.003  89.787 116.664  0.00  0.00     0.016 C 
ATOM      3  C   LIG d   1      -5.060  89.911 115.734  0.00  0.00     0.038 C 
ATOM      4  C   LIG d   1      -5.733  91.126 115.533  0.00  0.00     0.028 C 
ATOM      5  C   LIG d   1      -5.738  92.025 116.765  0.00  0.00    -0.047 C 
ATOM      6  C   LIG d   1      -4.289  92.176 117.281  0.00  0.00     0.091 C 
ENDROOT
BRANCH   1   7
ATOM      7  O   LIG d   1      -2.203  90.930 117.603  0.00  0.00    -0.368 OA
BRANCH   7   8
ATOM      8  C   LIG d   1      -1.558  90.468 118.815  0.00  0.00     0.119 C 
BRANCH   8   9
ATOM      9  C   LIG d   1      -0.467  91.494 119.178  0.00  0.00     0.028 C 
ATOM     10  C   LIG d   1       0.275  92.024 117.940  0.00  0.00     0.006 C 
ENDBRANCH   8   9
BRANCH   8  11
ATOM     11  C   LIG d   1      -0.815  89.149 118.583  0.00  0.00     0.028 C 
ATOM     12  C   LIG d   1      -1.659  87.917 118.947  0.00  0.00     0.006 C 
ENDBRANCH   8  11
ENDBRANCH   7   8
ENDBRANCH   1   7
BRANCH   6  13
ATOM     13  N   LIG d   1      -4.213  92.973 118.534  0.00  0.00    -0.311 N 
ATOM     14  C   LIG d   1      -3.303  93.922 118.745  0.00  0.00     0.210 C 
ATOM     15  C   LIG d   1      -3.390  94.608 120.112  0.00  0.00     0.109 C 
ATOM     16  O   LIG d   1      -2.452  94.283 117.918  0.00  0.00    -0.276 OA
ATOM     17  H   LIG d   1      -4.886  92.767 119.246  0.00  0.00     0.149 HD
ENDBRANCH   6  13
BRANCH   5  18
ATOM     18  N   LIG d   1      -6.349  93.310 116.375  0.00  0.00     0.381 N 
ATOM     19  H   LIG d   1      -7.290  93.159 116.070  0.00  0.00    -0.090 HD
ATOM     20  H   LIG d   1      -5.828  93.700 115.610  0.00  0.00    -0.090 HD
ATOM     21  H   LIG d   1      -6.340  93.940 117.147  0.00  0.00    -0.090 HD
ENDBRANCH   5  18
BRANCH   3  22
ATOM     22  C   LIG d   1      -5.481  88.799 115.019  0.00  0.00     0.382 C 
ATOM     23  O   LIG d   1      -4.746  87.785 114.948  0.00  0.00    -0.241 OA
ATOM     24  O   LIG d   1      -6.567  88.815 114.409  0.00  0.00    -0.241 OA
ENDBRANCH   3  22
TORSDOF 7
ENDMDL
MODEL 5
REMARK VINA RESULT:      -4.8      2.787      6.258
REMARK  7 active torsions:
REMARK  status: ('A' for Active; 'I' for Inactive)
REMARK    1  A    between atoms: C_2  and  C_3 
REMARK    2  A    between atoms: C_3  and  O_6 
REMARK    3  A    between atoms: C_3  and  C_4 
REMARK    4  A    between atoms: C_7  and  O_6 
REMARK    5  A    between atoms: C_9  and  C_10 
REMARK    6  A    between atoms: N_15  and  C_14 
REMARK    7  A    between atoms: N_20  and  C_19 
REMARK       I    between atoms: C_22  and  N_20 
ROOT
ATOM      1  C   LIG d   1      -4.946  92.005 117.945  0.00  0.00     0.161 C 
ATOM      2  C   LIG d   1      -6.290  92.228 118.288  0.00  0.00     0.016 C 
ATOM      3  C   LIG d   1      -6.711  93.262 119.155  0.00  0.00     0.038 C 
ATOM      4  C   LIG d   1      -5.825  94.244 119.622  0.00  0.00     0.028 C 
ATOM      5  C   LIG d   1      -4.380  93.765 119.709  0.00  0.00    -0.047 C 
ATOM      6  C   LIG d   1      -3.978  93.134 118.356  0.00  0.00     0.091 C 
ENDROOT
BRANCH   1   7
ATOM      7  O   LIG d   1      -4.840  91.743 116.532  0.00  0.00    -0.368 OA
BRANCH   7   8
ATOM      8  C   LIG d   1      -5.482  90.535 116.057  0.00  0.00     0.119 C 
BRANCH   8   9
ATOM      9  C   LIG d   1      -4.377  89.491 115.804  0.00  0.00     0.028 C 
ATOM     10  C   LIG d   1      -4.757  88.489 114.702  0.00  0.00     0.006 C 
ENDBRANCH   8   9
BRANCH   8  11
ATOM     11  C   LIG d   1      -6.150  90.756 114.696  0.00  0.00     0.028 C 
ATOM     12  C   LIG d   1      -6.679  92.188 114.518  0.00  0.00     0.006 C 
ENDBRANCH   8  11
ENDBRANCH   7   8
ENDBRANCH   1   7
BRANCH   6  13
ATOM     13  N   LIG d   1      -2.607  92.563 118.382  0.00  0.00    -0.311 N 
ATOM     14  C   LIG d   1      -1.517  93.260 118.064  0.00  0.00     0.210 C 
ATOM     15  C   LIG d   1      -0.203  92.474 118.138  0.00  0.00     0.109 C 
ATOM     16  O   LIG d   1      -1.509  94.462 117.760  0.00  0.00    -0.276 OA
ATOM     17  H   LIG d   1      -2.517  91.602 118.648  0.00  0.00     0.149 HD
ENDBRANCH   6  13
BRANCH   5  18
ATOM     18  N   LIG d   1      -3.547  94.925 120.076  0.00  0.00     0.381 N 
ATOM     19  H   LIG d   1      -3.917  95.754 119.656  0.00  0.00    -0.090 HD
ATOM     20  H   LIG d   1      -2.616  94.781 119.725  0.00  0.00    -0.090 HD
ATOM     21  H   LIG d   1      -3.523  95.028 121.067  0.00  0.00    -0.090 HD
ENDBRANCH   5  18
BRANCH   3  22
ATOM     22  C   LIG d   1      -8.025  93.297 119.596  0.00  0.00     0.382 C 
ATOM     23  O   LIG d   1      -8.830  94.123 119.102  0.00  0.00    -0.241 OA
ATOM     24  O   LIG d   1      -8.405  92.544 120.513  0.00  0.00    -0.241 OA
ENDBRANCH   3  22
TORSDOF 7
ENDMDL
MODEL 6
REMARK VINA RESULT:      -4.7      2.264      4.776
REMARK  7 active torsions:
REMARK  status: ('A' for Active; 'I' for Inactive)
REMARK    1  A    between atoms: C_2  and  C_3 
REMARK    2  A    between atoms: C_3  and  O_6 
REMARK    3  A    between atoms: C_3  and  C_4 
REMARK    4  A    between atoms: C_7  and  O_6 
REMARK    5  A    between atoms: C_9  and  C_10 
REMARK    6  A    between atoms: N_15  and  C_14 
REMARK    7  A    between atoms: N_20  and  C_19 
REMARK       I    between atoms: C_22  and  N_20 
ROOT
ATOM      1  C   LIG d   1      -4.368  91.335 117.097  0.00  0.00     0.161 C 
ATOM      2  C   LIG d   1      -3.264  90.467 117.118  0.00  0.00     0.016 C 
ATOM      3  C   LIG d   1      -2.054  90.763 117.788  0.00  0.00     0.038 C 
ATOM      4  C   LIG d   1      -1.920  91.889 118.614  0.00  0.00     0.028 C 
ATOM      5  C   LIG d   1      -2.832  93.044 118.215  0.00  0.00    -0.047 C 
ATOM      6  C   LIG d   1      -4.280  92.518 118.084  0.00  0.00     0.091 C 
ENDROOT
BRANCH   1   7
ATOM      7  O   LIG d   1      -5.581  90.588 117.317  0.00  0.00    -0.368 OA
BRANCH   7   8
ATOM      8  C   LIG d   1      -6.477  90.480 116.184  0.00  0.00     0.119 C 
BRANCH   8   9
ATOM      9  C   LIG d   1      -6.492  89.003 115.745  0.00  0.00     0.028 C 
ATOM     10  C   LIG d   1      -5.446  88.703 114.657  0.00  0.00     0.006 C 
ENDBRANCH   8   9
BRANCH   8  11
ATOM     11  C   LIG d   1      -5.944  91.256 114.976  0.00  0.00     0.028 C 
ATOM     12  C   LIG d   1      -6.916  92.343 114.490  0.00  0.00     0.006 C 
ENDBRANCH   8  11
ENDBRANCH   7   8
ENDBRANCH   1   7
BRANCH   6  13
ATOM     13  N   LIG d   1      -5.224  93.566 117.616  0.00  0.00    -0.311 N 
ATOM     14  C   LIG d   1      -6.455  93.714 118.102  0.00  0.00     0.210 C 
ATOM     15  C   LIG d   1      -7.270  94.844 117.466  0.00  0.00     0.109 C 
ATOM     16  O   LIG d   1      -6.938  93.038 119.023  0.00  0.00    -0.276 OA
ATOM     17  H   LIG d   1      -4.902  94.179 116.892  0.00  0.00     0.149 HD
ENDBRANCH   6  13
BRANCH   5  18
ATOM     18  N   LIG d   1      -2.690  94.097 119.239  0.00  0.00     0.381 N 
ATOM     19  H   LIG d   1      -3.228  93.858 120.048  0.00  0.00    -0.090 HD
ATOM     20  H   LIG d   1      -3.045  94.961 118.868  0.00  0.00    -0.090 HD
ATOM     21  H   LIG d   1      -1.732  94.203 119.488  0.00  0.00    -0.090 HD
ENDBRANCH   5  18
BRANCH   3  22
ATOM     22  C   LIG d   1      -0.948  89.947 117.602  0.00  0.00     0.382 C 
ATOM     23  O   LIG d   1      -1.083  88.699 117.604  0.00  0.00    -0.241 OA
ATOM     24  O   LIG d   1       0.188  90.441 117.477  0.00  0.00    -0.241 OA
ENDBRANCH   3  22
TORSDOF 7
ENDMDL
MODEL 7
REMARK VINA RESULT:      -4.6      2.128      5.254
REMARK  7 active torsions:
REMARK  status: ('A' for Active; 'I' for Inactive)
REMARK    1  A    between atoms: C_2  and  C_3 
REMARK    2  A    between atoms: C_3  and  O_6 
REMARK    3  A    between atoms: C_3  and  C_4 
REMARK    4  A    between atoms: C_7  and  O_6 
REMARK    5  A    between atoms: C_9  and  C_10 
REMARK    6  A    between atoms: N_15  and  C_14 
REMARK    7  A    between atoms: N_20  and  C_19 
REMARK       I    between atoms: C_22  and  N_20 
ROOT
ATOM      1  C   LIG d   1      -5.531  91.854 117.940  0.00  0.00     0.161 C 
ATOM      2  C   LIG d   1      -4.309  92.391 118.377  0.00  0.00     0.016 C 
ATOM      3  C   LIG d   1      -3.053  91.820 118.068  0.00  0.00     0.038 C 
ATOM      4  C   LIG d   1      -2.926  90.751 117.168  0.00  0.00     0.028 C 
ATOM      5  C   LIG d   1      -4.164  89.864 117.102  0.00  0.00    -0.047 C 
ATOM      6  C   LIG d   1      -5.407  90.753 116.865  0.00  0.00     0.091 C 
ENDROOT
BRANCH   1   7
ATOM      7  O   LIG d   1      -6.392  92.912 117.475  0.00  0.00    -0.368 OA
BRANCH   7   8
ATOM      8  C   LIG d   1      -6.584  94.023 118.385  0.00  0.00     0.119 C 
BRANCH   8   9
ATOM      9  C   LIG d   1      -7.408  93.505 119.580  0.00  0.00     0.028 C 
ATOM     10  C   LIG d   1      -6.735  93.805 120.930  0.00  0.00     0.006 C 
ENDBRANCH   8   9
BRANCH   8  11
ATOM     11  C   LIG d   1      -7.440  95.123 117.749  0.00  0.00     0.028 C 
ATOM     12  C   LIG d   1      -7.123  96.520 118.304  0.00  0.00     0.006 C 
ENDBRANCH   8  11
ENDBRANCH   7   8
ENDBRANCH   1   7
BRANCH   6  13
ATOM     13  N   LIG d   1      -6.672  89.973 116.872  0.00  0.00    -0.311 N 
ATOM     14  C   LIG d   1      -7.183  89.397 115.785  0.00  0.00     0.210 C 
ATOM     15  C   LIG d   1      -8.506  88.657 116.008  0.00  0.00     0.109 C 
ATOM     16  O   LIG d   1      -6.651  89.401 114.665  0.00  0.00    -0.276 OA
ATOM     17  H   LIG d   1      -7.153  89.892 117.746  0.00  0.00     0.149 HD
ENDBRANCH   6  13
BRANCH   5  18
ATOM     18  N   LIG d   1      -3.948  88.876 116.028  0.00  0.00     0.381 N 
ATOM     19  H   LIG d   1      -4.175  89.282 115.143  0.00  0.00    -0.090 HD
ATOM     20  H   LIG d   1      -4.557  88.091 116.181  0.00  0.00    -0.090 HD
ATOM     21  H   LIG d   1      -2.999  88.573 116.030  0.00  0.00    -0.090 HD
ENDBRANCH   5  18
BRANCH   3  22
ATOM     22  C   LIG d   1      -1.910  92.294 118.693  0.00  0.00     0.382 C 
ATOM     23  O   LIG d   1      -1.994  93.225 119.531  0.00  0.00    -0.241 OA
ATOM     24  O   LIG d   1      -0.791  91.833 118.398  0.00  0.00    -0.241 OA
ENDBRANCH   3  22
TORSDOF 7
ENDMDL
MODEL 8
REMARK VINA RESULT:      -4.5      2.473      6.044
REMARK  7 active torsions:
REMARK  status: ('A' for Active; 'I' for Inactive)
REMARK    1  A    between atoms: C_2  and  C_3 
REMARK    2  A    between atoms: C_3  and  O_6 
REMARK    3  A    between atoms: C_3  and  C_4 
REMARK    4  A    between atoms: C_7  and  O_6 
REMARK    5  A    between atoms: C_9  and  C_10 
REMARK    6  A    between atoms: N_15  and  C_14 
REMARK    7  A    between atoms: N_20  and  C_19 
REMARK       I    between atoms: C_22  and  N_20 
ROOT
ATOM      1  C   LIG d   1      -5.361  91.838 117.218  0.00  0.00     0.161 C 
ATOM      2  C   LIG d   1      -6.273  92.892 117.044  0.00  0.00     0.016 C 
ATOM      3  C   LIG d   1      -6.281  94.055 117.849  0.00  0.00     0.038 C 
ATOM      4  C   LIG d   1      -5.273  94.312 118.790  0.00  0.00     0.028 C 
ATOM      5  C   LIG d   1      -4.627  93.047 119.346  0.00  0.00    -0.047 C 
ATOM      6  C   LIG d   1      -4.185  92.150 118.167  0.00  0.00     0.091 C 
ENDROOT
BRANCH   1   7
ATOM      7  O   LIG d   1      -4.867  91.403 115.935  0.00  0.00    -0.368 OA
BRANCH   7   8
ATOM      8  C   LIG d   1      -5.359  90.124 115.464  0.00  0.00     0.119 C 
BRANCH   8   9
ATOM      9  C   LIG d   1      -6.458  89.662 116.440  0.00  0.00     0.028 C 
ATOM     10  C   LIG d   1      -7.708  89.141 115.711  0.00  0.00     0.006 C 
ENDBRANCH   8   9
BRANCH   8  11
ATOM     11  C   LIG d   1      -4.272  89.048 115.539  0.00  0.00     0.028 C 
ATOM     12  C   LIG d   1      -4.393  88.000 114.421  0.00  0.00     0.006 C 
ENDBRANCH   8  11
ENDBRANCH   7   8
ENDBRANCH   1   7
BRANCH   6  13
ATOM     13  N   LIG d   1      -3.618  90.854 118.622  0.00  0.00    -0.311 N 
ATOM     14  C   LIG d   1      -2.377  90.458 118.343  0.00  0.00     0.210 C 
ATOM     15  C   LIG d   1      -2.000  89.078 118.892  0.00  0.00     0.109 C 
ATOM     16  O   LIG d   1      -1.543  91.132 117.721  0.00  0.00    -0.276 OA
ATOM     17  H   LIG d   1      -4.217  90.258 119.160  0.00  0.00     0.149 HD
ENDBRANCH   6  13
BRANCH   5  18
ATOM     18  N   LIG d   1      -3.504  93.463 120.208  0.00  0.00     0.381 N 
ATOM     19  H   LIG d   1      -2.683  93.599 119.654  0.00  0.00    -0.090 HD
ATOM     20  H   LIG d   1      -3.318  92.733 120.873  0.00  0.00    -0.090 HD
ATOM     21  H   LIG d   1      -3.735  94.306 120.686  0.00  0.00    -0.090 HD
ENDBRANCH   5  18
BRANCH   3  22
ATOM     22  C   LIG d   1      -7.329  94.957 117.742  0.00  0.00     0.382 C 
ATOM     23  O   LIG d   1      -7.092  96.188 117.683  0.00  0.00    -0.241 OA
ATOM     24  O   LIG d   1      -8.509  94.559 117.749  0.00  0.00    -0.241 OA
ENDBRANCH   3  22
TORSDOF 7
ENDMDL
MODEL 9
REMARK VINA RESULT:      -4.5      2.734      4.627
REMARK  7 active torsions:
REMARK  status: ('A' for Active; 'I' for Inactive)
REMARK    1  A    between atoms: C_2  and  C_3 
REMARK    2  A    between atoms: C_3  and  O_6 
REMARK    3  A    between atoms: C_3  and  C_4 
REMARK    4  A    between atoms: C_7  and  O_6 
REMARK    5  A    between atoms: C_9  and  C_10 
REMARK    6  A    between atoms: N_15  and  C_14 
REMARK    7  A    between atoms: N_20  and  C_19 
REMARK       I    between atoms: C_22  and  N_20 
ROOT
ATOM      1  C   LIG d   1      -4.565  92.550 117.591  0.00  0.00     0.161 C 
ATOM      2  C   LIG d   1      -5.578  92.526 116.618  0.00  0.00     0.016 C 
ATOM      3  C   LIG d   1      -5.805  91.428 115.757  0.00  0.00     0.038 C 
ATOM      4  C   LIG d   1      -5.125  90.211 115.914  0.00  0.00     0.028 C 
ATOM      5  C   LIG d   1      -3.748  90.363 116.551  0.00  0.00    -0.047 C 
ATOM      6  C   LIG d   1      -3.886  91.189 117.851  0.00  0.00     0.091 C 
ENDROOT
BRANCH   1   7
ATOM      7  O   LIG d   1      -5.081  93.095 118.821  0.00  0.00    -0.368 OA
BRANCH   7   8
ATOM      8  C   LIG d   1      -5.087  94.540 118.925  0.00  0.00     0.119 C 
BRANCH   8   9
ATOM      9  C   LIG d   1      -4.214  94.921 120.137  0.00  0.00     0.028 C 
ATOM     10  C   LIG d   1      -2.728  95.067 119.767  0.00  0.00     0.006 C 
ENDBRANCH   8   9
BRANCH   8  11
ATOM     11  C   LIG d   1      -6.486  95.070 119.251  0.00  0.00     0.028 C 
ATOM     12  C   LIG d   1      -7.258  95.523 118.002  0.00  0.00     0.006 C 
ENDBRANCH   8  11
ENDBRANCH   7   8
ENDBRANCH   1   7
BRANCH   6  13
ATOM     13  N   LIG d   1      -2.573  91.457 118.494  0.00  0.00    -0.311 N 
ATOM     14  C   LIG d   1      -2.366  91.363 119.806  0.00  0.00     0.210 C 
ATOM     15  C   LIG d   1      -0.944  91.702 120.263  0.00  0.00     0.109 C 
ATOM     16  O   LIG d   1      -3.218  91.001 120.632  0.00  0.00    -0.276 OA
ATOM     17  H   LIG d   1      -1.818  91.727 117.894  0.00  0.00     0.149 HD
ENDBRANCH   6  13
BRANCH   5  18
ATOM     18  N   LIG d   1      -3.210  89.009 116.781  0.00  0.00     0.381 N 
ATOM     19  H   LIG d   1      -2.288  89.071 117.164  0.00  0.00    -0.090 HD
ATOM     20  H   LIG d   1      -3.154  88.528 115.900  0.00  0.00    -0.090 HD
ATOM     21  H   LIG d   1      -3.804  88.508 117.404  0.00  0.00    -0.090 HD
ENDBRANCH   5  18
BRANCH   3  22
ATOM     22  C   LIG d   1      -6.693  91.555 114.700  0.00  0.00     0.382 C 
ATOM     23  O   LIG d   1      -6.778  90.646 113.840  0.00  0.00    -0.241 OA
ATOM     24  O   LIG d   1      -7.378  92.587 114.572  0.00  0.00    -0.241 OA
ENDBRANCH   3  22
TORSDOF 7
ENDMDL
