MODEL 1
REMARK VINA RESULT:      -5.2      0.000      0.000
REMARK  7 active torsions:
REMARK  status: ('A' for Active; 'I' for Inactive)
REMARK    1  A    between atoms: C_2  and  C_3 
REMARK    2  A    between atoms: C_3  and  O_6 
REMARK    3  A    between atoms: C_3  and  C_4 
REMARK    4  A    between atoms: C_7  and  O_6 
REMARK    5  A    between atoms: C_9  and  C_10 
REMARK    6  A    between atoms: N_15  and  C_14 
REMARK    7  A    between atoms: N_20  and  C_19 
REMARK       I    between atoms: C_22  and  N_20 
ROOT
ATOM      1  C   LIG d   1      -3.305  91.091 117.642  0.00  0.00     0.161 C 
ATOM      2  C   LIG d   1      -3.958  90.323 116.663  0.00  0.00     0.016 C 
ATOM      3  C   LIG d   1      -5.261  90.606 116.193  0.00  0.00     0.038 C 
ATOM      4  C   LIG d   1      -5.946  91.773 116.563  0.00  0.00     0.028 C 
ATOM      5  C   LIG d   1      -5.532  92.310 117.930  0.00  0.00    -0.047 C 
ATOM      6  C   LIG d   1      -3.992  92.432 117.976  0.00  0.00     0.091 C 
ENDROOT
BRANCH   1   7
ATOM      7  O   LIG d   1      -1.935  91.313 117.255  0.00  0.00    -0.368 OA
BRANCH   7   8
ATOM      8  C   LIG d   1      -0.959  90.399 117.813  0.00  0.00     0.119 C 
BRANCH   8   9
ATOM      9  C   LIG d   1      -1.467  89.972 119.203  0.00  0.00     0.028 C 
ATOM     10  C   LIG d   1      -0.649  90.597 120.345  0.00  0.00     0.006 C 
ENDBRANCH   8   9
BRANCH   8  11
ATOM     11  C   LIG d   1       0.379  91.100 118.068  0.00  0.00     0.028 C 
ATOM     12  C   LIG d   1       0.524  92.413 117.281  0.00  0.00     0.006 C 
ENDBRANCH   8  11
ENDBRANCH   7   8
ENDBRANCH   1   7
BRANCH   6  13
ATOM     13  N   LIG d   1      -3.498  92.870 119.307  0.00  0.00    -0.311 N 
ATOM     14  C   LIG d   1      -2.595  93.835 119.473  0.00  0.00     0.210 C 
ATOM     15  C   LIG d   1      -2.209  94.117 120.928  0.00  0.00     0.109 C 
ATOM     16  O   LIG d   1      -2.100  94.506 118.554  0.00  0.00    -0.276 OA
ATOM     17  H   LIG d   1      -3.870  92.400 120.110  0.00  0.00     0.149 HD
ENDBRANCH   6  13
BRANCH   5  18
ATOM     18  N   LIG d   1      -6.220  93.599 118.129  0.00  0.00     0.381 N 
ATOM     19  H   LIG d   1      -6.555  93.944 117.251  0.00  0.00    -0.090 HD
ATOM     20  H   LIG d   1      -5.564  94.264 118.499  0.00  0.00    -0.090 HD
ATOM     21  H   LIG d   1      -6.982  93.486 118.761  0.00  0.00    -0.090 HD
ENDBRANCH   5  18
BRANCH   3  22
ATOM     22  C   LIG d   1      -5.909  89.695 115.373  0.00  0.00     0.382 C 
ATOM     23  O   LIG d   1      -7.095  89.367 115.614  0.00  0.00    -0.241 OA
ATOM     24  O   LIG d   1      -5.307  89.164 114.420  0.00  0.00    -0.241 OA
ENDBRANCH   3  22
TORSDOF 7
ENDMDL
MODEL 2
REMARK VINA RESULT:      -5.1      4.947      7.128
REMARK  7 active torsions:
REMARK  status: ('A' for Active; 'I' for Inactive)
REMARK    1  A    between atoms: C_2  and  C_3 
REMARK    2  A    between atoms: C_3  and  O_6 
REMARK    3  A    between atoms: C_3  and  C_4 
REMARK    4  A    between atoms: C_7  and  O_6 
REMARK    5  A    between atoms: C_9  and  C_10 
REMARK    6  A    between atoms: N_15  and  C_14 
REMARK    7  A    between atoms: N_20  and  C_19 
REMARK       I    between atoms: C_22  and  N_20 
ROOT
ATOM      1  C   LIG d   1       1.353  88.386 116.230  0.00  0.00     0.161 C 
ATOM      2  C   LIG d   1       0.057  88.410 116.772  0.00  0.00     0.016 C 
ATOM      3  C   LIG d   1      -0.513  89.554 117.375  0.00  0.00     0.038 C 
ATOM      4  C   LIG d   1       0.123  90.804 117.343  0.00  0.00     0.028 C 
ATOM      5  C   LIG d   1       1.642  90.709 117.255  0.00  0.00    -0.047 C 
ATOM      6  C   LIG d   1       2.019  89.771 116.086  0.00  0.00     0.091 C 
ENDROOT
BRANCH   1   7
ATOM      7  O   LIG d   1       1.340  87.702 114.961  0.00  0.00    -0.368 OA
BRANCH   7   8
ATOM      8  C   LIG d   1       1.244  86.257 115.017  0.00  0.00     0.119 C 
BRANCH   8   9
ATOM      9  C   LIG d   1       2.576  85.684 114.496  0.00  0.00     0.028 C 
ATOM     10  C   LIG d   1       3.225  86.584 113.431  0.00  0.00     0.006 C 
ENDBRANCH   8   9
BRANCH   8  11
ATOM     11  C   LIG d   1       0.172  85.733 114.057  0.00  0.00     0.028 C 
ATOM     12  C   LIG d   1      -1.165  85.444 114.756  0.00  0.00     0.006 C 
ENDBRANCH   8  11
ENDBRANCH   7   8
ENDBRANCH   1   7
BRANCH   6  13
ATOM     13  N   LIG d   1       3.486  89.555 115.982  0.00  0.00    -0.311 N 
ATOM     14  C   LIG d   1       4.189  89.816 114.882  0.00  0.00     0.210 C 
ATOM     15  C   LIG d   1       5.686  89.503 114.981  0.00  0.00     0.109 C 
ATOM     16  O   LIG d   1       3.722  90.306 113.843  0.00  0.00    -0.276 OA
ATOM     17  H   LIG d   1       3.951  89.189 116.789  0.00  0.00     0.149 HD
ENDBRANCH   6  13
BRANCH   5  18
ATOM     18  N   LIG d   1       2.166  92.078 117.089  0.00  0.00     0.381 N 
ATOM     19  H   LIG d   1       2.734  92.126 116.267  0.00  0.00    -0.090 HD
ATOM     20  H   LIG d   1       2.740  92.305 117.883  0.00  0.00    -0.090 HD
ATOM     21  H   LIG d   1       1.412  92.725 117.020  0.00  0.00    -0.090 HD
ENDBRANCH   5  18
BRANCH   3  22
ATOM     22  C   LIG d   1      -1.716  89.445 118.056  0.00  0.00     0.382 C 
ATOM     23  O   LIG d   1      -1.808  89.859 119.237  0.00  0.00    -0.241 OA
ATOM     24  O   LIG d   1      -2.698  88.897 117.520  0.00  0.00    -0.241 OA
ENDBRANCH   3  22
TORSDOF 7
ENDMDL
MODEL 3
REMARK VINA RESULT:      -4.7      1.791      2.338
REMARK  7 active torsions:
REMARK  status: ('A' for Active; 'I' for Inactive)
REMARK    1  A    between atoms: C_2  and  C_3 
REMARK    2  A    between atoms: C_3  and  O_6 
REMARK    3  A    between atoms: C_3  and  C_4 
REMARK    4  A    between atoms: C_7  and  O_6 
REMARK    5  A    between atoms: C_9  and  C_10 
REMARK    6  A    between atoms: N_15  and  C_14 
REMARK    7  A    between atoms: N_20  and  C_19 
REMARK       I    between atoms: C_22  and  N_20 
ROOT
ATOM      1  C   LIG d   1      -2.108  90.491 117.748  0.00  0.00     0.161 C 
ATOM      2  C   LIG d   1      -3.138  90.055 116.897  0.00  0.00     0.016 C 
ATOM      3  C   LIG d   1      -4.346  90.766 116.710  0.00  0.00     0.038 C 
ATOM      4  C   LIG d   1      -4.544  92.045 117.249  0.00  0.00     0.028 C 
ATOM      5  C   LIG d   1      -3.741  92.299 118.520  0.00  0.00    -0.047 C 
ATOM      6  C   LIG d   1      -2.260  91.939 118.258  0.00  0.00     0.091 C 
ENDROOT
BRANCH   1   7
ATOM      7  O   LIG d   1      -0.833  90.319 117.099  0.00  0.00    -0.368 OA
BRANCH   7   8
ATOM      8  C   LIG d   1       0.034  89.300 117.657  0.00  0.00     0.119 C 
BRANCH   8   9
ATOM      9  C   LIG d   1       1.329  89.996 118.117  0.00  0.00     0.028 C 
ATOM     10  C   LIG d   1       1.691  91.204 117.237  0.00  0.00     0.006 C 
ENDBRANCH   8   9
BRANCH   8  11
ATOM     11  C   LIG d   1       0.471  88.295 116.587  0.00  0.00     0.028 C 
ATOM     12  C   LIG d   1       1.744  87.527 116.977  0.00  0.00     0.006 C 
ENDBRANCH   8  11
ENDBRANCH   7   8
ENDBRANCH   1   7
BRANCH   6  13
ATOM     13  N   LIG d   1      -1.419  92.078 119.475  0.00  0.00    -0.311 N 
ATOM     14  C   LIG d   1      -0.453  92.986 119.599  0.00  0.00     0.210 C 
ATOM     15  C   LIG d   1       0.307  92.945 120.928  0.00  0.00     0.109 C 
ATOM     16  O   LIG d   1      -0.174  93.843 118.746  0.00  0.00    -0.276 OA
ATOM     17  H   LIG d   1      -1.599  91.443 120.228  0.00  0.00     0.149 HD
ENDBRANCH   6  13
BRANCH   5  18
ATOM     18  N   LIG d   1      -3.934  93.712 118.895  0.00  0.00     0.381 N 
ATOM     19  H   LIG d   1      -4.808  93.819 119.372  0.00  0.00    -0.090 HD
ATOM     20  H   LIG d   1      -3.960  94.270 118.060  0.00  0.00    -0.090 HD
ATOM     21  H   LIG d   1      -3.188  94.014 119.483  0.00  0.00    -0.090 HD
ENDBRANCH   5  18
BRANCH   3  22
ATOM     22  C   LIG d   1      -5.387  90.178 116.009  0.00  0.00     0.382 C 
ATOM     23  O   LIG d   1      -6.563  90.584 116.174  0.00  0.00    -0.241 OA
ATOM     24  O   LIG d   1      -5.172  89.217 115.246  0.00  0.00    -0.241 OA
ENDBRANCH   3  22
TORSDOF 7
ENDMDL
MODEL 4
REMARK VINA RESULT:      -4.6      4.136      6.100
REMARK  7 active torsions:
REMARK  status: ('A' for Active; 'I' for Inactive)
REMARK    1  A    between atoms: C_2  and  C_3 
REMARK    2  A    between atoms: C_3  and  O_6 
REMARK    3  A    between atoms: C_3  and  C_4 
REMARK    4  A    between atoms: C_7  and  O_6 
REMARK    5  A    between atoms: C_9  and  C_10 
REMARK    6  A    between atoms: N_15  and  C_14 
REMARK    7  A    between atoms: N_20  and  C_19 
REMARK       I    between atoms: C_22  and  N_20 
ROOT
ATOM      1  C   LIG d   1       1.158  89.321 116.819  0.00  0.00     0.161 C 
ATOM      2  C   LIG d   1      -0.242  89.217 116.841  0.00  0.00     0.016 C 
ATOM      3  C   LIG d   1      -1.087  90.207 117.394  0.00  0.00     0.038 C 
ATOM      4  C   LIG d   1      -0.592  91.445 117.830  0.00  0.00     0.028 C 
ATOM      5  C   LIG d   1       0.861  91.389 118.290  0.00  0.00    -0.047 C 
ATOM      6  C   LIG d   1       1.710  90.714 117.189  0.00  0.00     0.091 C 
ENDROOT
BRANCH   1   7
ATOM      7  O   LIG d   1       1.658  88.910 115.531  0.00  0.00    -0.368 OA
BRANCH   7   8
ATOM      8  C   LIG d   1       2.509  87.737 115.522  0.00  0.00     0.119 C 
BRANCH   8   9
ATOM      9  C   LIG d   1       3.878  88.163 114.956  0.00  0.00     0.028 C 
ATOM     10  C   LIG d   1       3.790  89.444 114.108  0.00  0.00     0.006 C 
ENDBRANCH   8   9
BRANCH   8  11
ATOM     11  C   LIG d   1       1.983  86.674 114.553  0.00  0.00     0.028 C 
ATOM     12  C   LIG d   1       0.612  86.117 114.968  0.00  0.00     0.006 C 
ENDBRANCH   8  11
ENDBRANCH   7   8
ENDBRANCH   1   7
BRANCH   6  13
ATOM     13  N   LIG d   1       3.130  90.542 117.593  0.00  0.00    -0.311 N 
ATOM     14  C   LIG d   1       4.095  91.398 117.261  0.00  0.00     0.210 C 
ATOM     15  C   LIG d   1       5.493  91.023 117.764  0.00  0.00     0.109 C 
ATOM     16  O   LIG d   1       3.920  92.450 116.627  0.00  0.00    -0.276 OA
ATOM     17  H   LIG d   1       3.355  89.732 118.136  0.00  0.00     0.149 HD
ENDBRANCH   6  13
BRANCH   5  18
ATOM     18  N   LIG d   1       1.289  92.769 118.585  0.00  0.00     0.381 N 
ATOM     19  H   LIG d   1       2.032  93.033 117.969  0.00  0.00    -0.090 HD
ATOM     20  H   LIG d   1       1.633  92.808 119.528  0.00  0.00    -0.090 HD
ATOM     21  H   LIG d   1       0.521  93.395 118.477  0.00  0.00    -0.090 HD
ENDBRANCH   5  18
BRANCH   3  22
ATOM     22  C   LIG d   1      -2.440  89.946 117.553  0.00  0.00     0.382 C 
ATOM     23  O   LIG d   1      -3.237  90.887 117.784  0.00  0.00    -0.241 OA
ATOM     24  O   LIG d   1      -2.866  88.776 117.511  0.00  0.00    -0.241 OA
ENDBRANCH   3  22
TORSDOF 7
ENDMDL
MODEL 5
REMARK VINA RESULT:      -4.4      2.416      4.293
REMARK  7 active torsions:
REMARK  status: ('A' for Active; 'I' for Inactive)
REMARK    1  A    between atoms: C_2  and  C_3 
REMARK    2  A    between atoms: C_3  and  O_6 
REMARK    3  A    between atoms: C_3  and  C_4 
REMARK    4  A    between atoms: C_7  and  O_6 
REMARK    5  A    between atoms: C_9  and  C_10 
REMARK    6  A    between atoms: N_15  and  C_14 
REMARK    7  A    between atoms: N_20  and  C_19 
REMARK       I    between atoms: C_22  and  N_20 
ROOT
ATOM      1  C   LIG d   1      -3.627  92.900 119.934  0.00  0.00     0.161 C 
ATOM      2  C   LIG d   1      -2.796  91.980 119.275  0.00  0.00     0.016 C 
ATOM      3  C   LIG d   1      -3.147  91.344 118.062  0.00  0.00     0.038 C 
ATOM      4  C   LIG d   1      -4.297  91.701 117.343  0.00  0.00     0.028 C 
ATOM      5  C   LIG d   1      -5.412  92.257 118.222  0.00  0.00    -0.047 C 
ATOM      6  C   LIG d   1      -4.837  93.386 119.108  0.00  0.00     0.091 C 
ENDROOT
BRANCH   1   7
ATOM      7  O   LIG d   1      -2.848  94.023 120.390  0.00  0.00    -0.368 OA
BRANCH   7   8
ATOM      8  C   LIG d   1      -2.664  95.100 119.438  0.00  0.00     0.119 C 
BRANCH   8   9
ATOM      9  C   LIG d   1      -1.151  95.243 119.187  0.00  0.00     0.028 C 
ATOM     10  C   LIG d   1      -0.692  94.495 117.924  0.00  0.00     0.006 C 
ENDBRANCH   8   9
BRANCH   8  11
ATOM     11  C   LIG d   1      -3.107  96.444 120.025  0.00  0.00     0.028 C 
ATOM     12  C   LIG d   1      -3.597  97.429 118.952  0.00  0.00     0.006 C 
ENDBRANCH   8  11
ENDBRANCH   7   8
ENDBRANCH   1   7
BRANCH   6  13
ATOM     13  N   LIG d   1      -5.842  93.928 120.060  0.00  0.00    -0.311 N 
ATOM     14  C   LIG d   1      -6.616  94.978 119.789  0.00  0.00     0.210 C 
ATOM     15  C   LIG d   1      -7.570  95.385 120.916  0.00  0.00     0.109 C 
ATOM     16  O   LIG d   1      -6.625  95.591 118.711  0.00  0.00    -0.276 OA
ATOM     17  H   LIG d   1      -5.923  93.471 120.947  0.00  0.00     0.149 HD
ENDBRANCH   6  13
BRANCH   5  18
ATOM     18  N   LIG d   1      -6.495  92.717 117.332  0.00  0.00     0.381 N 
ATOM     19  H   LIG d   1      -6.136  92.859 116.409  0.00  0.00    -0.090 HD
ATOM     20  H   LIG d   1      -6.846  93.594 117.673  0.00  0.00    -0.090 HD
ATOM     21  H   LIG d   1      -7.228  92.043 117.311  0.00  0.00    -0.090 HD
ENDBRANCH   5  18
BRANCH   3  22
ATOM     22  C   LIG d   1      -2.362  90.309 117.576  0.00  0.00     0.382 C 
ATOM     23  O   LIG d   1      -1.137  90.492 117.374  0.00  0.00    -0.241 OA
ATOM     24  O   LIG d   1      -2.872  89.207 117.296  0.00  0.00    -0.241 OA
ENDBRANCH   3  22
TORSDOF 7
ENDMDL
MODEL 6
REMARK VINA RESULT:      -4.4      5.941      9.464
REMARK  7 active torsions:
REMARK  status: ('A' for Active; 'I' for Inactive)
REMARK    1  A    between atoms: C_2  and  C_3 
REMARK    2  A    between atoms: C_3  and  O_6 
REMARK    3  A    between atoms: C_3  and  C_4 
REMARK    4  A    between atoms: C_7  and  O_6 
REMARK    5  A    between atoms: C_9  and  C_10 
REMARK    6  A    between atoms: N_15  and  C_14 
REMARK    7  A    between atoms: N_20  and  C_19 
REMARK       I    between atoms: C_22  and  N_20 
ROOT
ATOM      1  C   LIG d   1       3.593  91.186 117.216  0.00  0.00     0.161 C 
ATOM      2  C   LIG d   1       4.091  92.074 118.185  0.00  0.00     0.016 C 
ATOM      3  C   LIG d   1       5.462  92.175 118.515  0.00  0.00     0.038 C 
ATOM      4  C   LIG d   1       6.452  91.499 117.787  0.00  0.00     0.028 C 
ATOM      5  C   LIG d   1       5.954  90.212 117.137  0.00  0.00    -0.047 C 
ATOM      6  C   LIG d   1       4.669  90.521 116.334  0.00  0.00     0.091 C 
ENDROOT
BRANCH   1   7
ATOM      7  O   LIG d   1       2.616  91.857 116.395  0.00  0.00    -0.368 OA
BRANCH   7   8
ATOM      8  C   LIG d   1       1.247  91.405 116.534  0.00  0.00     0.119 C 
BRANCH   8   9
ATOM      9  C   LIG d   1       0.447  92.546 117.191  0.00  0.00     0.028 C 
ATOM     10  C   LIG d   1       0.383  92.412 118.722  0.00  0.00     0.006 C 
ENDBRANCH   8   9
BRANCH   8  11
ATOM     11  C   LIG d   1       1.146  90.226 117.507  0.00  0.00     0.028 C 
ATOM     12  C   LIG d   1       0.443  89.005 116.892  0.00  0.00     0.006 C 
ENDBRANCH   8  11
ENDBRANCH   7   8
ENDBRANCH   1   7
BRANCH   6  13
ATOM     13  N   LIG d   1       4.069  89.300 115.735  0.00  0.00    -0.311 N 
ATOM     14  C   LIG d   1       3.670  89.226 114.467  0.00  0.00     0.210 C 
ATOM     15  C   LIG d   1       3.060  87.882 114.058  0.00  0.00     0.109 C 
ATOM     16  O   LIG d   1       3.794  90.135 113.632  0.00  0.00    -0.276 OA
ATOM     17  H   LIG d   1       3.960  88.505 116.334  0.00  0.00     0.149 HD
ENDBRANCH   6  13
BRANCH   5  18
ATOM     18  N   LIG d   1       7.047  89.684 116.299  0.00  0.00     0.381 N 
ATOM     19  H   LIG d   1       7.040  88.684 116.325  0.00  0.00    -0.090 HD
ATOM     20  H   LIG d   1       7.924  90.003 116.670  0.00  0.00    -0.090 HD
ATOM     21  H   LIG d   1       6.940  90.000 115.361  0.00  0.00    -0.090 HD
ENDBRANCH   5  18
BRANCH   3  22
ATOM     22  C   LIG d   1       5.851  92.931 119.610  0.00  0.00     0.382 C 
ATOM     23  O   LIG d   1       6.979  92.750 120.128  0.00  0.00    -0.241 OA
ATOM     24  O   LIG d   1       5.070  93.760 120.115  0.00  0.00    -0.241 OA
ENDBRANCH   3  22
TORSDOF 7
ENDMDL
MODEL 7
REMARK VINA RESULT:      -4.4      4.781      7.715
REMARK  7 active torsions:
REMARK  status: ('A' for Active; 'I' for Inactive)
REMARK    1  A    between atoms: C_2  and  C_3 
REMARK    2  A    between atoms: C_3  and  O_6 
REMARK    3  A    between atoms: C_3  and  C_4 
REMARK    4  A    between atoms: C_7  and  O_6 
REMARK    5  A    between atoms: C_9  and  C_10 
REMARK    6  A    between atoms: N_15  and  C_14 
REMARK    7  A    between atoms: N_20  and  C_19 
REMARK       I    between atoms: C_22  and  N_20 
ROOT
ATOM      1  C   LIG d   1       2.454  90.683 115.799  0.00  0.00     0.161 C 
ATOM      2  C   LIG d   1       3.641  90.067 115.368  0.00  0.00     0.016 C 
ATOM      3  C   LIG d   1       4.881  90.219 116.030  0.00  0.00     0.038 C 
ATOM      4  C   LIG d   1       4.988  90.880 117.263  0.00  0.00     0.028 C 
ATOM      5  C   LIG d   1       3.915  91.943 117.475  0.00  0.00    -0.047 C 
ATOM      6  C   LIG d   1       2.528  91.317 117.204  0.00  0.00     0.091 C 
ENDROOT
BRANCH   1   7
ATOM      7  O   LIG d   1       1.364  89.743 115.730  0.00  0.00    -0.368 OA
BRANCH   7   8
ATOM      8  C   LIG d   1       0.978  89.121 116.980  0.00  0.00     0.119 C 
BRANCH   8   9
ATOM      9  C   LIG d   1       1.583  87.703 116.998  0.00  0.00     0.028 C 
ATOM     10  C   LIG d   1       2.665  87.540 118.078  0.00  0.00     0.006 C 
ENDBRANCH   8   9
BRANCH   8  11
ATOM     11  C   LIG d   1      -0.538  88.916 117.057  0.00  0.00     0.028 C 
ATOM     12  C   LIG d   1      -1.167  89.580 118.292  0.00  0.00     0.006 C 
ENDBRANCH   8  11
ENDBRANCH   7   8
ENDBRANCH   1   7
BRANCH   6  13
ATOM     13  N   LIG d   1       1.428  92.310 117.307  0.00  0.00    -0.311 N 
ATOM     14  C   LIG d   1       0.790  92.582 118.445  0.00  0.00     0.210 C 
ATOM     15  C   LIG d   1      -0.326  93.625 118.327  0.00  0.00     0.109 C 
ATOM     16  O   LIG d   1       1.064  92.083 119.546  0.00  0.00    -0.276 OA
ATOM     17  H   LIG d   1       1.162  92.785 116.467  0.00  0.00     0.149 HD
ENDBRANCH   6  13
BRANCH   5  18
ATOM     18  N   LIG d   1       4.060  92.454 118.851  0.00  0.00     0.381 N 
ATOM     19  H   LIG d   1       4.388  91.723 119.451  0.00  0.00    -0.090 HD
ATOM     20  H   LIG d   1       3.160  92.754 119.183  0.00  0.00    -0.090 HD
ATOM     21  H   LIG d   1       4.699  93.218 118.865  0.00  0.00    -0.090 HD
ENDBRANCH   5  18
BRANCH   3  22
ATOM     22  C   LIG d   1       6.040  89.740 115.437  0.00  0.00     0.382 C 
ATOM     23  O   LIG d   1       6.057  89.489 114.208  0.00  0.00    -0.241 OA
ATOM     24  O   LIG d   1       7.054  89.514 116.124  0.00  0.00    -0.241 OA
ENDBRANCH   3  22
TORSDOF 7
ENDMDL
MODEL 8
REMARK VINA RESULT:      -4.4      5.757      8.436
REMARK  7 active torsions:
REMARK  status: ('A' for Active; 'I' for Inactive)
REMARK    1  A    between atoms: C_2  and  C_3 
REMARK    2  A    between atoms: C_3  and  O_6 
REMARK    3  A    between atoms: C_3  and  C_4 
REMARK    4  A    between atoms: C_7  and  O_6 
REMARK    5  A    between atoms: C_9  and  C_10 
REMARK    6  A    between atoms: N_15  and  C_14 
REMARK    7  A    between atoms: N_20  and  C_19 
REMARK       I    between atoms: C_22  and  N_20 
ROOT
ATOM      1  C   LIG d   1       3.167  90.248 116.148  0.00  0.00     0.161 C 
ATOM      2  C   LIG d   1       2.017  91.009 116.414  0.00  0.00     0.016 C 
ATOM      3  C   LIG d   1       1.882  91.846 117.546  0.00  0.00     0.038 C 
ATOM      4  C   LIG d   1       2.955  92.096 118.415  0.00  0.00     0.028 C 
ATOM      5  C   LIG d   1       3.970  90.959 118.467  0.00  0.00    -0.047 C 
ATOM      6  C   LIG d   1       4.389  90.594 117.025  0.00  0.00     0.091 C 
ENDROOT
BRANCH   1   7
ATOM      7  O   LIG d   1       3.508  90.350 114.751  0.00  0.00    -0.368 OA
BRANCH   7   8
ATOM      8  C   LIG d   1       3.419  89.125 113.982  0.00  0.00     0.119 C 
BRANCH   8   9
ATOM      9  C   LIG d   1       2.838  88.039 114.908  0.00  0.00     0.028 C 
ATOM     10  C   LIG d   1       3.733  86.791 114.983  0.00  0.00     0.006 C 
ENDBRANCH   8   9
BRANCH   8  11
ATOM     11  C   LIG d   1       4.807  88.616 113.582  0.00  0.00     0.028 C 
ATOM     12  C   LIG d   1       5.836  89.748 113.432  0.00  0.00     0.006 C 
ENDBRANCH   8  11
ENDBRANCH   7   8
ENDBRANCH   1   7
BRANCH   6  13
ATOM     13  N   LIG d   1       5.317  89.433 116.981  0.00  0.00    -0.311 N 
ATOM     14  C   LIG d   1       6.640  89.556 116.894  0.00  0.00     0.210 C 
ATOM     15  C   LIG d   1       7.410  88.233 116.842  0.00  0.00     0.109 C 
ATOM     16  O   LIG d   1       7.252  90.635 116.887  0.00  0.00    -0.276 OA
ATOM     17  H   LIG d   1       4.908  88.520 117.013  0.00  0.00     0.149 HD
ENDBRANCH   6  13
BRANCH   5  18
ATOM     18  N   LIG d   1       5.100  91.409 119.301  0.00  0.00     0.381 N 
ATOM     19  H   LIG d   1       5.357  90.685 119.943  0.00  0.00    -0.090 HD
ATOM     20  H   LIG d   1       4.813  92.213 119.832  0.00  0.00    -0.090 HD
ATOM     21  H   LIG d   1       5.878  91.643 118.724  0.00  0.00    -0.090 HD
ENDBRANCH   5  18
BRANCH   3  22
ATOM     22  C   LIG d   1       0.651  92.411 117.840  0.00  0.00     0.382 C 
ATOM     23  O   LIG d   1      -0.019  91.984 118.811  0.00  0.00    -0.241 OA
ATOM     24  O   LIG d   1       0.182  93.313 117.120  0.00  0.00    -0.241 OA
ENDBRANCH   3  22
TORSDOF 7
ENDMDL
MODEL 9
REMARK VINA RESULT:      -4.2      1.735      5.170
REMARK  7 active torsions:
REMARK  status: ('A' for Active; 'I' for Inactive)
REMARK    1  A    between atoms: C_2  and  C_3 
REMARK    2  A    between atoms: C_3  and  O_6 
REMARK    3  A    between atoms: C_3  and  C_4 
REMARK    4  A    between atoms: C_7  and  O_6 
REMARK    5  A    between atoms: C_9  and  C_10 
REMARK    6  A    between atoms: N_15  and  C_14 
REMARK    7  A    between atoms: N_20  and  C_19 
REMARK       I    between atoms: C_22  and  N_20 
ROOT
ATOM      1  C   LIG d   1      -2.485  93.111 117.870  0.00  0.00     0.161 C 
ATOM      2  C   LIG d   1      -1.857  94.008 118.749  0.00  0.00     0.016 C 
ATOM      3  C   LIG d   1      -2.473  94.513 119.918  0.00  0.00     0.038 C 
ATOM      4  C   LIG d   1      -3.711  94.033 120.369  0.00  0.00     0.028 C 
ATOM      5  C   LIG d   1      -4.600  93.504 119.249  0.00  0.00    -0.047 C 
ATOM      6  C   LIG d   1      -3.794  92.491 118.404  0.00  0.00     0.091 C 
ENDROOT
BRANCH   1   7
ATOM      7  O   LIG d   1      -1.560  92.075 117.486  0.00  0.00    -0.368 OA
BRANCH   7   8
ATOM      8  C   LIG d   1      -0.529  91.752 118.450  0.00  0.00     0.119 C 
BRANCH   8   9
ATOM      9  C   LIG d   1       0.777  91.511 117.669  0.00  0.00     0.028 C 
ATOM     10  C   LIG d   1       0.593  90.517 116.510  0.00  0.00     0.006 C 
ENDBRANCH   8   9
BRANCH   8  11
ATOM     11  C   LIG d   1      -0.826  90.428 119.162  0.00  0.00     0.028 C 
ATOM     12  C   LIG d   1      -1.629  90.616 120.458  0.00  0.00     0.006 C 
ENDBRANCH   8  11
ENDBRANCH   7   8
ENDBRANCH   1   7
BRANCH   6  13
ATOM     13  N   LIG d   1      -4.562  91.987 117.236  0.00  0.00    -0.311 N 
ATOM     14  C   LIG d   1      -4.465  90.741 116.777  0.00  0.00     0.210 C 
ATOM     15  C   LIG d   1      -5.330  90.435 115.550  0.00  0.00     0.109 C 
ATOM     16  O   LIG d   1      -3.770  89.851 117.289  0.00  0.00    -0.276 OA
ATOM     17  H   LIG d   1      -5.175  92.635 116.780  0.00  0.00     0.149 HD
ENDBRANCH   6  13
BRANCH   5  18
ATOM     18  N   LIG d   1      -5.798  92.911 119.873  0.00  0.00     0.381 N 
ATOM     19  H   LIG d   1      -5.953  93.325 120.771  0.00  0.00    -0.090 HD
ATOM     20  H   LIG d   1      -5.644  91.926 120.002  0.00  0.00    -0.090 HD
ATOM     21  H   LIG d   1      -6.594  93.056 119.291  0.00  0.00    -0.090 HD
ENDBRANCH   5  18
BRANCH   3  22
ATOM     22  C   LIG d   1      -1.865  95.538 120.627  0.00  0.00     0.382 C 
ATOM     23  O   LIG d   1      -2.520  96.564 120.930  0.00  0.00    -0.241 OA
ATOM     24  O   LIG d   1      -0.659  95.468 120.929  0.00  0.00    -0.241 OA
ENDBRANCH   3  22
TORSDOF 7
ENDMDL
