MODEL 1
REMARK VINA RESULT:      -4.5      0.000      0.000
REMARK  7 active torsions:
REMARK  status: ('A' for Active; 'I' for Inactive)
REMARK    1  A    between atoms: C_2  and  C_3 
REMARK    2  A    between atoms: C_3  and  O_6 
REMARK    3  A    between atoms: C_3  and  C_4 
REMARK    4  A    between atoms: C_7  and  O_6 
REMARK    5  A    between atoms: C_9  and  C_10 
REMARK    6  A    between atoms: N_15  and  C_14 
REMARK    7  A    between atoms: N_20  and  C_19 
REMARK       I    between atoms: C_22  and  N_20 
ROOT
ATOM      1  C   LIG d   1       0.877  90.317 117.933  0.00  0.00     0.161 C 
ATOM      2  C   LIG d   1      -0.515  90.144 118.014  0.00  0.00     0.016 C 
ATOM      3  C   LIG d   1      -1.388  91.105 118.575  0.00  0.00     0.038 C 
ATOM      4  C   LIG d   1      -0.940  92.377 118.960  0.00  0.00     0.028 C 
ATOM      5  C   LIG d   1       0.530  92.406 119.364  0.00  0.00    -0.047 C 
ATOM      6  C   LIG d   1       1.370  91.745 118.247  0.00  0.00     0.091 C 
ENDROOT
BRANCH   1   7
ATOM      7  O   LIG d   1       1.347  89.897 116.637  0.00  0.00    -0.368 OA
BRANCH   7   8
ATOM      8  C   LIG d   1       1.950  88.581 116.573  0.00  0.00     0.119 C 
BRANCH   8   9
ATOM      9  C   LIG d   1       3.437  88.770 116.217  0.00  0.00     0.028 C 
ATOM     10  C   LIG d   1       3.637  89.275 114.779  0.00  0.00     0.006 C 
ENDBRANCH   8   9
BRANCH   8  11
ATOM     11  C   LIG d   1       1.360  87.754 115.427  0.00  0.00     0.028 C 
ATOM     12  C   LIG d   1       0.266  86.782 115.896  0.00  0.00     0.006 C 
ENDBRANCH   8  11
ENDBRANCH   7   8
ENDBRANCH   1   7
BRANCH   6  13
ATOM     13  N   LIG d   1       2.811  91.656 118.599  0.00  0.00    -0.311 N 
ATOM     14  C   LIG d   1       3.791  92.032 117.779  0.00  0.00     0.210 C 
ATOM     15  C   LIG d   1       5.206  91.838 118.331  0.00  0.00     0.109 C 
ATOM     16  O   LIG d   1       3.621  92.539 116.660  0.00  0.00    -0.276 OA
ATOM     17  H   LIG d   1       3.038  91.285 119.501  0.00  0.00     0.149 HD
ENDBRANCH   6  13
BRANCH   5  18
ATOM     18  N   LIG d   1       0.898  93.814 119.607  0.00  0.00     0.381 N 
ATOM     19  H   LIG d   1       1.167  93.932 120.564  0.00  0.00    -0.090 HD
ATOM     20  H   LIG d   1       0.097  94.394 119.431  0.00  0.00    -0.090 HD
ATOM     21  H   LIG d   1       1.648  94.079 119.008  0.00  0.00    -0.090 HD
ENDBRANCH   5  18
BRANCH   3  22
ATOM     22  C   LIG d   1      -2.718  90.780 118.793  0.00  0.00     0.382 C 
ATOM     23  O   LIG d   1      -3.170  89.682 118.389  0.00  0.00    -0.241 OA
ATOM     24  O   LIG d   1      -3.483  91.591 119.348  0.00  0.00    -0.241 OA
ENDBRANCH   3  22
TORSDOF 7
ENDMDL
MODEL 2
REMARK VINA RESULT:      -4.4      4.001      6.659
REMARK  7 active torsions:
REMARK  status: ('A' for Active; 'I' for Inactive)
REMARK    1  A    between atoms: C_2  and  C_3 
REMARK    2  A    between atoms: C_3  and  O_6 
REMARK    3  A    between atoms: C_3  and  C_4 
REMARK    4  A    between atoms: C_7  and  O_6 
REMARK    5  A    between atoms: C_9  and  C_10 
REMARK    6  A    between atoms: N_15  and  C_14 
REMARK    7  A    between atoms: N_20  and  C_19 
REMARK       I    between atoms: C_22  and  N_20 
ROOT
ATOM      1  C   LIG d   1      -4.752  91.386 118.031  0.00  0.00     0.161 C 
ATOM      2  C   LIG d   1      -5.564  92.270 118.760  0.00  0.00     0.016 C 
ATOM      3  C   LIG d   1      -5.050  93.262 119.628  0.00  0.00     0.038 C 
ATOM      4  C   LIG d   1      -3.677  93.536 119.709  0.00  0.00     0.028 C 
ATOM      5  C   LIG d   1      -2.798  92.336 119.376  0.00  0.00    -0.047 C 
ATOM      6  C   LIG d   1      -3.251  91.743 118.022  0.00  0.00     0.091 C 
ENDROOT
BRANCH   1   7
ATOM      7  O   LIG d   1      -5.247  91.267 116.682  0.00  0.00    -0.368 OA
BRANCH   7   8
ATOM      8  C   LIG d   1      -6.677  91.087 116.542  0.00  0.00     0.119 C 
BRANCH   8   9
ATOM      9  C   LIG d   1      -6.909  89.709 115.891  0.00  0.00     0.028 C 
ATOM     10  C   LIG d   1      -8.276  89.109 116.258  0.00  0.00     0.006 C 
ENDBRANCH   8   9
BRANCH   8  11
ATOM     11  C   LIG d   1      -7.273  92.103 115.563  0.00  0.00     0.028 C 
ATOM     12  C   LIG d   1      -7.304  91.588 114.115  0.00  0.00     0.006 C 
ENDBRANCH   8  11
ENDBRANCH   7   8
ENDBRANCH   1   7
BRANCH   6  13
ATOM     13  N   LIG d   1      -2.498  90.514 117.661  0.00  0.00    -0.311 N 
ATOM     14  C   LIG d   1      -1.319  90.531 117.041  0.00  0.00     0.210 C 
ATOM     15  C   LIG d   1      -0.724  89.151 116.745  0.00  0.00     0.109 C 
ATOM     16  O   LIG d   1      -0.695  91.559 116.738  0.00  0.00    -0.276 OA
ATOM     17  H   LIG d   1      -2.917  89.636 117.899  0.00  0.00     0.149 HD
ENDBRANCH   6  13
BRANCH   5  18
ATOM     18  N   LIG d   1      -1.397  92.798 119.366  0.00  0.00     0.381 N 
ATOM     19  H   LIG d   1      -1.213  93.302 118.521  0.00  0.00    -0.090 HD
ATOM     20  H   LIG d   1      -0.791  91.997 119.393  0.00  0.00    -0.090 HD
ATOM     21  H   LIG d   1      -1.225  93.382 120.154  0.00  0.00    -0.090 HD
ENDBRANCH   5  18
BRANCH   3  22
ATOM     22  C   LIG d   1      -5.913  93.964 120.455  0.00  0.00     0.382 C 
ATOM     23  O   LIG d   1      -6.996  93.445 120.817  0.00  0.00    -0.241 OA
ATOM     24  O   LIG d   1      -5.642  95.127 120.809  0.00  0.00    -0.241 OA
ENDBRANCH   3  22
TORSDOF 7
ENDMDL
MODEL 3
REMARK VINA RESULT:      -4.3      2.370      4.175
REMARK  7 active torsions:
REMARK  status: ('A' for Active; 'I' for Inactive)
REMARK    1  A    between atoms: C_2  and  C_3 
REMARK    2  A    between atoms: C_3  and  O_6 
REMARK    3  A    between atoms: C_3  and  C_4 
REMARK    4  A    between atoms: C_7  and  O_6 
REMARK    5  A    between atoms: C_9  and  C_10 
REMARK    6  A    between atoms: N_15  and  C_14 
REMARK    7  A    between atoms: N_20  and  C_19 
REMARK       I    between atoms: C_22  and  N_20 
ROOT
ATOM      1  C   LIG d   1       2.088  89.326 118.232  0.00  0.00     0.161 C 
ATOM      2  C   LIG d   1       1.856  88.121 117.548  0.00  0.00     0.016 C 
ATOM      3  C   LIG d   1       0.763  87.920 116.674  0.00  0.00     0.038 C 
ATOM      4  C   LIG d   1      -0.093  88.968 116.305  0.00  0.00     0.028 C 
ATOM      5  C   LIG d   1      -0.197  90.066 117.358  0.00  0.00    -0.047 C 
ATOM      6  C   LIG d   1       1.228  90.516 117.756  0.00  0.00     0.091 C 
ENDROOT
BRANCH   1   7
ATOM      7  O   LIG d   1       3.488  89.663 118.167  0.00  0.00    -0.368 OA
BRANCH   7   8
ATOM      8  C   LIG d   1       3.878  90.568 117.105  0.00  0.00     0.119 C 
BRANCH   8   9
ATOM      9  C   LIG d   1       4.740  89.770 116.109  0.00  0.00     0.028 C 
ATOM     10  C   LIG d   1       4.025  89.540 114.767  0.00  0.00     0.006 C 
ENDBRANCH   8   9
BRANCH   8  11
ATOM     11  C   LIG d   1       4.789  91.682 117.629  0.00  0.00     0.028 C 
ATOM     12  C   LIG d   1       4.882  91.704 119.163  0.00  0.00     0.006 C 
ENDBRANCH   8  11
ENDBRANCH   7   8
ENDBRANCH   1   7
BRANCH   6  13
ATOM     13  N   LIG d   1       1.220  91.529 118.843  0.00  0.00    -0.311 N 
ATOM     14  C   LIG d   1       1.332  92.838 118.626  0.00  0.00     0.210 C 
ATOM     15  C   LIG d   1       1.320  93.706 119.889  0.00  0.00     0.109 C 
ATOM     16  O   LIG d   1       1.407  93.366 117.507  0.00  0.00    -0.276 OA
ATOM     17  H   LIG d   1       1.131  91.190 119.781  0.00  0.00     0.149 HD
ENDBRANCH   6  13
BRANCH   5  18
ATOM     18  N   LIG d   1      -1.009  91.157 116.787  0.00  0.00     0.381 N 
ATOM     19  H   LIG d   1      -0.880  91.992 117.323  0.00  0.00    -0.090 HD
ATOM     20  H   LIG d   1      -1.979  90.899 116.835  0.00  0.00    -0.090 HD
ATOM     21  H   LIG d   1      -0.747  91.317 115.840  0.00  0.00    -0.090 HD
ENDBRANCH   5  18
BRANCH   3  22
ATOM     22  C   LIG d   1       0.495  86.649 116.190  0.00  0.00     0.382 C 
ATOM     23  O   LIG d   1      -0.115  86.508 115.103  0.00  0.00    -0.241 OA
ATOM     24  O   LIG d   1       0.816  85.642 116.849  0.00  0.00    -0.241 OA
ENDBRANCH   3  22
TORSDOF 7
ENDMDL
MODEL 4
REMARK VINA RESULT:      -4.1      1.424      1.984
REMARK  7 active torsions:
REMARK  status: ('A' for Active; 'I' for Inactive)
REMARK    1  A    between atoms: C_2  and  C_3 
REMARK    2  A    between atoms: C_3  and  O_6 
REMARK    3  A    between atoms: C_3  and  C_4 
REMARK    4  A    between atoms: C_7  and  O_6 
REMARK    5  A    between atoms: C_9  and  C_10 
REMARK    6  A    between atoms: N_15  and  C_14 
REMARK    7  A    between atoms: N_20  and  C_19 
REMARK       I    between atoms: C_22  and  N_20 
ROOT
ATOM      1  C   LIG d   1       0.870  89.268 116.887  0.00  0.00     0.161 C 
ATOM      2  C   LIG d   1      -0.516  89.375 117.090  0.00  0.00     0.016 C 
ATOM      3  C   LIG d   1      -1.101  90.273 118.012  0.00  0.00     0.038 C 
ATOM      4  C   LIG d   1      -0.342  91.238 118.689  0.00  0.00     0.028 C 
ATOM      5  C   LIG d   1       1.113  90.830 118.894  0.00  0.00    -0.047 C 
ATOM      6  C   LIG d   1       1.706  90.390 117.536  0.00  0.00     0.091 C 
ENDROOT
BRANCH   1   7
ATOM      7  O   LIG d   1       1.152  89.184 115.476  0.00  0.00    -0.368 OA
BRANCH   7   8
ATOM      8  C   LIG d   1       1.396  87.856 114.952  0.00  0.00     0.119 C 
BRANCH   8   9
ATOM      9  C   LIG d   1       1.902  86.984 116.118  0.00  0.00     0.028 C 
ATOM     10  C   LIG d   1       3.038  86.038 115.693  0.00  0.00     0.006 C 
ENDBRANCH   8   9
BRANCH   8  11
ATOM     11  C   LIG d   1       2.533  87.861 113.926  0.00  0.00     0.028 C 
ATOM     12  C   LIG d   1       3.017  89.278 113.581  0.00  0.00     0.006 C 
ENDBRANCH   8  11
ENDBRANCH   7   8
ENDBRANCH   1   7
BRANCH   6  13
ATOM     13  N   LIG d   1       3.102  89.895 117.661  0.00  0.00    -0.311 N 
ATOM     14  C   LIG d   1       4.125  90.405 116.977  0.00  0.00     0.210 C 
ATOM     15  C   LIG d   1       5.477  89.735 117.240  0.00  0.00     0.109 C 
ATOM     16  O   LIG d   1       4.046  91.370 116.202  0.00  0.00    -0.276 OA
ATOM     17  H   LIG d   1       3.262  89.134 118.292  0.00  0.00     0.149 HD
ENDBRANCH   6  13
BRANCH   5  18
ATOM     18  N   LIG d   1       1.820  91.982 119.487  0.00  0.00     0.381 N 
ATOM     19  H   LIG d   1       1.247  92.799 119.425  0.00  0.00    -0.090 HD
ATOM     20  H   LIG d   1       2.664  92.148 118.968  0.00  0.00    -0.090 HD
ATOM     21  H   LIG d   1       2.039  91.792 120.440  0.00  0.00    -0.090 HD
ENDBRANCH   5  18
BRANCH   3  22
ATOM     22  C   LIG d   1      -2.456  90.184 118.293  0.00  0.00     0.382 C 
ATOM     23  O   LIG d   1      -3.201  89.477 117.572  0.00  0.00    -0.241 OA
ATOM     24  O   LIG d   1      -2.950  90.836 119.232  0.00  0.00    -0.241 OA
ENDBRANCH   3  22
TORSDOF 7
ENDMDL
MODEL 5
REMARK VINA RESULT:      -4.0      2.614      5.531
REMARK  7 active torsions:
REMARK  status: ('A' for Active; 'I' for Inactive)
REMARK    1  A    between atoms: C_2  and  C_3 
REMARK    2  A    between atoms: C_3  and  O_6 
REMARK    3  A    between atoms: C_3  and  C_4 
REMARK    4  A    between atoms: C_7  and  O_6 
REMARK    5  A    between atoms: C_9  and  C_10 
REMARK    6  A    between atoms: N_15  and  C_14 
REMARK    7  A    between atoms: N_20  and  C_19 
REMARK       I    between atoms: C_22  and  N_20 
ROOT
ATOM      1  C   LIG d   1       2.761  90.759 118.158  0.00  0.00     0.161 C 
ATOM      2  C   LIG d   1       3.236  91.649 119.136  0.00  0.00     0.016 C 
ATOM      3  C   LIG d   1       4.577  92.092 119.199  0.00  0.00     0.038 C 
ATOM      4  C   LIG d   1       5.505  91.792 118.191  0.00  0.00     0.028 C 
ATOM      5  C   LIG d   1       5.204  90.489 117.459  0.00  0.00    -0.047 C 
ATOM      6  C   LIG d   1       3.733  90.508 116.986  0.00  0.00     0.091 C 
ENDROOT
BRANCH   1   7
ATOM      7  O   LIG d   1       1.485  91.211 117.663  0.00  0.00    -0.368 OA
BRANCH   7   8
ATOM      8  C   LIG d   1       0.322  90.506 118.161  0.00  0.00     0.119 C 
BRANCH   8   9
ATOM      9  C   LIG d   1      -0.524  90.089 116.942  0.00  0.00     0.028 C 
ATOM     10  C   LIG d   1      -0.246  88.642 116.502  0.00  0.00     0.006 C 
ENDBRANCH   8   9
BRANCH   8  11
ATOM     11  C   LIG d   1      -0.581  91.430 118.983  0.00  0.00     0.028 C 
ATOM     12  C   LIG d   1      -1.759  90.688 119.634  0.00  0.00     0.006 C 
ENDBRANCH   8  11
ENDBRANCH   7   8
ENDBRANCH   1   7
BRANCH   6  13
ATOM     13  N   LIG d   1       3.331  89.234 116.333  0.00  0.00    -0.311 N 
ATOM     14  C   LIG d   1       3.286  89.069 115.012  0.00  0.00     0.210 C 
ATOM     15  C   LIG d   1       2.826  87.684 114.549  0.00  0.00     0.109 C 
ATOM     16  O   LIG d   1       3.616  89.929 114.181  0.00  0.00    -0.276 OA
ATOM     17  H   LIG d   1       3.077  88.474 116.934  0.00  0.00     0.149 HD
ENDBRANCH   6  13
BRANCH   5  18
ATOM     18  N   LIG d   1       6.167  90.369 116.348  0.00  0.00     0.381 N 
ATOM     19  H   LIG d   1       7.101  90.439 116.700  0.00  0.00    -0.090 HD
ATOM     20  H   LIG d   1       6.015  91.124 115.703  0.00  0.00    -0.090 HD
ATOM     21  H   LIG d   1       6.045  89.496 115.884  0.00  0.00    -0.090 HD
ENDBRANCH   5  18
BRANCH   3  22
ATOM     22  C   LIG d   1       5.011  92.814 120.301  0.00  0.00     0.382 C 
ATOM     23  O   LIG d   1       6.078  92.494 120.878  0.00  0.00    -0.241 OA
ATOM     24  O   LIG d   1       4.326  93.751 120.752  0.00  0.00    -0.241 OA
ENDBRANCH   3  22
TORSDOF 7
ENDMDL
MODEL 6
REMARK VINA RESULT:      -4.0      2.342      4.913
REMARK  7 active torsions:
REMARK  status: ('A' for Active; 'I' for Inactive)
REMARK    1  A    between atoms: C_2  and  C_3 
REMARK    2  A    between atoms: C_3  and  O_6 
REMARK    3  A    between atoms: C_3  and  C_4 
REMARK    4  A    between atoms: C_7  and  O_6 
REMARK    5  A    between atoms: C_9  and  C_10 
REMARK    6  A    between atoms: N_15  and  C_14 
REMARK    7  A    between atoms: N_20  and  C_19 
REMARK       I    between atoms: C_22  and  N_20 
ROOT
ATOM      1  C   LIG d   1       0.740  89.301 116.911  0.00  0.00     0.161 C 
ATOM      2  C   LIG d   1      -0.034  88.224 116.447  0.00  0.00     0.016 C 
ATOM      3  C   LIG d   1       0.506  87.125 115.741  0.00  0.00     0.038 C 
ATOM      4  C   LIG d   1       1.889  86.953 115.582  0.00  0.00     0.028 C 
ATOM      5  C   LIG d   1       2.667  88.264 115.592  0.00  0.00    -0.047 C 
ATOM      6  C   LIG d   1       2.265  89.077 116.844  0.00  0.00     0.091 C 
ENDROOT
BRANCH   1   7
ATOM      7  O   LIG d   1       0.342  89.645 118.253  0.00  0.00    -0.368 OA
BRANCH   7   8
ATOM      8  C   LIG d   1      -0.412  90.874 118.399  0.00  0.00     0.119 C 
BRANCH   8   9
ATOM      9  C   LIG d   1       0.415  91.821 119.290  0.00  0.00     0.028 C 
ATOM     10  C   LIG d   1       1.002  93.004 118.502  0.00  0.00     0.006 C 
ENDBRANCH   8   9
BRANCH   8  11
ATOM     11  C   LIG d   1      -1.719  90.638 119.161  0.00  0.00     0.028 C 
ATOM     12  C   LIG d   1      -2.836  90.075 118.268  0.00  0.00     0.006 C 
ENDBRANCH   8  11
ENDBRANCH   7   8
ENDBRANCH   1   7
BRANCH   6  13
ATOM     13  N   LIG d   1       2.918  90.411 116.888  0.00  0.00    -0.311 N 
ATOM     14  C   LIG d   1       4.039  90.657 117.564  0.00  0.00     0.210 C 
ATOM     15  C   LIG d   1       4.532  92.106 117.493  0.00  0.00     0.109 C 
ATOM     16  O   LIG d   1       4.689  89.806 118.190  0.00  0.00    -0.276 OA
ATOM     17  H   LIG d   1       2.474  91.153 116.382  0.00  0.00     0.149 HD
ENDBRANCH   6  13
BRANCH   5  18
ATOM     18  N   LIG d   1       4.104  87.930 115.557  0.00  0.00     0.381 N 
ATOM     19  H   LIG d   1       4.648  88.769 115.599  0.00  0.00    -0.090 HD
ATOM     20  H   LIG d   1       4.308  87.466 114.690  0.00  0.00    -0.090 HD
ATOM     21  H   LIG d   1       4.335  87.337 116.323  0.00  0.00    -0.090 HD
ENDBRANCH   5  18
BRANCH   3  22
ATOM     22  C   LIG d   1      -0.344  86.203 115.150  0.00  0.00     0.382 C 
ATOM     23  O   LIG d   1       0.057  85.508 114.186  0.00  0.00    -0.241 OA
ATOM     24  O   LIG d   1      -1.522  86.088 115.541  0.00  0.00    -0.241 OA
ENDBRANCH   3  22
TORSDOF 7
ENDMDL
MODEL 7
REMARK VINA RESULT:      -4.0      2.279      4.152
REMARK  7 active torsions:
REMARK  status: ('A' for Active; 'I' for Inactive)
REMARK    1  A    between atoms: C_2  and  C_3 
REMARK    2  A    between atoms: C_3  and  O_6 
REMARK    3  A    between atoms: C_3  and  C_4 
REMARK    4  A    between atoms: C_7  and  O_6 
REMARK    5  A    between atoms: C_9  and  C_10 
REMARK    6  A    between atoms: N_15  and  C_14 
REMARK    7  A    between atoms: N_20  and  C_19 
REMARK       I    between atoms: C_22  and  N_20 
ROOT
ATOM      1  C   LIG d   1       0.423  90.980 118.153  0.00  0.00     0.161 C 
ATOM      2  C   LIG d   1      -0.412  91.571 119.117  0.00  0.00     0.016 C 
ATOM      3  C   LIG d   1      -1.794  91.292 119.225  0.00  0.00     0.038 C 
ATOM      4  C   LIG d   1      -2.408  90.282 118.469  0.00  0.00     0.028 C 
ATOM      5  C   LIG d   1      -1.714  90.016 117.137  0.00  0.00    -0.047 C 
ATOM      6  C   LIG d   1      -0.206  89.795 117.392  0.00  0.00     0.091 C 
ENDROOT
BRANCH   1   7
ATOM      7  O   LIG d   1       1.666  90.582 118.763  0.00  0.00    -0.368 OA
BRANCH   7   8
ATOM      8  C   LIG d   1       2.852  91.278 118.306  0.00  0.00     0.119 C 
BRANCH   8   9
ATOM      9  C   LIG d   1       3.785  90.232 117.665  0.00  0.00     0.028 C 
ATOM     10  C   LIG d   1       4.518  90.780 116.429  0.00  0.00     0.006 C 
ENDBRANCH   8   9
BRANCH   8  11
ATOM     11  C   LIG d   1       3.643  91.861 119.481  0.00  0.00     0.028 C 
ATOM     12  C   LIG d   1       2.992  93.122 120.071  0.00  0.00     0.006 C 
ENDBRANCH   8  11
ENDBRANCH   7   8
ENDBRANCH   1   7
BRANCH   6  13
ATOM     13  N   LIG d   1       0.561  89.611 116.133  0.00  0.00    -0.311 N 
ATOM     14  C   LIG d   1       0.873  88.417 115.631  0.00  0.00     0.210 C 
ATOM     15  C   LIG d   1       1.686  88.453 114.333  0.00  0.00     0.109 C 
ATOM     16  O   LIG d   1       0.525  87.332 116.121  0.00  0.00    -0.276 OA
ATOM     17  H   LIG d   1       0.856  90.439 115.653  0.00  0.00     0.149 HD
ENDBRANCH   6  13
BRANCH   5  18
ATOM     18  N   LIG d   1      -2.373  88.852 116.516  0.00  0.00     0.381 N 
ATOM     19  H   LIG d   1      -3.253  88.683 116.961  0.00  0.00    -0.090 HD
ATOM     20  H   LIG d   1      -1.793  88.042 116.647  0.00  0.00    -0.090 HD
ATOM     21  H   LIG d   1      -2.511  89.017 115.543  0.00  0.00    -0.090 HD
ENDBRANCH   5  18
BRANCH   3  22
ATOM     22  C   LIG d   1      -2.585  92.055 120.071  0.00  0.00     0.382 C 
ATOM     23  O   LIG d   1      -3.833  92.041 119.944  0.00  0.00    -0.241 OA
ATOM     24  O   LIG d   1      -2.064  92.791 120.930  0.00  0.00    -0.241 OA
ENDBRANCH   3  22
TORSDOF 7
ENDMDL
MODEL 8
REMARK VINA RESULT:      -3.9      2.301      4.032
REMARK  7 active torsions:
REMARK  status: ('A' for Active; 'I' for Inactive)
REMARK    1  A    between atoms: C_2  and  C_3 
REMARK    2  A    between atoms: C_3  and  O_6 
REMARK    3  A    between atoms: C_3  and  C_4 
REMARK    4  A    between atoms: C_7  and  O_6 
REMARK    5  A    between atoms: C_9  and  C_10 
REMARK    6  A    between atoms: N_15  and  C_14 
REMARK    7  A    between atoms: N_20  and  C_19 
REMARK       I    between atoms: C_22  and  N_20 
ROOT
ATOM      1  C   LIG d   1       1.410  90.328 118.170  0.00  0.00     0.161 C 
ATOM      2  C   LIG d   1       0.755  90.906 119.269  0.00  0.00     0.016 C 
ATOM      3  C   LIG d   1      -0.652  90.934 119.410  0.00  0.00     0.038 C 
ATOM      4  C   LIG d   1      -1.499  90.248 118.527  0.00  0.00     0.028 C 
ATOM      5  C   LIG d   1      -0.911  90.080 117.130  0.00  0.00    -0.047 C 
ATOM      6  C   LIG d   1       0.507  89.477 117.252  0.00  0.00     0.091 C 
ENDROOT
BRANCH   1   7
ATOM      7  O   LIG d   1       2.536  89.551 118.625  0.00  0.00    -0.368 OA
BRANCH   7   8
ATOM      8  C   LIG d   1       3.846  90.089 118.321  0.00  0.00     0.119 C 
BRANCH   8   9
ATOM      9  C   LIG d   1       3.653  91.547 117.863  0.00  0.00     0.028 C 
ATOM     10  C   LIG d   1       4.337  92.554 118.803  0.00  0.00     0.006 C 
ENDBRANCH   8   9
BRANCH   8  11
ATOM     11  C   LIG d   1       4.481  89.369 117.127  0.00  0.00     0.028 C 
ATOM     12  C   LIG d   1       4.674  90.288 115.911  0.00  0.00     0.006 C 
ENDBRANCH   8  11
ENDBRANCH   7   8
ENDBRANCH   1   7
BRANCH   6  13
ATOM     13  N   LIG d   1       1.188  89.358 115.936  0.00  0.00    -0.311 N 
ATOM     14  C   LIG d   1       1.099  88.279 115.160  0.00  0.00     0.210 C 
ATOM     15  C   LIG d   1       1.895  88.356 113.853  0.00  0.00     0.109 C 
ATOM     16  O   LIG d   1       0.412  87.279 115.415  0.00  0.00    -0.276 OA
ATOM     17  H   LIG d   1       1.742  90.137 115.637  0.00  0.00     0.149 HD
ENDBRANCH   6  13
BRANCH   5  18
ATOM     18  N   LIG d   1      -1.836  89.231 116.356  0.00  0.00     0.381 N 
ATOM     19  H   LIG d   1      -1.590  89.259 115.387  0.00  0.00    -0.090 HD
ATOM     20  H   LIG d   1      -2.768  89.592 116.455  0.00  0.00    -0.090 HD
ATOM     21  H   LIG d   1      -1.798  88.293 116.689  0.00  0.00    -0.090 HD
ENDBRANCH   5  18
BRANCH   3  22
ATOM     22  C   LIG d   1      -1.226  91.689 120.421  0.00  0.00     0.382 C 
ATOM     23  O   LIG d   1      -0.590  92.644 120.929  0.00  0.00    -0.241 OA
ATOM     24  O   LIG d   1      -2.355  91.400 120.862  0.00  0.00    -0.241 OA
ENDBRANCH   3  22
TORSDOF 7
ENDMDL
MODEL 9
REMARK VINA RESULT:      -3.8      5.129      7.715
REMARK  7 active torsions:
REMARK  status: ('A' for Active; 'I' for Inactive)
REMARK    1  A    between atoms: C_2  and  C_3 
REMARK    2  A    between atoms: C_3  and  O_6 
REMARK    3  A    between atoms: C_3  and  C_4 
REMARK    4  A    between atoms: C_7  and  O_6 
REMARK    5  A    between atoms: C_9  and  C_10 
REMARK    6  A    between atoms: N_15  and  C_14 
REMARK    7  A    between atoms: N_20  and  C_19 
REMARK       I    between atoms: C_22  and  N_20 
ROOT
ATOM      1  C   LIG d   1      -6.442  91.968 117.768  0.00  0.00     0.161 C 
ATOM      2  C   LIG d   1      -7.481  92.883 118.010  0.00  0.00     0.016 C 
ATOM      3  C   LIG d   1      -7.358  93.986 118.886  0.00  0.00     0.038 C 
ATOM      4  C   LIG d   1      -6.131  94.337 119.468  0.00  0.00     0.028 C 
ATOM      5  C   LIG d   1      -5.186  93.154 119.651  0.00  0.00    -0.047 C 
ATOM      6  C   LIG d   1      -5.062  92.399 118.308  0.00  0.00     0.091 C 
ENDROOT
BRANCH   1   7
ATOM      7  O   LIG d   1      -6.362  91.682 116.357  0.00  0.00    -0.368 OA
BRANCH   7   8
ATOM      8  C   LIG d   1      -6.631  90.313 115.968  0.00  0.00     0.119 C 
BRANCH   8   9
ATOM      9  C   LIG d   1      -7.046  90.327 114.484  0.00  0.00     0.028 C 
ATOM     10  C   LIG d   1      -7.412  91.736 113.990  0.00  0.00     0.006 C 
ENDBRANCH   8   9
BRANCH   8  11
ATOM     11  C   LIG d   1      -7.838  89.747 116.722  0.00  0.00     0.028 C 
ATOM     12  C   LIG d   1      -8.665  88.768 115.873  0.00  0.00     0.006 C 
ENDBRANCH   8  11
ENDBRANCH   7   8
ENDBRANCH   1   7
BRANCH   6  13
ATOM     13  N   LIG d   1      -4.222  91.178 118.419  0.00  0.00    -0.311 N 
ATOM     14  C   LIG d   1      -2.938  91.137 118.069  0.00  0.00     0.210 C 
ATOM     15  C   LIG d   1      -2.262  89.774 118.246  0.00  0.00     0.109 C 
ATOM     16  O   LIG d   1      -2.285  92.109 117.659  0.00  0.00    -0.276 OA
ATOM     17  H   LIG d   1      -4.663  90.351 118.772  0.00  0.00     0.149 HD
ENDBRANCH   6  13
BRANCH   5  18
ATOM     18  N   LIG d   1      -3.898  93.683 120.137  0.00  0.00     0.381 N 
ATOM     19  H   LIG d   1      -3.259  92.929 120.292  0.00  0.00    -0.090 HD
ATOM     20  H   LIG d   1      -4.049  94.153 121.013  0.00  0.00    -0.090 HD
ATOM     21  H   LIG d   1      -3.518  94.320 119.472  0.00  0.00    -0.090 HD
ENDBRANCH   5  18
BRANCH   3  22
ATOM     22  C   LIG d   1      -8.481  94.727 119.219  0.00  0.00     0.382 C 
ATOM     23  O   LIG d   1      -9.554  94.144 119.509  0.00  0.00    -0.241 OA
ATOM     24  O   LIG d   1      -8.448  95.972 119.190  0.00  0.00    -0.241 OA
ENDBRANCH   3  22
TORSDOF 7
ENDMDL
