MODEL 1
REMARK VINA RESULT:      -5.7      0.000      0.000
REMARK  7 active torsions:
REMARK  status: ('A' for Active; 'I' for Inactive)
REMARK    1  A    between atoms: C_2  and  C_3 
REMARK    2  A    between atoms: C_3  and  O_6 
REMARK    3  A    between atoms: C_3  and  C_4 
REMARK    4  A    between atoms: C_7  and  O_6 
REMARK    5  A    between atoms: C_9  and  C_10 
REMARK    6  A    between atoms: N_15  and  C_14 
REMARK    7  A    between atoms: N_20  and  C_19 
REMARK       I    between atoms: C_22  and  N_20 
ROOT
ATOM      1  C   LIG d   1      -4.919  92.098 117.525  0.00  0.00     0.161 C 
ATOM      2  C   LIG d   1      -4.601  92.763 118.722  0.00  0.00     0.016 C 
ATOM      3  C   LIG d   1      -5.494  93.632 119.390  0.00  0.00     0.038 C 
ATOM      4  C   LIG d   1      -6.829  93.778 118.984  0.00  0.00     0.028 C 
ATOM      5  C   LIG d   1      -7.042  93.519 117.497  0.00  0.00    -0.047 C 
ATOM      6  C   LIG d   1      -6.409  92.158 117.128  0.00  0.00     0.091 C 
ENDROOT
BRANCH   1   7
ATOM      7  O   LIG d   1      -4.474  90.729 117.594  0.00  0.00    -0.368 OA
BRANCH   7   8
ATOM      8  C   LIG d   1      -3.282  90.485 118.381  0.00  0.00     0.119 C 
BRANCH   8   9
ATOM      9  C   LIG d   1      -2.076  90.543 117.424  0.00  0.00     0.028 C 
ATOM     10  C   LIG d   1      -1.200  91.786 117.658  0.00  0.00     0.006 C 
ENDBRANCH   8   9
BRANCH   8  11
ATOM     11  C   LIG d   1      -3.275  89.066 118.956  0.00  0.00     0.028 C 
ATOM     12  C   LIG d   1      -1.933  88.346 118.751  0.00  0.00     0.006 C 
ENDBRANCH   8  11
ENDBRANCH   7   8
ENDBRANCH   1   7
BRANCH   6  13
ATOM     13  N   LIG d   1      -6.499  91.867 115.674  0.00  0.00    -0.311 N 
ATOM     14  C   LIG d   1      -7.201  90.853 115.171  0.00  0.00     0.210 C 
ATOM     15  C   LIG d   1      -7.143  90.719 113.646  0.00  0.00     0.109 C 
ATOM     16  O   LIG d   1      -7.892  90.071 115.841  0.00  0.00    -0.276 OA
ATOM     17  H   LIG d   1      -5.993  92.471 115.055  0.00  0.00     0.149 HD
ENDBRANCH   6  13
BRANCH   5  18
ATOM     18  N   LIG d   1      -8.494  93.570 117.239  0.00  0.00     0.381 N 
ATOM     19  H   LIG d   1      -8.782  94.520 117.109  0.00  0.00    -0.090 HD
ATOM     20  H   LIG d   1      -8.979  93.200 118.037  0.00  0.00    -0.090 HD
ATOM     21  H   LIG d   1      -8.715  93.035 116.429  0.00  0.00    -0.090 HD
ENDBRANCH   5  18
BRANCH   3  22
ATOM     22  C   LIG d   1      -5.042  94.396 120.454  0.00  0.00     0.382 C 
ATOM     23  O   LIG d   1      -5.769  95.301 120.930  0.00  0.00    -0.241 OA
ATOM     24  O   LIG d   1      -3.898  94.223 120.916  0.00  0.00    -0.241 OA
ENDBRANCH   3  22
TORSDOF 7
ENDMDL
MODEL 2
REMARK VINA RESULT:      -5.5      1.735      4.944
REMARK  7 active torsions:
REMARK  status: ('A' for Active; 'I' for Inactive)
REMARK    1  A    between atoms: C_2  and  C_3 
REMARK    2  A    between atoms: C_3  and  O_6 
REMARK    3  A    between atoms: C_3  and  C_4 
REMARK    4  A    between atoms: C_7  and  O_6 
REMARK    5  A    between atoms: C_9  and  C_10 
REMARK    6  A    between atoms: N_15  and  C_14 
REMARK    7  A    between atoms: N_20  and  C_19 
REMARK       I    between atoms: C_22  and  N_20 
ROOT
ATOM      1  C   LIG d   1      -4.346  91.663 117.244  0.00  0.00     0.161 C 
ATOM      2  C   LIG d   1      -5.110  91.107 116.205  0.00  0.00     0.016 C 
ATOM      3  C   LIG d   1      -6.449  91.477 115.939  0.00  0.00     0.038 C 
ATOM      4  C   LIG d   1      -7.069  92.546 116.604  0.00  0.00     0.028 C 
ATOM      5  C   LIG d   1      -6.508  92.797 118.000  0.00  0.00    -0.047 C 
ATOM      6  C   LIG d   1      -4.969  92.908 117.910  0.00  0.00     0.091 C 
ENDROOT
BRANCH   1   7
ATOM      7  O   LIG d   1      -3.018  91.960 116.770  0.00  0.00    -0.368 OA
BRANCH   7   8
ATOM      8  C   LIG d   1      -1.974  91.043 117.182  0.00  0.00     0.119 C 
BRANCH   8   9
ATOM      9  C   LIG d   1      -2.474  90.309 118.442  0.00  0.00     0.028 C 
ATOM     10  C   LIG d   1      -2.413  88.780 118.292  0.00  0.00     0.006 C 
ENDBRANCH   8   9
BRANCH   8  11
ATOM     11  C   LIG d   1      -0.715  91.795 117.624  0.00  0.00     0.028 C 
ATOM     12  C   LIG d   1      -0.533  93.134 116.891  0.00  0.00     0.006 C 
ENDBRANCH   8  11
ENDBRANCH   7   8
ENDBRANCH   1   7
BRANCH   6  13
ATOM     13  N   LIG d   1      -4.333  93.071 119.243  0.00  0.00    -0.311 N 
ATOM     14  C   LIG d   1      -3.367  93.953 119.492  0.00  0.00     0.210 C 
ATOM     15  C   LIG d   1      -2.837  93.942 120.930  0.00  0.00     0.109 C 
ATOM     16  O   LIG d   1      -2.921  94.765 118.668  0.00  0.00    -0.276 OA
ATOM     17  H   LIG d   1      -4.657  92.473 119.979  0.00  0.00     0.149 HD
ENDBRANCH   6  13
BRANCH   5  18
ATOM     18  N   LIG d   1      -7.146  94.020 118.523  0.00  0.00     0.381 N 
ATOM     19  H   LIG d   1      -6.746  94.259 119.408  0.00  0.00    -0.090 HD
ATOM     20  H   LIG d   1      -8.126  93.842 118.657  0.00  0.00    -0.090 HD
ATOM     21  H   LIG d   1      -7.023  94.771 117.880  0.00  0.00    -0.090 HD
ENDBRANCH   5  18
BRANCH   3  22
ATOM     22  C   LIG d   1      -7.194  90.749 115.024  0.00  0.00     0.382 C 
ATOM     23  O   LIG d   1      -7.996  89.872 115.426  0.00  0.00    -0.241 OA
ATOM     24  O   LIG d   1      -7.043  90.928 113.801  0.00  0.00    -0.241 OA
ENDBRANCH   3  22
TORSDOF 7
ENDMDL
MODEL 3
REMARK VINA RESULT:      -5.1      2.222      4.163
REMARK  7 active torsions:
REMARK  status: ('A' for Active; 'I' for Inactive)
REMARK    1  A    between atoms: C_2  and  C_3 
REMARK    2  A    between atoms: C_3  and  O_6 
REMARK    3  A    between atoms: C_3  and  C_4 
REMARK    4  A    between atoms: C_7  and  O_6 
REMARK    5  A    between atoms: C_9  and  C_10 
REMARK    6  A    between atoms: N_15  and  C_14 
REMARK    7  A    between atoms: N_20  and  C_19 
REMARK       I    between atoms: C_22  and  N_20 
ROOT
ATOM      1  C   LIG d   1      -4.508  92.771 118.858  0.00  0.00     0.161 C 
ATOM      2  C   LIG d   1      -5.740  93.447 118.876  0.00  0.00     0.016 C 
ATOM      3  C   LIG d   1      -6.752  93.245 117.909  0.00  0.00     0.038 C 
ATOM      4  C   LIG d   1      -6.659  92.237 116.938  0.00  0.00     0.028 C 
ATOM      5  C   LIG d   1      -5.223  91.876 116.574  0.00  0.00    -0.047 C 
ATOM      6  C   LIG d   1      -4.434  91.587 117.872  0.00  0.00     0.091 C 
ENDROOT
BRANCH   1   7
ATOM      7  O   LIG d   1      -4.171  92.336 120.190  0.00  0.00    -0.368 OA
BRANCH   7   8
ATOM      8  C   LIG d   1      -3.061  93.019 120.822  0.00  0.00     0.119 C 
BRANCH   8   9
ATOM      9  C   LIG d   1      -2.635  94.170 119.891  0.00  0.00     0.028 C 
ATOM     10  C   LIG d   1      -2.856  95.553 120.527  0.00  0.00     0.006 C 
ENDBRANCH   8   9
BRANCH   8  11
ATOM     11  C   LIG d   1      -1.834  92.109 120.930  0.00  0.00     0.028 C 
ATOM     12  C   LIG d   1      -0.616  92.659 120.171  0.00  0.00     0.006 C 
ENDBRANCH   8  11
ENDBRANCH   7   8
ENDBRANCH   1   7
BRANCH   6  13
ATOM     13  N   LIG d   1      -2.998  91.308 117.611  0.00  0.00    -0.311 N 
ATOM     14  C   LIG d   1      -2.421  90.134 117.865  0.00  0.00     0.210 C 
ATOM     15  C   LIG d   1      -0.925  90.065 117.541  0.00  0.00     0.109 C 
ATOM     16  O   LIG d   1      -3.013  89.134 118.297  0.00  0.00    -0.276 OA
ATOM     17  H   LIG d   1      -2.449  92.055 117.231  0.00  0.00     0.149 HD
ENDBRANCH   6  13
BRANCH   5  18
ATOM     18  N   LIG d   1      -5.272  90.721 115.658  0.00  0.00     0.381 N 
ATOM     19  H   LIG d   1      -5.043  91.015 114.730  0.00  0.00    -0.090 HD
ATOM     20  H   LIG d   1      -6.207  90.352 115.650  0.00  0.00    -0.090 HD
ATOM     21  H   LIG d   1      -4.633  90.019 115.960  0.00  0.00    -0.090 HD
ENDBRANCH   5  18
BRANCH   3  22
ATOM     22  C   LIG d   1      -7.854  94.086 117.883  0.00  0.00     0.382 C 
ATOM     23  O   LIG d   1      -7.749  95.271 118.280  0.00  0.00    -0.241 OA
ATOM     24  O   LIG d   1      -8.964  93.660 117.510  0.00  0.00    -0.241 OA
ENDBRANCH   3  22
TORSDOF 7
ENDMDL
MODEL 4
REMARK VINA RESULT:      -5.1      2.629      6.072
REMARK  7 active torsions:
REMARK  status: ('A' for Active; 'I' for Inactive)
REMARK    1  A    between atoms: C_2  and  C_3 
REMARK    2  A    between atoms: C_3  and  O_6 
REMARK    3  A    between atoms: C_3  and  C_4 
REMARK    4  A    between atoms: C_7  and  O_6 
REMARK    5  A    between atoms: C_9  and  C_10 
REMARK    6  A    between atoms: N_15  and  C_14 
REMARK    7  A    between atoms: N_20  and  C_19 
REMARK       I    between atoms: C_22  and  N_20 
ROOT
ATOM      1  C   LIG d   1      -5.174  93.112 118.551  0.00  0.00     0.161 C 
ATOM      2  C   LIG d   1      -6.186  92.624 117.708  0.00  0.00     0.016 C 
ATOM      3  C   LIG d   1      -5.945  91.727 116.641  0.00  0.00     0.038 C 
ATOM      4  C   LIG d   1      -4.689  91.136 116.440  0.00  0.00     0.028 C 
ATOM      5  C   LIG d   1      -3.530  91.985 116.953  0.00  0.00    -0.047 C 
ATOM      6  C   LIG d   1      -3.816  92.392 118.416  0.00  0.00     0.091 C 
ENDROOT
BRANCH   1   7
ATOM      7  O   LIG d   1      -5.623  93.082 119.921  0.00  0.00    -0.368 OA
BRANCH   7   8
ATOM      8  C   LIG d   1      -5.840  94.369 120.549  0.00  0.00     0.119 C 
BRANCH   8   9
ATOM      9  C   LIG d   1      -7.289  94.796 120.243  0.00  0.00     0.028 C 
ATOM     10  C   LIG d   1      -7.359  95.943 119.221  0.00  0.00     0.006 C 
ENDBRANCH   8   9
BRANCH   8  11
ATOM     11  C   LIG d   1      -4.957  95.452 119.920  0.00  0.00     0.028 C 
ATOM     12  C   LIG d   1      -3.991  96.092 120.929  0.00  0.00     0.006 C 
ENDBRANCH   8  11
ENDBRANCH   7   8
ENDBRANCH   1   7
BRANCH   6  13
ATOM     13  N   LIG d   1      -2.772  93.294 118.968  0.00  0.00    -0.311 N 
ATOM     14  C   LIG d   1      -1.729  92.863 119.675  0.00  0.00     0.210 C 
ATOM     15  C   LIG d   1      -0.782  93.961 120.167  0.00  0.00     0.109 C 
ATOM     16  O   LIG d   1      -1.482  91.671 119.915  0.00  0.00    -0.276 OA
ATOM     17  H   LIG d   1      -2.878  94.275 118.794  0.00  0.00     0.149 HD
ENDBRANCH   6  13
BRANCH   5  18
ATOM     18  N   LIG d   1      -2.296  91.191 116.804  0.00  0.00     0.381 N 
ATOM     19  H   LIG d   1      -2.420  90.291 117.222  0.00  0.00    -0.090 HD
ATOM     20  H   LIG d   1      -1.548  91.661 117.282  0.00  0.00    -0.090 HD
ATOM     21  H   LIG d   1      -2.071  91.088 115.839  0.00  0.00    -0.090 HD
ENDBRANCH   5  18
BRANCH   3  22
ATOM     22  C   LIG d   1      -6.958  91.445 115.739  0.00  0.00     0.382 C 
ATOM     23  O   LIG d   1      -7.378  92.340 114.966  0.00  0.00    -0.241 OA
ATOM     24  O   LIG d   1      -7.490  90.318 115.718  0.00  0.00    -0.241 OA
ENDBRANCH   3  22
TORSDOF 7
ENDMDL
MODEL 5
REMARK VINA RESULT:      -5.1      3.283      5.322
REMARK  7 active torsions:
REMARK  status: ('A' for Active; 'I' for Inactive)
REMARK    1  A    between atoms: C_2  and  C_3 
REMARK    2  A    between atoms: C_3  and  O_6 
REMARK    3  A    between atoms: C_3  and  C_4 
REMARK    4  A    between atoms: C_7  and  O_6 
REMARK    5  A    between atoms: C_9  and  C_10 
REMARK    6  A    between atoms: N_15  and  C_14 
REMARK    7  A    between atoms: N_20  and  C_19 
REMARK       I    between atoms: C_22  and  N_20 
ROOT
ATOM      1  C   LIG d   1      -0.762  90.890 116.921  0.00  0.00     0.161 C 
ATOM      2  C   LIG d   1       0.559  91.251 117.233  0.00  0.00     0.016 C 
ATOM      3  C   LIG d   1       0.927  92.540 117.685  0.00  0.00     0.038 C 
ATOM      4  C   LIG d   1      -0.029  93.516 118.001  0.00  0.00     0.028 C 
ATOM      5  C   LIG d   1      -1.332  93.363 117.223  0.00  0.00    -0.047 C 
ATOM      6  C   LIG d   1      -1.834  91.907 117.366  0.00  0.00     0.091 C 
ENDROOT
BRANCH   1   7
ATOM      7  O   LIG d   1      -1.053  89.587 117.464  0.00  0.00    -0.368 OA
BRANCH   7   8
ATOM      8  C   LIG d   1      -0.656  89.366 118.840  0.00  0.00     0.119 C 
BRANCH   8   9
ATOM      9  C   LIG d   1      -0.001  87.973 118.914  0.00  0.00     0.028 C 
ATOM     10  C   LIG d   1       0.294  87.388 117.523  0.00  0.00     0.006 C 
ENDBRANCH   8   9
BRANCH   8  11
ATOM     11  C   LIG d   1      -1.873  89.291 119.766  0.00  0.00     0.028 C 
ATOM     12  C   LIG d   1      -3.138  88.792 119.050  0.00  0.00     0.006 C 
ENDBRANCH   8  11
ENDBRANCH   7   8
ENDBRANCH   1   7
BRANCH   6  13
ATOM     13  N   LIG d   1      -3.059  91.649 116.566  0.00  0.00    -0.311 N 
ATOM     14  C   LIG d   1      -4.292  91.762 117.057  0.00  0.00     0.210 C 
ATOM     15  C   LIG d   1      -5.414  91.431 116.068  0.00  0.00     0.109 C 
ATOM     16  O   LIG d   1      -4.564  92.136 118.208  0.00  0.00    -0.276 OA
ATOM     17  H   LIG d   1      -2.931  91.371 115.613  0.00  0.00     0.149 HD
ENDBRANCH   6  13
BRANCH   5  18
ATOM     18  N   LIG d   1      -2.285  94.357 117.750  0.00  0.00     0.381 N 
ATOM     19  H   LIG d   1      -1.812  94.986 118.368  0.00  0.00    -0.090 HD
ATOM     20  H   LIG d   1      -2.999  93.880 118.271  0.00  0.00    -0.090 HD
ATOM     21  H   LIG d   1      -2.696  94.866 116.998  0.00  0.00    -0.090 HD
ENDBRANCH   5  18
BRANCH   3  22
ATOM     22  C   LIG d   1       2.269  92.875 117.786  0.00  0.00     0.382 C 
ATOM     23  O   LIG d   1       3.104  92.364 117.001  0.00  0.00    -0.241 OA
ATOM     24  O   LIG d   1       2.661  93.648 118.680  0.00  0.00    -0.241 OA
ENDBRANCH   3  22
TORSDOF 7
ENDMDL
MODEL 6
REMARK VINA RESULT:      -4.9      1.722      4.671
REMARK  7 active torsions:
REMARK  status: ('A' for Active; 'I' for Inactive)
REMARK    1  A    between atoms: C_2  and  C_3 
REMARK    2  A    between atoms: C_3  and  O_6 
REMARK    3  A    between atoms: C_3  and  C_4 
REMARK    4  A    between atoms: C_7  and  O_6 
REMARK    5  A    between atoms: C_9  and  C_10 
REMARK    6  A    between atoms: N_15  and  C_14 
REMARK    7  A    between atoms: N_20  and  C_19 
REMARK       I    between atoms: C_22  and  N_20 
ROOT
ATOM      1  C   LIG d   1      -5.024  92.367 117.835  0.00  0.00     0.161 C 
ATOM      2  C   LIG d   1      -5.387  91.439 116.844  0.00  0.00     0.016 C 
ATOM      3  C   LIG d   1      -6.604  91.502 116.127  0.00  0.00     0.038 C 
ATOM      4  C   LIG d   1      -7.480  92.591 116.248  0.00  0.00     0.028 C 
ATOM      5  C   LIG d   1      -7.396  93.289 117.601  0.00  0.00    -0.047 C 
ATOM      6  C   LIG d   1      -5.917  93.624 117.901  0.00  0.00     0.091 C 
ENDROOT
BRANCH   1   7
ATOM      7  O   LIG d   1      -3.642  92.741 117.670  0.00  0.00    -0.368 OA
BRANCH   7   8
ATOM      8  C   LIG d   1      -2.702  92.124 118.584  0.00  0.00     0.119 C 
BRANCH   8   9
ATOM      9  C   LIG d   1      -1.682  93.203 118.996  0.00  0.00     0.028 C 
ATOM     10  C   LIG d   1      -0.592  93.418 117.933  0.00  0.00     0.006 C 
ENDBRANCH   8   9
BRANCH   8  11
ATOM     11  C   LIG d   1      -1.881  91.035 117.887  0.00  0.00     0.028 C 
ATOM     12  C   LIG d   1      -2.462  89.628 118.093  0.00  0.00     0.006 C 
ENDBRANCH   8  11
ENDBRANCH   7   8
ENDBRANCH   1   7
BRANCH   6  13
ATOM     13  N   LIG d   1      -5.735  94.233 119.244  0.00  0.00    -0.311 N 
ATOM     14  C   LIG d   1      -5.819  95.543 119.473  0.00  0.00     0.210 C 
ATOM     15  C   LIG d   1      -5.579  95.963 120.926  0.00  0.00     0.109 C 
ATOM     16  O   LIG d   1      -6.103  96.393 118.616  0.00  0.00    -0.276 OA
ATOM     17  H   LIG d   1      -5.533  93.613 120.004  0.00  0.00     0.149 HD
ENDBRANCH   6  13
BRANCH   5  18
ATOM     18  N   LIG d   1      -8.258  94.485 117.540  0.00  0.00     0.381 N 
ATOM     19  H   LIG d   1      -8.614  94.693 118.452  0.00  0.00    -0.090 HD
ATOM     20  H   LIG d   1      -9.036  94.294 116.934  0.00  0.00    -0.090 HD
ATOM     21  H   LIG d   1      -7.739  95.262 117.193  0.00  0.00    -0.090 HD
ENDBRANCH   5  18
BRANCH   3  22
ATOM     22  C   LIG d   1      -6.975  90.447 115.308  0.00  0.00     0.382 C 
ATOM     23  O   LIG d   1      -8.083  89.883 115.473  0.00  0.00    -0.241 OA
ATOM     24  O   LIG d   1      -6.195  90.022 114.434  0.00  0.00    -0.241 OA
ENDBRANCH   3  22
TORSDOF 7
ENDMDL
MODEL 7
REMARK VINA RESULT:      -4.9      2.638      5.872
REMARK  7 active torsions:
REMARK  status: ('A' for Active; 'I' for Inactive)
REMARK    1  A    between atoms: C_2  and  C_3 
REMARK    2  A    between atoms: C_3  and  O_6 
REMARK    3  A    between atoms: C_3  and  C_4 
REMARK    4  A    between atoms: C_7  and  O_6 
REMARK    5  A    between atoms: C_9  and  C_10 
REMARK    6  A    between atoms: N_15  and  C_14 
REMARK    7  A    between atoms: N_20  and  C_19 
REMARK       I    between atoms: C_22  and  N_20 
ROOT
ATOM      1  C   LIG d   1      -3.826  92.452 117.654  0.00  0.00     0.161 C 
ATOM      2  C   LIG d   1      -2.909  91.461 117.264  0.00  0.00     0.016 C 
ATOM      3  C   LIG d   1      -1.604  91.355 117.798  0.00  0.00     0.038 C 
ATOM      4  C   LIG d   1      -1.177  92.146 118.875  0.00  0.00     0.028 C 
ATOM      5  C   LIG d   1      -1.890  93.491 118.959  0.00  0.00    -0.047 C 
ATOM      6  C   LIG d   1      -3.417  93.254 118.907  0.00  0.00     0.091 C 
ENDROOT
BRANCH   1   7
ATOM      7  O   LIG d   1      -5.130  91.866 117.837  0.00  0.00    -0.368 OA
BRANCH   7   8
ATOM      8  C   LIG d   1      -6.177  92.355 116.964  0.00  0.00     0.119 C 
BRANCH   8   9
ATOM      9  C   LIG d   1      -7.403  92.670 117.843  0.00  0.00     0.028 C 
ATOM     10  C   LIG d   1      -8.005  94.052 117.536  0.00  0.00     0.006 C 
ENDBRANCH   8   9
BRANCH   8  11
ATOM     11  C   LIG d   1      -6.645  91.268 115.991  0.00  0.00     0.028 C 
ATOM     12  C   LIG d   1      -6.832  91.791 114.559  0.00  0.00     0.006 C 
ENDBRANCH   8  11
ENDBRANCH   7   8
ENDBRANCH   1   7
BRANCH   6  13
ATOM     13  N   LIG d   1      -4.188  94.524 118.899  0.00  0.00    -0.311 N 
ATOM     14  C   LIG d   1      -5.111  94.827 119.811  0.00  0.00     0.210 C 
ATOM     15  C   LIG d   1      -5.802  96.179 119.606  0.00  0.00     0.109 C 
ATOM     16  O   LIG d   1      -5.400  94.119 120.787  0.00  0.00    -0.276 OA
ATOM     17  H   LIG d   1      -3.995  95.171 118.160  0.00  0.00     0.149 HD
ENDBRANCH   6  13
BRANCH   5  18
ATOM     18  N   LIG d   1      -1.450  94.152 120.202  0.00  0.00     0.381 N 
ATOM     19  H   LIG d   1      -2.110  94.858 120.462  0.00  0.00    -0.090 HD
ATOM     20  H   LIG d   1      -0.563  94.594 120.038  0.00  0.00    -0.090 HD
ATOM     21  H   LIG d   1      -1.365  93.481 120.933  0.00  0.00    -0.090 HD
ENDBRANCH   5  18
BRANCH   3  22
ATOM     22  C   LIG d   1      -0.697  90.476 117.225  0.00  0.00     0.382 C 
ATOM     23  O   LIG d   1       0.230  90.915 116.502  0.00  0.00    -0.241 OA
ATOM     24  O   LIG d   1      -0.820  89.248 117.387  0.00  0.00    -0.241 OA
ENDBRANCH   3  22
TORSDOF 7
ENDMDL
MODEL 8
REMARK VINA RESULT:      -4.8      3.670      6.001
REMARK  7 active torsions:
REMARK  status: ('A' for Active; 'I' for Inactive)
REMARK    1  A    between atoms: C_2  and  C_3 
REMARK    2  A    between atoms: C_3  and  O_6 
REMARK    3  A    between atoms: C_3  and  C_4 
REMARK    4  A    between atoms: C_7  and  O_6 
REMARK    5  A    between atoms: C_9  and  C_10 
REMARK    6  A    between atoms: N_15  and  C_14 
REMARK    7  A    between atoms: N_20  and  C_19 
REMARK       I    between atoms: C_22  and  N_20 
ROOT
ATOM      1  C   LIG d   1      -0.447  90.495 117.771  0.00  0.00     0.161 C 
ATOM      2  C   LIG d   1       0.929  90.642 118.010  0.00  0.00     0.016 C 
ATOM      3  C   LIG d   1       1.634  91.846 117.781  0.00  0.00     0.038 C 
ATOM      4  C   LIG d   1       0.976  93.037 117.437  0.00  0.00     0.028 C 
ATOM      5  C   LIG d   1      -0.338  92.811 116.697  0.00  0.00    -0.047 C 
ATOM      6  C   LIG d   1      -1.202  91.813 117.501  0.00  0.00     0.091 C 
ENDROOT
BRANCH   1   7
ATOM      7  O   LIG d   1      -1.059  89.781 118.863  0.00  0.00    -0.368 OA
BRANCH   7   8
ATOM      8  C   LIG d   1      -1.712  88.533 118.523  0.00  0.00     0.119 C 
BRANCH   8   9
ATOM      9  C   LIG d   1      -3.143  88.588 119.092  0.00  0.00     0.028 C 
ATOM     10  C   LIG d   1      -3.302  87.735 120.362  0.00  0.00     0.006 C 
ENDBRANCH   8   9
BRANCH   8  11
ATOM     11  C   LIG d   1      -1.042  87.346 119.222  0.00  0.00     0.028 C 
ATOM     12  C   LIG d   1       0.142  86.775 118.426  0.00  0.00     0.006 C 
ENDBRANCH   8  11
ENDBRANCH   7   8
ENDBRANCH   1   7
BRANCH   6  13
ATOM     13  N   LIG d   1      -2.470  91.472 116.805  0.00  0.00    -0.311 N 
ATOM     14  C   LIG d   1      -3.665  91.906 117.203  0.00  0.00     0.210 C 
ATOM     15  C   LIG d   1      -4.844  91.420 116.355  0.00  0.00     0.109 C 
ATOM     16  O   LIG d   1      -3.856  92.674 118.157  0.00  0.00    -0.276 OA
ATOM     17  H   LIG d   1      -2.403  90.878 116.002  0.00  0.00     0.149 HD
ENDBRANCH   6  13
BRANCH   5  18
ATOM     18  N   LIG d   1      -0.983  94.126 116.523  0.00  0.00     0.381 N 
ATOM     19  H   LIG d   1      -0.476  94.666 115.851  0.00  0.00    -0.090 HD
ATOM     20  H   LIG d   1      -0.965  94.615 117.400  0.00  0.00    -0.090 HD
ATOM     21  H   LIG d   1      -1.925  94.006 116.220  0.00  0.00    -0.090 HD
ENDBRANCH   5  18
BRANCH   3  22
ATOM     22  C   LIG d   1       3.018  91.857 117.857  0.00  0.00     0.382 C 
ATOM     23  O   LIG d   1       3.600  91.243 118.783  0.00  0.00    -0.241 OA
ATOM     24  O   LIG d   1       3.691  92.510 117.036  0.00  0.00    -0.241 OA
ENDBRANCH   3  22
TORSDOF 7
ENDMDL
MODEL 9
REMARK VINA RESULT:      -4.7      2.459      4.955
REMARK  7 active torsions:
REMARK  status: ('A' for Active; 'I' for Inactive)
REMARK    1  A    between atoms: C_2  and  C_3 
REMARK    2  A    between atoms: C_3  and  O_6 
REMARK    3  A    between atoms: C_3  and  C_4 
REMARK    4  A    between atoms: C_7  and  O_6 
REMARK    5  A    between atoms: C_9  and  C_10 
REMARK    6  A    between atoms: N_15  and  C_14 
REMARK    7  A    between atoms: N_20  and  C_19 
REMARK       I    between atoms: C_22  and  N_20 
ROOT
ATOM      1  C   LIG d   1      -3.695  91.880 118.398  0.00  0.00     0.161 C 
ATOM      2  C   LIG d   1      -4.003  93.121 118.978  0.00  0.00     0.016 C 
ATOM      3  C   LIG d   1      -3.227  94.286 118.782  0.00  0.00     0.038 C 
ATOM      4  C   LIG d   1      -2.167  94.325 117.863  0.00  0.00     0.028 C 
ATOM      5  C   LIG d   1      -1.511  92.966 117.638  0.00  0.00    -0.047 C 
ATOM      6  C   LIG d   1      -2.607  91.929 117.305  0.00  0.00     0.091 C 
ENDROOT
BRANCH   1   7
ATOM      7  O   LIG d   1      -4.896  91.270 117.883  0.00  0.00    -0.368 OA
BRANCH   7   8
ATOM      8  C   LIG d   1      -5.576  91.993 116.827  0.00  0.00     0.119 C 
BRANCH   8   9
ATOM      9  C   LIG d   1      -7.040  92.187 117.268  0.00  0.00     0.028 C 
ATOM     10  C   LIG d   1      -7.350  93.644 117.648  0.00  0.00     0.006 C 
ENDBRANCH   8   9
BRANCH   8  11
ATOM     11  C   LIG d   1      -5.645  91.166 115.540  0.00  0.00     0.028 C 
ATOM     12  C   LIG d   1      -6.713  91.677 114.561  0.00  0.00     0.006 C 
ENDBRANCH   8  11
ENDBRANCH   7   8
ENDBRANCH   1   7
BRANCH   6  13
ATOM     13  N   LIG d   1      -2.060  90.555 117.153  0.00  0.00    -0.311 N 
ATOM     14  C   LIG d   1      -1.424  89.908 118.127  0.00  0.00     0.210 C 
ATOM     15  C   LIG d   1      -0.923  88.509 117.753  0.00  0.00     0.109 C 
ATOM     16  O   LIG d   1      -1.256  90.346 119.275  0.00  0.00    -0.276 OA
ATOM     17  H   LIG d   1      -2.180  90.113 116.263  0.00  0.00     0.149 HD
ENDBRANCH   6  13
BRANCH   5  18
ATOM     18  N   LIG d   1      -0.518  93.125 116.560  0.00  0.00     0.381 N 
ATOM     19  H   LIG d   1      -0.461  92.281 116.025  0.00  0.00    -0.090 HD
ATOM     20  H   LIG d   1       0.383  93.299 116.970  0.00  0.00    -0.090 HD
ATOM     21  H   LIG d   1      -0.774  93.885 115.969  0.00  0.00    -0.090 HD
ENDBRANCH   5  18
BRANCH   3  22
ATOM     22  C   LIG d   1      -3.484  95.419 119.539  0.00  0.00     0.382 C 
ATOM     23  O   LIG d   1      -4.637  95.625 119.988  0.00  0.00    -0.241 OA
ATOM     24  O   LIG d   1      -2.587  96.260 119.741  0.00  0.00    -0.241 OA
ENDBRANCH   3  22
TORSDOF 7
ENDMDL
