MODEL 1
REMARK VINA RESULT:      -5.4      0.000      0.000
REMARK  7 active torsions:
REMARK  status: ('A' for Active; 'I' for Inactive)
REMARK    1  A    between atoms: C_2  and  C_3 
REMARK    2  A    between atoms: C_3  and  O_6 
REMARK    3  A    between atoms: C_3  and  C_4 
REMARK    4  A    between atoms: C_7  and  O_6 
REMARK    5  A    between atoms: C_9  and  C_10 
REMARK    6  A    between atoms: N_15  and  C_14 
REMARK    7  A    between atoms: N_20  and  C_19 
REMARK       I    between atoms: C_22  and  N_20 
ROOT
ATOM      1  C   LIG d   1      -6.130  92.921 117.237  0.00  0.00     0.161 C 
ATOM      2  C   LIG d   1      -7.102  92.040 116.735  0.00  0.00     0.016 C 
ATOM      3  C   LIG d   1      -6.812  90.726 116.302  0.00  0.00     0.038 C 
ATOM      4  C   LIG d   1      -5.547  90.148 116.484  0.00  0.00     0.028 C 
ATOM      5  C   LIG d   1      -4.414  91.168 116.520  0.00  0.00    -0.047 C 
ATOM      6  C   LIG d   1      -4.766  92.271 117.546  0.00  0.00     0.091 C 
ENDROOT
BRANCH   1   7
ATOM      7  O   LIG d   1      -6.639  93.597 118.404  0.00  0.00    -0.368 OA
BRANCH   7   8
ATOM      8  C   LIG d   1      -6.862  95.022 118.268  0.00  0.00     0.119 C 
BRANCH   8   9
ATOM      9  C   LIG d   1      -5.938  95.734 119.275  0.00  0.00     0.028 C 
ATOM     10  C   LIG d   1      -5.542  94.826 120.451  0.00  0.00     0.006 C 
ENDBRANCH   8   9
BRANCH   8  11
ATOM     11  C   LIG d   1      -8.286  95.405 118.683  0.00  0.00     0.028 C 
ATOM     12  C   LIG d   1      -9.148  94.186 119.048  0.00  0.00     0.006 C 
ENDBRANCH   8  11
ENDBRANCH   7   8
ENDBRANCH   1   7
BRANCH   6  13
ATOM     13  N   LIG d   1      -3.749  93.354 117.583  0.00  0.00    -0.311 N 
ATOM     14  C   LIG d   1      -2.737  93.380 118.449  0.00  0.00     0.210 C 
ATOM     15  C   LIG d   1      -1.815  94.598 118.329  0.00  0.00     0.109 C 
ATOM     16  O   LIG d   1      -2.496  92.494 119.282  0.00  0.00    -0.276 OA
ATOM     17  H   LIG d   1      -3.850  94.098 116.920  0.00  0.00     0.149 HD
ENDBRANCH   6  13
BRANCH   5  18
ATOM     18  N   LIG d   1      -3.173  90.445 116.852  0.00  0.00     0.381 N 
ATOM     19  H   LIG d   1      -2.641  90.284 116.020  0.00  0.00    -0.090 HD
ATOM     20  H   LIG d   1      -3.412  89.554 117.250  0.00  0.00    -0.090 HD
ATOM     21  H   LIG d   1      -2.633  90.973 117.502  0.00  0.00    -0.090 HD
ENDBRANCH   5  18
BRANCH   3  22
ATOM     22  C   LIG d   1      -7.784  89.989 115.643  0.00  0.00     0.382 C 
ATOM     23  O   LIG d   1      -8.537  89.223 116.292  0.00  0.00    -0.241 OA
ATOM     24  O   LIG d   1      -7.889  90.046 114.404  0.00  0.00    -0.241 OA
ENDBRANCH   3  22
TORSDOF 7
ENDMDL
MODEL 2
REMARK VINA RESULT:      -5.3      1.921      4.189
REMARK  7 active torsions:
REMARK  status: ('A' for Active; 'I' for Inactive)
REMARK    1  A    between atoms: C_2  and  C_3 
REMARK    2  A    between atoms: C_3  and  O_6 
REMARK    3  A    between atoms: C_3  and  C_4 
REMARK    4  A    between atoms: C_7  and  O_6 
REMARK    5  A    between atoms: C_9  and  C_10 
REMARK    6  A    between atoms: N_15  and  C_14 
REMARK    7  A    between atoms: N_20  and  C_19 
REMARK       I    between atoms: C_22  and  N_20 
ROOT
ATOM      1  C   LIG d   1      -4.874  92.505 117.652  0.00  0.00     0.161 C 
ATOM      2  C   LIG d   1      -4.950  91.498 116.675  0.00  0.00     0.016 C 
ATOM      3  C   LIG d   1      -6.130  91.201 115.954  0.00  0.00     0.038 C 
ATOM      4  C   LIG d   1      -7.281  91.997 116.055  0.00  0.00     0.028 C 
ATOM      5  C   LIG d   1      -7.408  92.711 117.397  0.00  0.00    -0.047 C 
ATOM      6  C   LIG d   1      -6.088  93.457 117.696  0.00  0.00     0.091 C 
ENDROOT
BRANCH   1   7
ATOM      7  O   LIG d   1      -3.655  93.256 117.485  0.00  0.00    -0.368 OA
BRANCH   7   8
ATOM      8  C   LIG d   1      -2.702  93.173 118.573  0.00  0.00     0.119 C 
BRANCH   8   9
ATOM      9  C   LIG d   1      -1.922  94.502 118.608  0.00  0.00     0.028 C 
ATOM     10  C   LIG d   1      -2.703  95.621 119.318  0.00  0.00     0.006 C 
ENDBRANCH   8   9
BRANCH   8  11
ATOM     11  C   LIG d   1      -1.649  92.092 118.311  0.00  0.00     0.028 C 
ATOM     12  C   LIG d   1      -1.858  90.835 119.170  0.00  0.00     0.006 C 
ENDBRANCH   8  11
ENDBRANCH   7   8
ENDBRANCH   1   7
BRANCH   6  13
ATOM     13  N   LIG d   1      -6.097  94.112 119.030  0.00  0.00    -0.311 N 
ATOM     14  C   LIG d   1      -6.458  95.380 119.221  0.00  0.00     0.210 C 
ATOM     15  C   LIG d   1      -6.376  95.864 120.672  0.00  0.00     0.109 C 
ATOM     16  O   LIG d   1      -6.870  96.140 118.332  0.00  0.00    -0.276 OA
ATOM     17  H   LIG d   1      -5.807  93.559 119.812  0.00  0.00     0.149 HD
ENDBRANCH   6  13
BRANCH   5  18
ATOM     18  N   LIG d   1      -8.574  93.610 117.315  0.00  0.00     0.381 N 
ATOM     19  H   LIG d   1      -8.387  94.350 116.669  0.00  0.00    -0.090 HD
ATOM     20  H   LIG d   1      -8.737  94.015 118.220  0.00  0.00    -0.090 HD
ATOM     21  H   LIG d   1      -9.378  93.099 117.022  0.00  0.00    -0.090 HD
ENDBRANCH   5  18
BRANCH   3  22
ATOM     22  C   LIG d   1      -6.178  90.072 115.151  0.00  0.00     0.382 C 
ATOM     23  O   LIG d   1      -7.260  89.730 114.616  0.00  0.00    -0.241 OA
ATOM     24  O   LIG d   1      -5.164  89.368 114.990  0.00  0.00    -0.241 OA
ENDBRANCH   3  22
TORSDOF 7
ENDMDL
MODEL 3
REMARK VINA RESULT:      -5.2      1.995      4.788
REMARK  7 active torsions:
REMARK  status: ('A' for Active; 'I' for Inactive)
REMARK    1  A    between atoms: C_2  and  C_3 
REMARK    2  A    between atoms: C_3  and  O_6 
REMARK    3  A    between atoms: C_3  and  C_4 
REMARK    4  A    between atoms: C_7  and  O_6 
REMARK    5  A    between atoms: C_9  and  C_10 
REMARK    6  A    between atoms: N_15  and  C_14 
REMARK    7  A    between atoms: N_20  and  C_19 
REMARK       I    between atoms: C_22  and  N_20 
ROOT
ATOM      1  C   LIG d   1      -6.182  92.072 119.115  0.00  0.00     0.161 C 
ATOM      2  C   LIG d   1      -7.480  92.587 118.959  0.00  0.00     0.016 C 
ATOM      3  C   LIG d   1      -7.759  93.967 118.831  0.00  0.00     0.038 C 
ATOM      4  C   LIG d   1      -6.738  94.921 118.697  0.00  0.00     0.028 C 
ATOM      5  C   LIG d   1      -5.428  94.502 119.355  0.00  0.00    -0.047 C 
ATOM      6  C   LIG d   1      -5.048  93.087 118.860  0.00  0.00     0.091 C 
ENDROOT
BRANCH   1   7
ATOM      7  O   LIG d   1      -6.013  90.912 118.277  0.00  0.00    -0.368 OA
BRANCH   7   8
ATOM      8  C   LIG d   1      -6.237  91.111 116.860  0.00  0.00     0.119 C 
BRANCH   8   9
ATOM      9  C   LIG d   1      -7.338  90.125 116.422  0.00  0.00     0.028 C 
ATOM     10  C   LIG d   1      -7.585  90.157 114.905  0.00  0.00     0.006 C 
ENDBRANCH   8   9
BRANCH   8  11
ATOM     11  C   LIG d   1      -5.001  90.728 116.041  0.00  0.00     0.028 C 
ATOM     12  C   LIG d   1      -3.906  90.064 116.891  0.00  0.00     0.006 C 
ENDBRANCH   8  11
ENDBRANCH   7   8
ENDBRANCH   1   7
BRANCH   6  13
ATOM     13  N   LIG d   1      -3.822  92.567 119.519  0.00  0.00    -0.311 N 
ATOM     14  C   LIG d   1      -2.597  92.727 119.021  0.00  0.00     0.210 C 
ATOM     15  C   LIG d   1      -1.474  92.095 119.848  0.00  0.00     0.109 C 
ATOM     16  O   LIG d   1      -2.331  93.361 117.988  0.00  0.00    -0.276 OA
ATOM     17  H   LIG d   1      -3.943  92.066 120.378  0.00  0.00     0.149 HD
ENDBRANCH   6  13
BRANCH   5  18
ATOM     18  N   LIG d   1      -4.416  95.522 119.021  0.00  0.00     0.381 N 
ATOM     19  H   LIG d   1      -3.746  95.139 118.384  0.00  0.00    -0.090 HD
ATOM     20  H   LIG d   1      -3.934  95.789 119.862  0.00  0.00    -0.090 HD
ATOM     21  H   LIG d   1      -4.855  96.318 118.615  0.00  0.00    -0.090 HD
ENDBRANCH   5  18
BRANCH   3  22
ATOM     22  C   LIG d   1      -9.072  94.410 118.875  0.00  0.00     0.382 C 
ATOM     23  O   LIG d   1      -9.330  95.626 118.704  0.00  0.00    -0.241 OA
ATOM     24  O   LIG d   1      -9.998  93.616 119.128  0.00  0.00    -0.241 OA
ENDBRANCH   3  22
TORSDOF 7
ENDMDL
MODEL 4
REMARK VINA RESULT:      -5.1      2.166      4.513
REMARK  7 active torsions:
REMARK  status: ('A' for Active; 'I' for Inactive)
REMARK    1  A    between atoms: C_2  and  C_3 
REMARK    2  A    between atoms: C_3  and  O_6 
REMARK    3  A    between atoms: C_3  and  C_4 
REMARK    4  A    between atoms: C_7  and  O_6 
REMARK    5  A    between atoms: C_9  and  C_10 
REMARK    6  A    between atoms: N_15  and  C_14 
REMARK    7  A    between atoms: N_20  and  C_19 
REMARK       I    between atoms: C_22  and  N_20 
ROOT
ATOM      1  C   LIG d   1      -4.460  91.274 117.789  0.00  0.00     0.161 C 
ATOM      2  C   LIG d   1      -5.326  90.453 117.048  0.00  0.00     0.016 C 
ATOM      3  C   LIG d   1      -6.537  90.911 116.481  0.00  0.00     0.038 C 
ATOM      4  C   LIG d   1      -6.893  92.268 116.489  0.00  0.00     0.028 C 
ATOM      5  C   LIG d   1      -6.299  93.043 117.660  0.00  0.00    -0.047 C 
ATOM      6  C   LIG d   1      -4.776  92.783 117.714  0.00  0.00     0.091 C 
ENDROOT
BRANCH   1   7
ATOM      7  O   LIG d   1      -3.095  91.028 117.394  0.00  0.00    -0.368 OA
BRANCH   7   8
ATOM      8  C   LIG d   1      -2.271  90.323 118.354  0.00  0.00     0.119 C 
BRANCH   8   9
ATOM      9  C   LIG d   1      -0.833  90.861 118.213  0.00  0.00     0.028 C 
ATOM     10  C   LIG d   1      -0.316  91.502 119.511  0.00  0.00     0.006 C 
ENDBRANCH   8   9
BRANCH   8  11
ATOM     11  C   LIG d   1      -2.180  88.831 118.022  0.00  0.00     0.028 C 
ATOM     12  C   LIG d   1      -0.785  88.413 117.533  0.00  0.00     0.006 C 
ENDBRANCH   8  11
ENDBRANCH   7   8
ENDBRANCH   1   7
BRANCH   6  13
ATOM     13  N   LIG d   1      -4.130  93.437 118.881  0.00  0.00    -0.311 N 
ATOM     14  C   LIG d   1      -2.941  94.035 118.821  0.00  0.00     0.210 C 
ATOM     15  C   LIG d   1      -2.449  94.629 120.145  0.00  0.00     0.109 C 
ATOM     16  O   LIG d   1      -2.263  94.159 117.790  0.00  0.00    -0.276 OA
ATOM     17  H   LIG d   1      -4.625  93.410 119.751  0.00  0.00     0.149 HD
ENDBRANCH   6  13
BRANCH   5  18
ATOM     18  N   LIG d   1      -6.635  94.467 117.469  0.00  0.00     0.381 N 
ATOM     19  H   LIG d   1      -6.739  94.913 118.359  0.00  0.00    -0.090 HD
ATOM     20  H   LIG d   1      -7.510  94.531 116.980  0.00  0.00    -0.090 HD
ATOM     21  H   LIG d   1      -5.919  94.919 116.944  0.00  0.00    -0.090 HD
ENDBRANCH   5  18
BRANCH   3  22
ATOM     22  C   LIG d   1      -7.427  90.001 115.932  0.00  0.00     0.382 C 
ATOM     23  O   LIG d   1      -8.174  89.325 116.680  0.00  0.00    -0.241 OA
ATOM     24  O   LIG d   1      -7.461  89.814 114.701  0.00  0.00    -0.241 OA
ENDBRANCH   3  22
TORSDOF 7
ENDMDL
MODEL 5
REMARK VINA RESULT:      -4.9      2.438      4.276
REMARK  7 active torsions:
REMARK  status: ('A' for Active; 'I' for Inactive)
REMARK    1  A    between atoms: C_2  and  C_3 
REMARK    2  A    between atoms: C_3  and  O_6 
REMARK    3  A    between atoms: C_3  and  C_4 
REMARK    4  A    between atoms: C_7  and  O_6 
REMARK    5  A    between atoms: C_9  and  C_10 
REMARK    6  A    between atoms: N_15  and  C_14 
REMARK    7  A    between atoms: N_20  and  C_19 
REMARK       I    between atoms: C_22  and  N_20 
ROOT
ATOM      1  C   LIG d   1      -6.159  91.747 119.114  0.00  0.00     0.161 C 
ATOM      2  C   LIG d   1      -5.252  91.023 118.322  0.00  0.00     0.016 C 
ATOM      3  C   LIG d   1      -5.379  90.887 116.921  0.00  0.00     0.038 C 
ATOM      4  C   LIG d   1      -6.344  91.597 116.192  0.00  0.00     0.028 C 
ATOM      5  C   LIG d   1      -7.588  91.937 117.005  0.00  0.00    -0.047 C 
ATOM      6  C   LIG d   1      -7.155  92.619 118.323  0.00  0.00     0.091 C 
ENDROOT
BRANCH   1   7
ATOM      7  O   LIG d   1      -5.439  92.550 120.071  0.00  0.00    -0.368 OA
BRANCH   7   8
ATOM      8  C   LIG d   1      -4.927  93.815 119.584  0.00  0.00     0.119 C 
BRANCH   8   9
ATOM      9  C   LIG d   1      -3.389  93.750 119.657  0.00  0.00     0.028 C 
ATOM     10  C   LIG d   1      -2.738  93.697 118.265  0.00  0.00     0.006 C 
ENDBRANCH   8   9
BRANCH   8  11
ATOM     11  C   LIG d   1      -5.329  94.970 120.506  0.00  0.00     0.028 C 
ATOM     12  C   LIG d   1      -5.619  96.270 119.740  0.00  0.00     0.006 C 
ENDBRANCH   8  11
ENDBRANCH   7   8
ENDBRANCH   1   7
BRANCH   6  13
ATOM     13  N   LIG d   1      -8.307  92.910 119.216  0.00  0.00    -0.311 N 
ATOM     14  C   LIG d   1      -8.943  94.080 119.235  0.00  0.00     0.210 C 
ATOM     15  C   LIG d   1     -10.091  94.175 120.245  0.00  0.00     0.109 C 
ATOM     16  O   LIG d   1      -8.688  95.036 118.487  0.00  0.00    -0.276 OA
ATOM     17  H   LIG d   1      -8.601  92.179 119.834  0.00  0.00     0.149 HD
ENDBRANCH   6  13
BRANCH   5  18
ATOM     18  N   LIG d   1      -8.449  92.793 116.167  0.00  0.00     0.381 N 
ATOM     19  H   LIG d   1      -7.882  93.353 115.561  0.00  0.00    -0.090 HD
ATOM     20  H   LIG d   1      -8.976  93.407 116.762  0.00  0.00    -0.090 HD
ATOM     21  H   LIG d   1      -9.068  92.230 115.627  0.00  0.00    -0.090 HD
ENDBRANCH   5  18
BRANCH   3  22
ATOM     22  C   LIG d   1      -4.558  90.002 116.239  0.00  0.00     0.382 C 
ATOM     23  O   LIG d   1      -4.963  89.456 115.184  0.00  0.00    -0.241 OA
ATOM     24  O   LIG d   1      -3.434  89.708 116.689  0.00  0.00    -0.241 OA
ENDBRANCH   3  22
TORSDOF 7
ENDMDL
MODEL 6
REMARK VINA RESULT:      -4.8      1.892      4.802
REMARK  7 active torsions:
REMARK  status: ('A' for Active; 'I' for Inactive)
REMARK    1  A    between atoms: C_2  and  C_3 
REMARK    2  A    between atoms: C_3  and  O_6 
REMARK    3  A    between atoms: C_3  and  C_4 
REMARK    4  A    between atoms: C_7  and  O_6 
REMARK    5  A    between atoms: C_9  and  C_10 
REMARK    6  A    between atoms: N_15  and  C_14 
REMARK    7  A    between atoms: N_20  and  C_19 
REMARK       I    between atoms: C_22  and  N_20 
ROOT
ATOM      1  C   LIG d   1      -6.364  92.628 118.321  0.00  0.00     0.161 C 
ATOM      2  C   LIG d   1      -7.666  93.140 118.446  0.00  0.00     0.016 C 
ATOM      3  C   LIG d   1      -7.959  94.378 119.062  0.00  0.00     0.038 C 
ATOM      4  C   LIG d   1      -6.948  95.265 119.462  0.00  0.00     0.028 C 
ATOM      5  C   LIG d   1      -5.637  94.570 119.813  0.00  0.00    -0.047 C 
ATOM      6  C   LIG d   1      -5.240  93.631 118.652  0.00  0.00     0.091 C 
ENDROOT
BRANCH   1   7
ATOM      7  O   LIG d   1      -6.178  92.084 116.999  0.00  0.00    -0.368 OA
BRANCH   7   8
ATOM      8  C   LIG d   1      -6.219  90.640 116.891  0.00  0.00     0.119 C 
BRANCH   8   9
ATOM      9  C   LIG d   1      -5.033  90.207 116.009  0.00  0.00     0.028 C 
ATOM     10  C   LIG d   1      -3.744  89.995 116.821  0.00  0.00     0.006 C 
ENDBRANCH   8   9
BRANCH   8  11
ATOM     11  C   LIG d   1      -7.472  90.173 116.144  0.00  0.00     0.028 C 
ATOM     12  C   LIG d   1      -7.292  90.177 114.618  0.00  0.00     0.006 C 
ENDBRANCH   8  11
ENDBRANCH   7   8
ENDBRANCH   1   7
BRANCH   6  13
ATOM     13  N   LIG d   1      -4.012  92.849 118.950  0.00  0.00    -0.311 N 
ATOM     14  C   LIG d   1      -2.792  93.227 118.572  0.00  0.00     0.210 C 
ATOM     15  C   LIG d   1      -1.666  92.265 118.965  0.00  0.00     0.109 C 
ATOM     16  O   LIG d   1      -2.531  94.284 117.978  0.00  0.00    -0.276 OA
ATOM     17  H   LIG d   1      -4.128  91.993 119.456  0.00  0.00     0.149 HD
ENDBRANCH   6  13
BRANCH   5  18
ATOM     18  N   LIG d   1      -4.634  95.619 120.079  0.00  0.00     0.381 N 
ATOM     19  H   LIG d   1      -5.004  96.285 120.726  0.00  0.00    -0.090 HD
ATOM     20  H   LIG d   1      -4.427  96.095 119.219  0.00  0.00    -0.090 HD
ATOM     21  H   LIG d   1      -3.804  95.211 120.449  0.00  0.00    -0.090 HD
ENDBRANCH   5  18
BRANCH   3  22
ATOM     22  C   LIG d   1      -9.277  94.723 119.319  0.00  0.00     0.382 C 
ATOM     23  O   LIG d   1     -10.187  93.870 119.182  0.00  0.00    -0.241 OA
ATOM     24  O   LIG d   1      -9.574  95.889 119.643  0.00  0.00    -0.241 OA
ENDBRANCH   3  22
TORSDOF 7
ENDMDL
MODEL 7
REMARK VINA RESULT:      -4.7      2.541      6.052
REMARK  7 active torsions:
REMARK  status: ('A' for Active; 'I' for Inactive)
REMARK    1  A    between atoms: C_2  and  C_3 
REMARK    2  A    between atoms: C_3  and  O_6 
REMARK    3  A    between atoms: C_3  and  C_4 
REMARK    4  A    between atoms: C_7  and  O_6 
REMARK    5  A    between atoms: C_9  and  C_10 
REMARK    6  A    between atoms: N_15  and  C_14 
REMARK    7  A    between atoms: N_20  and  C_19 
REMARK       I    between atoms: C_22  and  N_20 
ROOT
ATOM      1  C   LIG d   1      -4.652  92.372 117.242  0.00  0.00     0.161 C 
ATOM      2  C   LIG d   1      -4.163  93.274 118.202  0.00  0.00     0.016 C 
ATOM      3  C   LIG d   1      -4.987  94.182 118.906  0.00  0.00     0.038 C 
ATOM      4  C   LIG d   1      -6.386  94.145 118.807  0.00  0.00     0.028 C 
ATOM      5  C   LIG d   1      -6.884  93.594 117.476  0.00  0.00    -0.047 C 
ATOM      6  C   LIG d   1      -6.189  92.241 117.201  0.00  0.00     0.091 C 
ENDROOT
BRANCH   1   7
ATOM      7  O   LIG d   1      -4.043  91.080 117.431  0.00  0.00    -0.368 OA
BRANCH   7   8
ATOM      8  C   LIG d   1      -3.080  90.980 118.509  0.00  0.00     0.119 C 
BRANCH   8   9
ATOM      9  C   LIG d   1      -1.759  90.470 117.904  0.00  0.00     0.028 C 
ATOM     10  C   LIG d   1      -0.656  91.542 117.914  0.00  0.00     0.006 C 
ENDBRANCH   8   9
BRANCH   8  11
ATOM     11  C   LIG d   1      -3.495  89.918 119.531  0.00  0.00     0.028 C 
ATOM     12  C   LIG d   1      -2.546  88.710 119.553  0.00  0.00     0.006 C 
ENDBRANCH   8  11
ENDBRANCH   7   8
ENDBRANCH   1   7
BRANCH   6  13
ATOM     13  N   LIG d   1      -6.557  91.673 115.878  0.00  0.00    -0.311 N 
ATOM     14  C   LIG d   1      -7.042  90.443 115.717  0.00  0.00     0.210 C 
ATOM     15  C   LIG d   1      -7.337  90.049 114.266  0.00  0.00     0.109 C 
ATOM     16  O   LIG d   1      -7.287  89.653 116.641  0.00  0.00    -0.276 OA
ATOM     17  H   LIG d   1      -6.420  92.257 115.076  0.00  0.00     0.149 HD
ENDBRANCH   6  13
BRANCH   5  18
ATOM     18  N   LIG d   1      -8.353  93.482 117.561  0.00  0.00     0.381 N 
ATOM     19  H   LIG d   1      -8.605  92.567 117.877  0.00  0.00    -0.090 HD
ATOM     20  H   LIG d   1      -8.743  93.619 116.645  0.00  0.00    -0.090 HD
ATOM     21  H   LIG d   1      -8.711  94.169 118.188  0.00  0.00    -0.090 HD
ENDBRANCH   5  18
BRANCH   3  22
ATOM     22  C   LIG d   1      -4.408  95.167 119.692  0.00  0.00     0.382 C 
ATOM     23  O   LIG d   1      -5.086  96.159 120.055  0.00  0.00    -0.241 OA
ATOM     24  O   LIG d   1      -3.204  95.100 120.005  0.00  0.00    -0.241 OA
ENDBRANCH   3  22
TORSDOF 7
ENDMDL
MODEL 8
REMARK VINA RESULT:      -4.7      2.185      5.789
REMARK  7 active torsions:
REMARK  status: ('A' for Active; 'I' for Inactive)
REMARK    1  A    between atoms: C_2  and  C_3 
REMARK    2  A    between atoms: C_3  and  O_6 
REMARK    3  A    between atoms: C_3  and  C_4 
REMARK    4  A    between atoms: C_7  and  O_6 
REMARK    5  A    between atoms: C_9  and  C_10 
REMARK    6  A    between atoms: N_15  and  C_14 
REMARK    7  A    between atoms: N_20  and  C_19 
REMARK       I    between atoms: C_22  and  N_20 
ROOT
ATOM      1  C   LIG d   1      -4.653  92.853 118.152  0.00  0.00     0.161 C 
ATOM      2  C   LIG d   1      -4.963  94.011 118.885  0.00  0.00     0.016 C 
ATOM      3  C   LIG d   1      -6.198  94.690 118.782  0.00  0.00     0.038 C 
ATOM      4  C   LIG d   1      -7.272  94.168 118.046  0.00  0.00     0.028 C 
ATOM      5  C   LIG d   1      -6.836  93.271 116.892  0.00  0.00    -0.047 C 
ATOM      6  C   LIG d   1      -5.852  92.207 117.428  0.00  0.00     0.091 C 
ENDROOT
BRANCH   1   7
ATOM      7  O   LIG d   1      -4.006  91.891 119.008  0.00  0.00    -0.368 OA
BRANCH   7   8
ATOM      8  C   LIG d   1      -2.668  91.492 118.621  0.00  0.00     0.119 C 
BRANCH   8   9
ATOM      9  C   LIG d   1      -2.511  89.999 118.971  0.00  0.00     0.028 C 
ATOM     10  C   LIG d   1      -2.574  89.095 117.728  0.00  0.00     0.006 C 
ENDBRANCH   8   9
BRANCH   8  11
ATOM     11  C   LIG d   1      -1.607  92.217 119.454  0.00  0.00     0.028 C 
ATOM     12  C   LIG d   1      -0.857  93.295 118.655  0.00  0.00     0.006 C 
ENDBRANCH   8  11
ENDBRANCH   7   8
ENDBRANCH   1   7
BRANCH   6  13
ATOM     13  N   LIG d   1      -5.311  91.340 116.348  0.00  0.00    -0.311 N 
ATOM     14  C   LIG d   1      -5.863  90.182 115.992  0.00  0.00     0.210 C 
ATOM     15  C   LIG d   1      -5.135  89.437 114.869  0.00  0.00     0.109 C 
ATOM     16  O   LIG d   1      -6.905  89.716 116.477  0.00  0.00    -0.276 OA
ATOM     17  H   LIG d   1      -4.485  91.658 115.879  0.00  0.00     0.149 HD
ENDBRANCH   6  13
BRANCH   5  18
ATOM     18  N   LIG d   1      -8.053  92.687 116.297  0.00  0.00     0.381 N 
ATOM     19  H   LIG d   1      -7.898  92.497 115.327  0.00  0.00    -0.090 HD
ATOM     20  H   LIG d   1      -8.803  93.351 116.373  0.00  0.00    -0.090 HD
ATOM     21  H   LIG d   1      -8.295  91.846 116.773  0.00  0.00    -0.090 HD
ENDBRANCH   5  18
BRANCH   3  22
ATOM     22  C   LIG d   1      -6.356  95.927 119.389  0.00  0.00     0.382 C 
ATOM     23  O   LIG d   1      -5.639  96.239 120.371  0.00  0.00    -0.241 OA
ATOM     24  O   LIG d   1      -7.235  96.716 118.996  0.00  0.00    -0.241 OA
ENDBRANCH   3  22
TORSDOF 7
ENDMDL
MODEL 9
REMARK VINA RESULT:      -4.6      2.069      5.499
REMARK  7 active torsions:
REMARK  status: ('A' for Active; 'I' for Inactive)
REMARK    1  A    between atoms: C_2  and  C_3 
REMARK    2  A    between atoms: C_3  and  O_6 
REMARK    3  A    between atoms: C_3  and  C_4 
REMARK    4  A    between atoms: C_7  and  O_6 
REMARK    5  A    between atoms: C_9  and  C_10 
REMARK    6  A    between atoms: N_15  and  C_14 
REMARK    7  A    between atoms: N_20  and  C_19 
REMARK       I    between atoms: C_22  and  N_20 
ROOT
ATOM      1  C   LIG d   1      -4.828  93.098 118.166  0.00  0.00     0.161 C 
ATOM      2  C   LIG d   1      -5.241  94.247 118.859  0.00  0.00     0.016 C 
ATOM      3  C   LIG d   1      -6.529  94.815 118.726  0.00  0.00     0.038 C 
ATOM      4  C   LIG d   1      -7.548  94.181 117.999  0.00  0.00     0.028 C 
ATOM      5  C   LIG d   1      -7.026  93.289 116.878  0.00  0.00    -0.047 C 
ATOM      6  C   LIG d   1      -5.961  92.329 117.455  0.00  0.00     0.091 C 
ENDROOT
BRANCH   1   7
ATOM      7  O   LIG d   1      -4.110  92.222 119.057  0.00  0.00    -0.368 OA
BRANCH   7   8
ATOM      8  C   LIG d   1      -2.671  92.186 118.894  0.00  0.00     0.119 C 
BRANCH   8   9
ATOM      9  C   LIG d   1      -2.283  93.344 117.954  0.00  0.00     0.028 C 
ATOM     10  C   LIG d   1      -1.316  94.339 118.618  0.00  0.00     0.006 C 
ENDBRANCH   8   9
BRANCH   8  11
ATOM     11  C   LIG d   1      -2.224  90.911 118.172  0.00  0.00     0.028 C 
ATOM     12  C   LIG d   1      -3.040  89.676 118.584  0.00  0.00     0.006 C 
ENDBRANCH   8  11
ENDBRANCH   7   8
ENDBRANCH   1   7
BRANCH   6  13
ATOM     13  N   LIG d   1      -5.338  91.478 116.407  0.00  0.00    -0.311 N 
ATOM     14  C   LIG d   1      -5.802  90.277 116.066  0.00  0.00     0.210 C 
ATOM     15  C   LIG d   1      -5.000  89.559 114.977  0.00  0.00     0.109 C 
ATOM     16  O   LIG d   1      -6.822  89.753 116.539  0.00  0.00    -0.276 OA
ATOM     17  H   LIG d   1      -4.524  91.840 115.950  0.00  0.00     0.149 HD
ENDBRANCH   6  13
BRANCH   5  18
ATOM     18  N   LIG d   1      -8.183  92.584 116.294  0.00  0.00     0.381 N 
ATOM     19  H   LIG d   1      -8.921  92.529 116.967  0.00  0.00    -0.090 HD
ATOM     20  H   LIG d   1      -7.906  91.649 116.052  0.00  0.00    -0.090 HD
ATOM     21  H   LIG d   1      -8.501  93.065 115.481  0.00  0.00    -0.090 HD
ENDBRANCH   5  18
BRANCH   3  22
ATOM     22  C   LIG d   1      -6.797  96.053 119.291  0.00  0.00     0.382 C 
ATOM     23  O   LIG d   1      -6.333  97.095 118.768  0.00  0.00    -0.241 OA
ATOM     24  O   LIG d   1      -7.459  96.137 120.343  0.00  0.00    -0.241 OA
ENDBRANCH   3  22
TORSDOF 7
ENDMDL
