MODEL 1
REMARK VINA RESULT:      -5.9      0.000      0.000
REMARK  7 active torsions:
REMARK  status: ('A' for Active; 'I' for Inactive)
REMARK    1  A    between atoms: C_2  and  C_3 
REMARK    2  A    between atoms: C_3  and  O_6 
REMARK    3  A    between atoms: C_3  and  C_4 
REMARK    4  A    between atoms: C_7  and  O_6 
REMARK    5  A    between atoms: C_9  and  C_10 
REMARK    6  A    between atoms: N_15  and  C_14 
REMARK    7  A    between atoms: N_20  and  C_19 
REMARK       I    between atoms: C_22  and  N_20 
ROOT
ATOM      1  C   LIG d   1      -4.472  90.606 117.332  0.00  0.00     0.161 C 
ATOM      2  C   LIG d   1      -5.099  90.014 116.223  0.00  0.00     0.016 C 
ATOM      3  C   LIG d   1      -6.241  90.559 115.592  0.00  0.00     0.038 C 
ATOM      4  C   LIG d   1      -6.747  91.821 115.936  0.00  0.00     0.028 C 
ATOM      5  C   LIG d   1      -6.454  92.218 117.379  0.00  0.00    -0.047 C 
ATOM      6  C   LIG d   1      -4.943  92.041 117.652  0.00  0.00     0.091 C 
ENDROOT
BRANCH   1   7
ATOM      7  O   LIG d   1      -3.042  90.576 117.159  0.00  0.00    -0.368 OA
BRANCH   7   8
ATOM      8  C   LIG d   1      -2.363  89.401 117.668  0.00  0.00     0.119 C 
BRANCH   8   9
ATOM      9  C   LIG d   1      -2.915  89.123 119.080  0.00  0.00     0.028 C 
ATOM     10  C   LIG d   1      -1.974  89.626 120.188  0.00  0.00     0.006 C 
ENDBRANCH   8   9
BRANCH   8  11
ATOM     11  C   LIG d   1      -0.866  89.663 117.863  0.00  0.00     0.028 C 
ATOM     12  C   LIG d   1      -0.022  89.215 116.659  0.00  0.00     0.006 C 
ENDBRANCH   8  11
ENDBRANCH   7   8
ENDBRANCH   1   7
BRANCH   6  13
ATOM     13  N   LIG d   1      -4.585  92.327 119.065  0.00  0.00    -0.311 N 
ATOM     14  C   LIG d   1      -3.640  93.197 119.420  0.00  0.00     0.210 C 
ATOM     15  C   LIG d   1      -3.416  93.327 120.930  0.00  0.00     0.109 C 
ATOM     16  O   LIG d   1      -2.990  93.896 118.629  0.00  0.00    -0.276 OA
ATOM     17  H   LIG d   1      -5.085  91.827 119.773  0.00  0.00     0.149 HD
ENDBRANCH   6  13
BRANCH   5  18
ATOM     18  N   LIG d   1      -6.915  93.608 117.561  0.00  0.00     0.381 N 
ATOM     19  H   LIG d   1      -7.816  93.611 117.997  0.00  0.00    -0.090 HD
ATOM     20  H   LIG d   1      -7.000  94.043 116.659  0.00  0.00    -0.090 HD
ATOM     21  H   LIG d   1      -6.264  94.112 118.122  0.00  0.00    -0.090 HD
ENDBRANCH   5  18
BRANCH   3  22
ATOM     22  C   LIG d   1      -6.913  89.819 114.631  0.00  0.00     0.382 C 
ATOM     23  O   LIG d   1      -6.271  89.246 113.718  0.00  0.00    -0.241 OA
ATOM     24  O   LIG d   1      -8.157  89.755 114.638  0.00  0.00    -0.241 OA
ENDBRANCH   3  22
TORSDOF 7
ENDMDL
MODEL 2
REMARK VINA RESULT:      -5.6      2.618      5.116
REMARK  7 active torsions:
REMARK  status: ('A' for Active; 'I' for Inactive)
REMARK    1  A    between atoms: C_2  and  C_3 
REMARK    2  A    between atoms: C_3  and  O_6 
REMARK    3  A    between atoms: C_3  and  C_4 
REMARK    4  A    between atoms: C_7  and  O_6 
REMARK    5  A    between atoms: C_9  and  C_10 
REMARK    6  A    between atoms: N_15  and  C_14 
REMARK    7  A    between atoms: N_20  and  C_19 
REMARK       I    between atoms: C_22  and  N_20 
ROOT
ATOM      1  C   LIG d   1      -6.439  92.633 117.992  0.00  0.00     0.161 C 
ATOM      2  C   LIG d   1      -6.915  91.537 117.253  0.00  0.00     0.016 C 
ATOM      3  C   LIG d   1      -6.072  90.546 116.701  0.00  0.00     0.038 C 
ATOM      4  C   LIG d   1      -4.699  90.501 116.980  0.00  0.00     0.028 C 
ATOM      5  C   LIG d   1      -4.101  91.866 117.303  0.00  0.00    -0.047 C 
ATOM      6  C   LIG d   1      -4.955  92.540 118.402  0.00  0.00     0.091 C 
ENDROOT
BRANCH   1   7
ATOM      7  O   LIG d   1      -7.268  92.835 119.154  0.00  0.00    -0.368 OA
BRANCH   7   8
ATOM      8  C   LIG d   1      -8.402  93.720 118.982  0.00  0.00     0.119 C 
BRANCH   8   9
ATOM      9  C   LIG d   1      -7.924  94.929 118.153  0.00  0.00     0.028 C 
ATOM     10  C   LIG d   1      -7.451  96.096 119.036  0.00  0.00     0.006 C 
ENDBRANCH   8   9
BRANCH   8  11
ATOM     11  C   LIG d   1      -8.862  94.304 120.321  0.00  0.00     0.028 C 
ATOM     12  C   LIG d   1     -10.174  93.680 120.824  0.00  0.00     0.006 C 
ENDBRANCH   8  11
ENDBRANCH   7   8
ENDBRANCH   1   7
BRANCH   6  13
ATOM     13  N   LIG d   1      -4.488  93.915 118.718  0.00  0.00    -0.311 N 
ATOM     14  C   LIG d   1      -4.114  94.301 119.937  0.00  0.00     0.210 C 
ATOM     15  C   LIG d   1      -3.688  95.768 120.048  0.00  0.00     0.109 C 
ATOM     16  O   LIG d   1      -4.065  93.559 120.929  0.00  0.00    -0.276 OA
ATOM     17  H   LIG d   1      -4.467  94.574 117.964  0.00  0.00     0.149 HD
ENDBRANCH   6  13
BRANCH   5  18
ATOM     18  N   LIG d   1      -2.699  91.654 117.709  0.00  0.00     0.381 N 
ATOM     19  H   LIG d   1      -2.120  92.368 117.313  0.00  0.00    -0.090 HD
ATOM     20  H   LIG d   1      -2.389  90.766 117.357  0.00  0.00    -0.090 HD
ATOM     21  H   LIG d   1      -2.625  91.670 118.702  0.00  0.00    -0.090 HD
ENDBRANCH   5  18
BRANCH   3  22
ATOM     22  C   LIG d   1      -6.597  89.607 115.825  0.00  0.00     0.382 C 
ATOM     23  O   LIG d   1      -6.084  89.452 114.691  0.00  0.00    -0.241 OA
ATOM     24  O   LIG d   1      -7.605  88.945 116.138  0.00  0.00    -0.241 OA
ENDBRANCH   3  22
TORSDOF 7
ENDMDL
MODEL 3
REMARK VINA RESULT:      -5.6      1.582      4.932
REMARK  7 active torsions:
REMARK  status: ('A' for Active; 'I' for Inactive)
REMARK    1  A    between atoms: C_2  and  C_3 
REMARK    2  A    between atoms: C_3  and  O_6 
REMARK    3  A    between atoms: C_3  and  C_4 
REMARK    4  A    between atoms: C_7  and  O_6 
REMARK    5  A    between atoms: C_9  and  C_10 
REMARK    6  A    between atoms: N_15  and  C_14 
REMARK    7  A    between atoms: N_20  and  C_19 
REMARK       I    between atoms: C_22  and  N_20 
ROOT
ATOM      1  C   LIG d   1      -4.365  91.702 117.266  0.00  0.00     0.161 C 
ATOM      2  C   LIG d   1      -3.835  92.411 118.357  0.00  0.00     0.016 C 
ATOM      3  C   LIG d   1      -4.630  93.131 119.278  0.00  0.00     0.038 C 
ATOM      4  C   LIG d   1      -6.032  93.065 119.257  0.00  0.00     0.028 C 
ATOM      5  C   LIG d   1      -6.604  92.773 117.874  0.00  0.00    -0.047 C 
ATOM      6  C   LIG d   1      -5.898  91.527 117.292  0.00  0.00     0.091 C 
ENDROOT
BRANCH   1   7
ATOM      7  O   LIG d   1      -3.717  90.419 117.155  0.00  0.00    -0.368 OA
BRANCH   7   8
ATOM      8  C   LIG d   1      -2.582  90.201 118.030  0.00  0.00     0.119 C 
BRANCH   8   9
ATOM      9  C   LIG d   1      -1.453  89.587 117.179  0.00  0.00     0.028 C 
ATOM     10  C   LIG d   1      -0.181  90.452 117.181  0.00  0.00     0.006 C 
ENDBRANCH   8   9
BRANCH   8  11
ATOM     11  C   LIG d   1      -2.898  89.153 119.101  0.00  0.00     0.028 C 
ATOM     12  C   LIG d   1      -2.331  89.522 120.481  0.00  0.00     0.006 C 
ENDBRANCH   8  11
ENDBRANCH   7   8
ENDBRANCH   1   7
BRANCH   6  13
ATOM     13  N   LIG d   1      -6.339  91.222 115.906  0.00  0.00    -0.311 N 
ATOM     14  C   LIG d   1      -6.976  90.101 115.570  0.00  0.00     0.210 C 
ATOM     15  C   LIG d   1      -7.324  89.977 114.083  0.00  0.00     0.109 C 
ATOM     16  O   LIG d   1      -7.315  89.214 116.367  0.00  0.00    -0.276 OA
ATOM     17  H   LIG d   1      -6.133  91.902 115.201  0.00  0.00     0.149 HD
ENDBRANCH   6  13
BRANCH   5  18
ATOM     18  N   LIG d   1      -8.061  92.596 118.023  0.00  0.00     0.381 N 
ATOM     19  H   LIG d   1      -8.530  92.948 117.213  0.00  0.00    -0.090 HD
ATOM     20  H   LIG d   1      -8.372  93.121 118.821  0.00  0.00    -0.090 HD
ATOM     21  H   LIG d   1      -8.276  91.631 118.147  0.00  0.00    -0.090 HD
ENDBRANCH   5  18
BRANCH   3  22
ATOM     22  C   LIG d   1      -4.024  93.960 120.209  0.00  0.00     0.382 C 
ATOM     23  O   LIG d   1      -4.371  95.162 120.299  0.00  0.00    -0.241 OA
ATOM     24  O   LIG d   1      -3.102  93.532 120.930  0.00  0.00    -0.241 OA
ENDBRANCH   3  22
TORSDOF 7
ENDMDL
MODEL 4
REMARK VINA RESULT:      -5.5      2.303      4.498
REMARK  7 active torsions:
REMARK  status: ('A' for Active; 'I' for Inactive)
REMARK    1  A    between atoms: C_2  and  C_3 
REMARK    2  A    between atoms: C_3  and  O_6 
REMARK    3  A    between atoms: C_3  and  C_4 
REMARK    4  A    between atoms: C_7  and  O_6 
REMARK    5  A    between atoms: C_9  and  C_10 
REMARK    6  A    between atoms: N_15  and  C_14 
REMARK    7  A    between atoms: N_20  and  C_19 
REMARK       I    between atoms: C_22  and  N_20 
ROOT
ATOM      1  C   LIG d   1      -5.669  92.020 117.968  0.00  0.00     0.161 C 
ATOM      2  C   LIG d   1      -6.447  91.966 116.799  0.00  0.00     0.016 C 
ATOM      3  C   LIG d   1      -6.196  91.066 115.738  0.00  0.00     0.038 C 
ATOM      4  C   LIG d   1      -5.235  90.049 115.840  0.00  0.00     0.028 C 
ATOM      5  C   LIG d   1      -4.093  90.389 116.792  0.00  0.00    -0.047 C 
ATOM      6  C   LIG d   1      -4.685  90.845 118.145  0.00  0.00     0.091 C 
ENDROOT
BRANCH   1   7
ATOM      7  O   LIG d   1      -6.526  92.134 119.121  0.00  0.00    -0.368 OA
BRANCH   7   8
ATOM      8  C   LIG d   1      -7.132  93.432 119.339  0.00  0.00     0.119 C 
BRANCH   8   9
ATOM      9  C   LIG d   1      -5.996  94.427 119.648  0.00  0.00     0.028 C 
ATOM     10  C   LIG d   1      -5.228  94.061 120.930  0.00  0.00     0.006 C 
ENDBRANCH   8   9
BRANCH   8  11
ATOM     11  C   LIG d   1      -8.020  93.430 120.587  0.00  0.00     0.028 C 
ATOM     12  C   LIG d   1      -9.515  93.554 120.254  0.00  0.00     0.006 C 
ENDBRANCH   8  11
ENDBRANCH   7   8
ENDBRANCH   1   7
BRANCH   6  13
ATOM     13  N   LIG d   1      -3.637  91.276 119.106  0.00  0.00    -0.311 N 
ATOM     14  C   LIG d   1      -2.802  92.287 118.875  0.00  0.00     0.210 C 
ATOM     15  C   LIG d   1      -1.784  92.552 119.989  0.00  0.00     0.109 C 
ATOM     16  O   LIG d   1      -2.827  93.009 117.867  0.00  0.00    -0.276 OA
ATOM     17  H   LIG d   1      -3.567  90.764 119.964  0.00  0.00     0.149 HD
ENDBRANCH   6  13
BRANCH   5  18
ATOM     18  N   LIG d   1      -3.239  89.191 116.909  0.00  0.00     0.381 N 
ATOM     19  H   LIG d   1      -2.535  89.344 117.603  0.00  0.00    -0.090 HD
ATOM     20  H   LIG d   1      -2.784  89.030 116.028  0.00  0.00    -0.090 HD
ATOM     21  H   LIG d   1      -3.793  88.400 117.154  0.00  0.00    -0.090 HD
ENDBRANCH   5  18
BRANCH   3  22
ATOM     22  C   LIG d   1      -6.885  91.204 114.543  0.00  0.00     0.382 C 
ATOM     23  O   LIG d   1      -6.690  92.211 113.820  0.00  0.00    -0.241 OA
ATOM     24  O   LIG d   1      -7.731  90.357 114.199  0.00  0.00    -0.241 OA
ENDBRANCH   3  22
TORSDOF 7
ENDMDL
MODEL 5
REMARK VINA RESULT:      -5.2      2.510      5.113
REMARK  7 active torsions:
REMARK  status: ('A' for Active; 'I' for Inactive)
REMARK    1  A    between atoms: C_2  and  C_3 
REMARK    2  A    between atoms: C_3  and  O_6 
REMARK    3  A    between atoms: C_3  and  C_4 
REMARK    4  A    between atoms: C_7  and  O_6 
REMARK    5  A    between atoms: C_9  and  C_10 
REMARK    6  A    between atoms: N_15  and  C_14 
REMARK    7  A    between atoms: N_20  and  C_19 
REMARK       I    between atoms: C_22  and  N_20 
ROOT
ATOM      1  C   LIG d   1      -6.016  91.772 117.570  0.00  0.00     0.161 C 
ATOM      2  C   LIG d   1      -7.037  92.723 117.726  0.00  0.00     0.016 C 
ATOM      3  C   LIG d   1      -6.976  93.785 118.657  0.00  0.00     0.038 C 
ATOM      4  C   LIG d   1      -5.815  94.058 119.395  0.00  0.00     0.028 C 
ATOM      5  C   LIG d   1      -4.948  92.827 119.638  0.00  0.00    -0.047 C 
ATOM      6  C   LIG d   1      -4.694  92.118 118.288  0.00  0.00     0.091 C 
ENDROOT
BRANCH   1   7
ATOM      7  O   LIG d   1      -5.777  91.536 116.168  0.00  0.00    -0.368 OA
BRANCH   7   8
ATOM      8  C   LIG d   1      -6.054  90.196 115.691  0.00  0.00     0.119 C 
BRANCH   8   9
ATOM      9  C   LIG d   1      -6.637  90.322 114.270  0.00  0.00     0.028 C 
ATOM     10  C   LIG d   1      -6.933  91.781 113.884  0.00  0.00     0.006 C 
ENDBRANCH   8   9
BRANCH   8  11
ATOM     11  C   LIG d   1      -7.151  89.524 116.522  0.00  0.00     0.028 C 
ATOM     12  C   LIG d   1      -8.217  88.835 115.655  0.00  0.00     0.006 C 
ENDBRANCH   8  11
ENDBRANCH   7   8
ENDBRANCH   1   7
BRANCH   6  13
ATOM     13  N   LIG d   1      -3.924  90.857 118.446  0.00  0.00    -0.311 N 
ATOM     14  C   LIG d   1      -2.597  90.793 118.359  0.00  0.00     0.210 C 
ATOM     15  C   LIG d   1      -2.005  89.391 118.534  0.00  0.00     0.109 C 
ATOM     16  O   LIG d   1      -1.851  91.769 118.187  0.00  0.00    -0.276 OA
ATOM     17  H   LIG d   1      -4.448  90.021 118.620  0.00  0.00     0.149 HD
ENDBRANCH   6  13
BRANCH   5  18
ATOM     18  N   LIG d   1      -3.708  93.278 120.296  0.00  0.00     0.381 N 
ATOM     19  H   LIG d   1      -3.830  93.273 121.289  0.00  0.00    -0.090 HD
ATOM     20  H   LIG d   1      -3.511  94.220 120.008  0.00  0.00    -0.090 HD
ATOM     21  H   LIG d   1      -2.951  92.681 120.044  0.00  0.00    -0.090 HD
ENDBRANCH   5  18
BRANCH   3  22
ATOM     22  C   LIG d   1      -8.101  94.564 118.886  0.00  0.00     0.382 C 
ATOM     23  O   LIG d   1      -9.189  94.019 119.192  0.00  0.00    -0.241 OA
ATOM     24  O   LIG d   1      -8.051  95.801 118.747  0.00  0.00    -0.241 OA
ENDBRANCH   3  22
TORSDOF 7
ENDMDL
MODEL 6
REMARK VINA RESULT:      -4.9      3.782      6.238
REMARK  7 active torsions:
REMARK  status: ('A' for Active; 'I' for Inactive)
REMARK    1  A    between atoms: C_2  and  C_3 
REMARK    2  A    between atoms: C_3  and  O_6 
REMARK    3  A    between atoms: C_3  and  C_4 
REMARK    4  A    between atoms: C_7  and  O_6 
REMARK    5  A    between atoms: C_9  and  C_10 
REMARK    6  A    between atoms: N_15  and  C_14 
REMARK    7  A    between atoms: N_20  and  C_19 
REMARK       I    between atoms: C_22  and  N_20 
ROOT
ATOM      1  C   LIG d   1       0.679  89.426 116.818  0.00  0.00     0.161 C 
ATOM      2  C   LIG d   1      -0.703  89.174 116.831  0.00  0.00     0.016 C 
ATOM      3  C   LIG d   1      -1.642  90.016 117.471  0.00  0.00     0.038 C 
ATOM      4  C   LIG d   1      -1.275  91.255 118.018  0.00  0.00     0.028 C 
ATOM      5  C   LIG d   1       0.180  91.310 118.471  0.00  0.00    -0.047 C 
ATOM      6  C   LIG d   1       1.085  90.830 117.313  0.00  0.00     0.091 C 
ENDROOT
BRANCH   1   7
ATOM      7  O   LIG d   1       1.207  89.188 115.499  0.00  0.00    -0.368 OA
BRANCH   7   8
ATOM      8  C   LIG d   1       2.209  88.147 115.391  0.00  0.00     0.119 C 
BRANCH   8   9
ATOM      9  C   LIG d   1       3.087  88.474 114.168  0.00  0.00     0.028 C 
ATOM     10  C   LIG d   1       4.091  89.605 114.452  0.00  0.00     0.006 C 
ENDBRANCH   8   9
BRANCH   8  11
ATOM     11  C   LIG d   1       1.571  86.790 115.080  0.00  0.00     0.028 C 
ATOM     12  C   LIG d   1       2.086  85.666 115.994  0.00  0.00     0.006 C 
ENDBRANCH   8  11
ENDBRANCH   7   8
ENDBRANCH   1   7
BRANCH   6  13
ATOM     13  N   LIG d   1       2.519  90.773 117.701  0.00  0.00    -0.311 N 
ATOM     14  C   LIG d   1       3.364  91.789 117.533  0.00  0.00     0.210 C 
ATOM     15  C   LIG d   1       4.803  91.513 117.982  0.00  0.00     0.109 C 
ATOM     16  O   LIG d   1       3.052  92.902 117.085  0.00  0.00    -0.276 OA
ATOM     17  H   LIG d   1       2.849  89.917 118.101  0.00  0.00     0.149 HD
ENDBRANCH   6  13
BRANCH   5  18
ATOM     18  N   LIG d   1       0.464  92.696 118.890  0.00  0.00     0.381 N 
ATOM     19  H   LIG d   1       1.046  93.143 118.211  0.00  0.00    -0.090 HD
ATOM     20  H   LIG d   1       0.958  92.676 119.765  0.00  0.00    -0.090 HD
ATOM     21  H   LIG d   1      -0.388  93.202 118.993  0.00  0.00    -0.090 HD
ENDBRANCH   5  18
BRANCH   3  22
ATOM     22  C   LIG d   1      -2.958  89.601 117.605  0.00  0.00     0.382 C 
ATOM     23  O   LIG d   1      -3.824  89.987 116.783  0.00  0.00    -0.241 OA
ATOM     24  O   LIG d   1      -3.299  88.881 118.563  0.00  0.00    -0.241 OA
ENDBRANCH   3  22
TORSDOF 7
ENDMDL
MODEL 7
REMARK VINA RESULT:      -4.7      4.281      7.059
REMARK  7 active torsions:
REMARK  status: ('A' for Active; 'I' for Inactive)
REMARK    1  A    between atoms: C_2  and  C_3 
REMARK    2  A    between atoms: C_3  and  O_6 
REMARK    3  A    between atoms: C_3  and  C_4 
REMARK    4  A    between atoms: C_7  and  O_6 
REMARK    5  A    between atoms: C_9  and  C_10 
REMARK    6  A    between atoms: N_15  and  C_14 
REMARK    7  A    between atoms: N_20  and  C_19 
REMARK       I    between atoms: C_22  and  N_20 
ROOT
ATOM      1  C   LIG d   1       1.060  88.792 116.493  0.00  0.00     0.161 C 
ATOM      2  C   LIG d   1      -0.314  88.840 116.780  0.00  0.00     0.016 C 
ATOM      3  C   LIG d   1      -0.964  89.991 117.282  0.00  0.00     0.038 C 
ATOM      4  C   LIG d   1      -0.308  91.226 117.389  0.00  0.00     0.028 C 
ATOM      5  C   LIG d   1       1.198  91.097 117.589  0.00  0.00    -0.047 C 
ATOM      6  C   LIG d   1       1.770  90.162 116.498  0.00  0.00     0.091 C 
ENDROOT
BRANCH   1   7
ATOM      7  O   LIG d   1       1.274  88.122 115.235  0.00  0.00    -0.368 OA
BRANCH   7   8
ATOM      8  C   LIG d   1       1.532  86.698 115.307  0.00  0.00     0.119 C 
BRANCH   8   9
ATOM      9  C   LIG d   1       3.061  86.504 115.297  0.00  0.00     0.028 C 
ATOM     10  C   LIG d   1       3.616  86.142 116.686  0.00  0.00     0.006 C 
ENDBRANCH   8   9
BRANCH   8  11
ATOM     11  C   LIG d   1       1.024  85.975 114.056  0.00  0.00     0.028 C 
ATOM     12  C   LIG d   1      -0.404  85.430 114.222  0.00  0.00     0.006 C 
ENDBRANCH   8  11
ENDBRANCH   7   8
ENDBRANCH   1   7
BRANCH   6  13
ATOM     13  N   LIG d   1       3.226  89.914 116.671  0.00  0.00    -0.311 N 
ATOM     14  C   LIG d   1       4.101  89.961 115.669  0.00  0.00     0.210 C 
ATOM     15  C   LIG d   1       5.550  89.654 116.061  0.00  0.00     0.109 C 
ATOM     16  O   LIG d   1       3.821  90.260 114.498  0.00  0.00    -0.276 OA
ATOM     17  H   LIG d   1       3.544  89.695 117.594  0.00  0.00     0.149 HD
ENDBRANCH   6  13
BRANCH   5  18
ATOM     18  N   LIG d   1       1.772  92.455 117.545  0.00  0.00     0.381 N 
ATOM     19  H   LIG d   1       2.196  92.672 118.425  0.00  0.00    -0.090 HD
ATOM     20  H   LIG d   1       1.033  93.115 117.380  0.00  0.00    -0.090 HD
ATOM     21  H   LIG d   1       2.450  92.515 116.818  0.00  0.00    -0.090 HD
ENDBRANCH   5  18
BRANCH   3  22
ATOM     22  C   LIG d   1      -2.277  89.902 117.721  0.00  0.00     0.382 C 
ATOM     23  O   LIG d   1      -2.679  90.646 118.647  0.00  0.00    -0.241 OA
ATOM     24  O   LIG d   1      -3.050  89.057 117.233  0.00  0.00    -0.241 OA
ENDBRANCH   3  22
TORSDOF 7
ENDMDL
MODEL 8
REMARK VINA RESULT:      -4.6      3.864      6.235
REMARK  7 active torsions:
REMARK  status: ('A' for Active; 'I' for Inactive)
REMARK    1  A    between atoms: C_2  and  C_3 
REMARK    2  A    between atoms: C_3  and  O_6 
REMARK    3  A    between atoms: C_3  and  C_4 
REMARK    4  A    between atoms: C_7  and  O_6 
REMARK    5  A    between atoms: C_9  and  C_10 
REMARK    6  A    between atoms: N_15  and  C_14 
REMARK    7  A    between atoms: N_20  and  C_19 
REMARK       I    between atoms: C_22  and  N_20 
ROOT
ATOM      1  C   LIG d   1       0.805  89.291 116.802  0.00  0.00     0.161 C 
ATOM      2  C   LIG d   1      -0.587  89.097 116.798  0.00  0.00     0.016 C 
ATOM      3  C   LIG d   1      -1.495  89.962 117.449  0.00  0.00     0.038 C 
ATOM      4  C   LIG d   1      -1.083  91.173 118.026  0.00  0.00     0.028 C 
ATOM      5  C   LIG d   1       0.369  91.158 118.492  0.00  0.00    -0.047 C 
ATOM      6  C   LIG d   1       1.264  90.666 117.331  0.00  0.00     0.091 C 
ENDROOT
BRANCH   1   7
ATOM      7  O   LIG d   1       1.334  89.060 115.482  0.00  0.00    -0.368 OA
BRANCH   7   8
ATOM      8  C   LIG d   1       2.210  87.915 115.338  0.00  0.00     0.119 C 
BRANCH   8   9
ATOM      9  C   LIG d   1       2.116  87.094 116.639  0.00  0.00     0.028 C 
ATOM     10  C   LIG d   1       3.494  86.841 117.273  0.00  0.00     0.006 C 
ENDBRANCH   8   9
BRANCH   8  11
ATOM     11  C   LIG d   1       3.676  88.344 115.234  0.00  0.00     0.028 C 
ATOM     12  C   LIG d   1       3.883  89.531 114.280  0.00  0.00     0.006 C 
ENDBRANCH   8  11
ENDBRANCH   7   8
ENDBRANCH   1   7
BRANCH   6  13
ATOM     13  N   LIG d   1       2.690  90.542 117.729  0.00  0.00    -0.311 N 
ATOM     14  C   LIG d   1       3.595  91.497 117.523  0.00  0.00     0.210 C 
ATOM     15  C   LIG d   1       5.013  91.157 117.991  0.00  0.00     0.109 C 
ATOM     16  O   LIG d   1       3.351  92.607 117.026  0.00  0.00    -0.276 OA
ATOM     17  H   LIG d   1       2.969  89.685 118.167  0.00  0.00     0.149 HD
ENDBRANCH   6  13
BRANCH   5  18
ATOM     18  N   LIG d   1       0.706  92.521 118.944  0.00  0.00     0.381 N 
ATOM     19  H   LIG d   1       0.725  92.552 119.943  0.00  0.00    -0.090 HD
ATOM     20  H   LIG d   1      -0.004  93.155 118.622  0.00  0.00    -0.090 HD
ATOM     21  H   LIG d   1       1.593  92.792 118.579  0.00  0.00    -0.090 HD
ENDBRANCH   5  18
BRANCH   3  22
ATOM     22  C   LIG d   1      -2.829  89.599 117.563  0.00  0.00     0.382 C 
ATOM     23  O   LIG d   1      -3.677  90.071 116.768  0.00  0.00    -0.241 OA
ATOM     24  O   LIG d   1      -3.201  88.841 118.479  0.00  0.00    -0.241 OA
ENDBRANCH   3  22
TORSDOF 7
ENDMDL
MODEL 9
REMARK VINA RESULT:      -4.3      3.791      5.653
REMARK  7 active torsions:
REMARK  status: ('A' for Active; 'I' for Inactive)
REMARK    1  A    between atoms: C_2  and  C_3 
REMARK    2  A    between atoms: C_3  and  O_6 
REMARK    3  A    between atoms: C_3  and  C_4 
REMARK    4  A    between atoms: C_7  and  O_6 
REMARK    5  A    between atoms: C_9  and  C_10 
REMARK    6  A    between atoms: N_15  and  C_14 
REMARK    7  A    between atoms: N_20  and  C_19 
REMARK       I    between atoms: C_22  and  N_20 
ROOT
ATOM      1  C   LIG d   1       0.770  90.207 118.728  0.00  0.00     0.161 C 
ATOM      2  C   LIG d   1      -0.429  89.502 118.532  0.00  0.00     0.016 C 
ATOM      3  C   LIG d   1      -1.645  90.121 118.161  0.00  0.00     0.038 C 
ATOM      4  C   LIG d   1      -1.709  91.478 117.812  0.00  0.00     0.028 C 
ATOM      5  C   LIG d   1      -0.634  92.328 118.482  0.00  0.00    -0.047 C 
ATOM      6  C   LIG d   1       0.745  91.672 118.244  0.00  0.00     0.091 C 
ENDROOT
BRANCH   1   7
ATOM      7  O   LIG d   1       1.862  89.494 118.114  0.00  0.00    -0.368 OA
BRANCH   7   8
ATOM      8  C   LIG d   1       1.536  88.724 116.931  0.00  0.00     0.119 C 
BRANCH   8   9
ATOM      9  C   LIG d   1       2.311  87.395 117.015  0.00  0.00     0.028 C 
ATOM     10  C   LIG d   1       2.862  87.125 118.426  0.00  0.00     0.006 C 
ENDBRANCH   8   9
BRANCH   8  11
ATOM     11  C   LIG d   1       2.045  89.411 115.661  0.00  0.00     0.028 C 
ATOM     12  C   LIG d   1       2.745  88.439 114.698  0.00  0.00     0.006 C 
ENDBRANCH   8  11
ENDBRANCH   7   8
ENDBRANCH   1   7
BRANCH   6  13
ATOM     13  N   LIG d   1       1.844  92.393 118.938  0.00  0.00    -0.311 N 
ATOM     14  C   LIG d   1       2.957  92.795 118.328  0.00  0.00     0.210 C 
ATOM     15  C   LIG d   1       3.971  93.503 119.232  0.00  0.00     0.109 C 
ATOM     16  O   LIG d   1       3.188  92.660 117.117  0.00  0.00    -0.276 OA
ATOM     17  H   LIG d   1       1.725  92.572 119.916  0.00  0.00     0.149 HD
ENDBRANCH   6  13
BRANCH   5  18
ATOM     18  N   LIG d   1      -0.730  93.690 117.925  0.00  0.00     0.381 N 
ATOM     19  H   LIG d   1      -0.796  93.644 116.928  0.00  0.00    -0.090 HD
ATOM     20  H   LIG d   1       0.103  94.198 118.163  0.00  0.00    -0.090 HD
ATOM     21  H   LIG d   1      -1.529  94.155 118.296  0.00  0.00    -0.090 HD
ENDBRANCH   5  18
BRANCH   3  22
ATOM     22  C   LIG d   1      -2.822  89.389 118.175  0.00  0.00     0.382 C 
ATOM     23  O   LIG d   1      -3.245  88.903 119.252  0.00  0.00    -0.241 OA
ATOM     24  O   LIG d   1      -3.443  89.170 117.118  0.00  0.00    -0.241 OA
ENDBRANCH   3  22
TORSDOF 7
ENDMDL
