MODEL 1
REMARK VINA RESULT:      -5.2      0.000      0.000
REMARK  7 active torsions:
REMARK  status: ('A' for Active; 'I' for Inactive)
REMARK    1  A    between atoms: C_2  and  C_3 
REMARK    2  A    between atoms: C_3  and  O_6 
REMARK    3  A    between atoms: C_3  and  C_4 
REMARK    4  A    between atoms: C_7  and  O_6 
REMARK    5  A    between atoms: C_9  and  C_10 
REMARK    6  A    between atoms: N_15  and  C_14 
REMARK    7  A    between atoms: N_20  and  C_19 
REMARK       I    between atoms: C_22  and  N_20 
ROOT
ATOM      1  C   LIG d   1      -6.045  91.880 117.862  0.00  0.00     0.161 C 
ATOM      2  C   LIG d   1      -7.005  91.392 116.960  0.00  0.00     0.016 C 
ATOM      3  C   LIG d   1      -6.718  90.436 115.959  0.00  0.00     0.038 C 
ATOM      4  C   LIG d   1      -5.477  89.786 115.889  0.00  0.00     0.028 C 
ATOM      5  C   LIG d   1      -4.328  90.612 116.458  0.00  0.00    -0.047 C 
ATOM      6  C   LIG d   1      -4.713  91.100 117.873  0.00  0.00     0.091 C 
ENDROOT
BRANCH   1   7
ATOM      7  O   LIG d   1      -6.604  91.934 119.190  0.00  0.00    -0.368 OA
BRANCH   7   8
ATOM      8  C   LIG d   1      -7.084  93.229 119.627  0.00  0.00     0.119 C 
BRANCH   8   9
ATOM      9  C   LIG d   1      -6.074  93.773 120.656  0.00  0.00     0.028 C 
ATOM     10  C   LIG d   1      -5.320  95.011 120.141  0.00  0.00     0.006 C 
ENDBRANCH   8   9
BRANCH   8  11
ATOM     11  C   LIG d   1      -8.409  93.106 120.385  0.00  0.00     0.028 C 
ATOM     12  C   LIG d   1      -9.619  93.543 119.545  0.00  0.00     0.006 C 
ENDBRANCH   8  11
ENDBRANCH   7   8
ENDBRANCH   1   7
BRANCH   6  13
ATOM     13  N   LIG d   1      -3.679  91.985 118.468  0.00  0.00    -0.311 N 
ATOM     14  C   LIG d   1      -3.219  91.844 119.710  0.00  0.00     0.210 C 
ATOM     15  C   LIG d   1      -2.168  92.876 120.132  0.00  0.00     0.109 C 
ATOM     16  O   LIG d   1      -3.557  90.942 120.491  0.00  0.00    -0.276 OA
ATOM     17  H   LIG d   1      -3.325  92.725 117.893  0.00  0.00     0.149 HD
ENDBRANCH   6  13
BRANCH   5  18
ATOM     18  N   LIG d   1      -3.122  89.763 116.448  0.00  0.00     0.381 N 
ATOM     19  H   LIG d   1      -3.362  88.830 116.720  0.00  0.00    -0.090 HD
ATOM     20  H   LIG d   1      -2.463  90.126 117.114  0.00  0.00    -0.090 HD
ATOM     21  H   LIG d   1      -2.716  89.757 115.538  0.00  0.00    -0.090 HD
ENDBRANCH   5  18
BRANCH   3  22
ATOM     22  C   LIG d   1      -7.667  90.151 114.989  0.00  0.00     0.382 C 
ATOM     23  O   LIG d   1      -8.798  89.724 115.324  0.00  0.00    -0.241 OA
ATOM     24  O   LIG d   1      -7.391  90.274 113.780  0.00  0.00    -0.241 OA
ENDBRANCH   3  22
TORSDOF 7
ENDMDL
MODEL 2
REMARK VINA RESULT:      -5.1      1.481      4.902
REMARK  7 active torsions:
REMARK  status: ('A' for Active; 'I' for Inactive)
REMARK    1  A    between atoms: C_2  and  C_3 
REMARK    2  A    between atoms: C_3  and  O_6 
REMARK    3  A    between atoms: C_3  and  C_4 
REMARK    4  A    between atoms: C_7  and  O_6 
REMARK    5  A    between atoms: C_9  and  C_10 
REMARK    6  A    between atoms: N_15  and  C_14 
REMARK    7  A    between atoms: N_20  and  C_19 
REMARK       I    between atoms: C_22  and  N_20 
ROOT
ATOM      1  C   LIG d   1      -6.084  91.604 118.485  0.00  0.00     0.161 C 
ATOM      2  C   LIG d   1      -5.132  91.953 119.458  0.00  0.00     0.016 C 
ATOM      3  C   LIG d   1      -3.753  91.667 119.334  0.00  0.00     0.038 C 
ATOM      4  C   LIG d   1      -3.207  91.143 118.153  0.00  0.00     0.028 C 
ATOM      5  C   LIG d   1      -4.198  90.312 117.344  0.00  0.00    -0.047 C 
ATOM      6  C   LIG d   1      -5.492  91.132 117.141  0.00  0.00     0.091 C 
ENDROOT
BRANCH   1   7
ATOM      7  O   LIG d   1      -6.993  92.703 118.275  0.00  0.00    -0.368 OA
BRANCH   7   8
ATOM      8  C   LIG d   1      -7.087  93.667 119.352  0.00  0.00     0.119 C 
BRANCH   8   9
ATOM      9  C   LIG d   1      -8.328  93.304 120.191  0.00  0.00     0.028 C 
ATOM     10  C   LIG d   1      -9.643  93.653 119.475  0.00  0.00     0.006 C 
ENDBRANCH   8   9
BRANCH   8  11
ATOM     11  C   LIG d   1      -7.358  95.076 118.817  0.00  0.00     0.028 C 
ATOM     12  C   LIG d   1      -6.292  96.095 119.253  0.00  0.00     0.006 C 
ENDBRANCH   8  11
ENDBRANCH   7   8
ENDBRANCH   1   7
BRANCH   6  13
ATOM     13  N   LIG d   1      -6.546  90.361 116.431  0.00  0.00    -0.311 N 
ATOM     14  C   LIG d   1      -7.304  90.874 115.464  0.00  0.00     0.210 C 
ATOM     15  C   LIG d   1      -8.345  89.914 114.879  0.00  0.00     0.109 C 
ATOM     16  O   LIG d   1      -7.192  92.024 115.012  0.00  0.00    -0.276 OA
ATOM     17  H   LIG d   1      -6.684  89.410 116.713  0.00  0.00     0.149 HD
ENDBRANCH   6  13
BRANCH   5  18
ATOM     18  N   LIG d   1      -3.541  89.945 116.076  0.00  0.00     0.381 N 
ATOM     19  H   LIG d   1      -2.709  89.422 116.264  0.00  0.00    -0.090 HD
ATOM     20  H   LIG d   1      -3.283  90.784 115.588  0.00  0.00    -0.090 HD
ATOM     21  H   LIG d   1      -4.161  89.403 115.515  0.00  0.00    -0.090 HD
ENDBRANCH   5  18
BRANCH   3  22
ATOM     22  C   LIG d   1      -2.910  91.868 120.416  0.00  0.00     0.382 C 
ATOM     23  O   LIG d   1      -2.721  93.027 120.857  0.00  0.00    -0.241 OA
ATOM     24  O   LIG d   1      -2.301  90.910 120.930  0.00  0.00    -0.241 OA
ENDBRANCH   3  22
TORSDOF 7
ENDMDL
MODEL 3
REMARK VINA RESULT:      -4.8      2.432      4.549
REMARK  7 active torsions:
REMARK  status: ('A' for Active; 'I' for Inactive)
REMARK    1  A    between atoms: C_2  and  C_3 
REMARK    2  A    between atoms: C_3  and  O_6 
REMARK    3  A    between atoms: C_3  and  C_4 
REMARK    4  A    between atoms: C_7  and  O_6 
REMARK    5  A    between atoms: C_9  and  C_10 
REMARK    6  A    between atoms: N_15  and  C_14 
REMARK    7  A    between atoms: N_20  and  C_19 
REMARK       I    between atoms: C_22  and  N_20 
ROOT
ATOM      1  C   LIG d   1      -5.291  91.615 118.990  0.00  0.00     0.161 C 
ATOM      2  C   LIG d   1      -4.304  90.877 118.316  0.00  0.00     0.016 C 
ATOM      3  C   LIG d   1      -4.420  90.473 116.966  0.00  0.00     0.038 C 
ATOM      4  C   LIG d   1      -5.472  90.913 116.149  0.00  0.00     0.028 C 
ATOM      5  C   LIG d   1      -6.745  91.239 116.923  0.00  0.00    -0.047 C 
ATOM      6  C   LIG d   1      -6.394  92.198 118.083  0.00  0.00     0.091 C 
ENDROOT
BRANCH   1   7
ATOM      7  O   LIG d   1      -4.674  92.662 119.765  0.00  0.00    -0.368 OA
BRANCH   7   8
ATOM      8  C   LIG d   1      -3.243  92.817 119.601  0.00  0.00     0.119 C 
BRANCH   8   9
ATOM      9  C   LIG d   1      -2.577  92.407 120.929  0.00  0.00     0.028 C 
ATOM     10  C   LIG d   1      -1.447  91.383 120.728  0.00  0.00     0.006 C 
ENDBRANCH   8   9
BRANCH   8  11
ATOM     11  C   LIG d   1      -2.862  94.286 119.394  0.00  0.00     0.028 C 
ATOM     12  C   LIG d   1      -3.967  95.257 119.841  0.00  0.00     0.006 C 
ENDBRANCH   8  11
ENDBRANCH   7   8
ENDBRANCH   1   7
BRANCH   6  13
ATOM     13  N   LIG d   1      -7.569  92.502 118.942  0.00  0.00    -0.311 N 
ATOM     14  C   LIG d   1      -8.507  93.389 118.615  0.00  0.00     0.210 C 
ATOM     15  C   LIG d   1      -9.621  93.564 119.652  0.00  0.00     0.109 C 
ATOM     16  O   LIG d   1      -8.539  94.023 117.550  0.00  0.00    -0.276 OA
ATOM     17  H   LIG d   1      -7.638  92.009 119.811  0.00  0.00     0.149 HD
ENDBRANCH   6  13
BRANCH   5  18
ATOM     18  N   LIG d   1      -7.712  91.814 115.969  0.00  0.00     0.381 N 
ATOM     19  H   LIG d   1      -7.471  92.766 115.775  0.00  0.00    -0.090 HD
ATOM     20  H   LIG d   1      -8.627  91.799 116.384  0.00  0.00    -0.090 HD
ATOM     21  H   LIG d   1      -7.713  91.286 115.124  0.00  0.00    -0.090 HD
ENDBRANCH   5  18
BRANCH   3  22
ATOM     22  C   LIG d   1      -3.497  89.587 116.432  0.00  0.00     0.382 C 
ATOM     23  O   LIG d   1      -2.299  89.631 116.801  0.00  0.00    -0.241 OA
ATOM     24  O   LIG d   1      -3.838  88.773 115.552  0.00  0.00    -0.241 OA
ENDBRANCH   3  22
TORSDOF 7
ENDMDL
MODEL 4
REMARK VINA RESULT:      -4.6      4.405      8.212
REMARK  7 active torsions:
REMARK  status: ('A' for Active; 'I' for Inactive)
REMARK    1  A    between atoms: C_2  and  C_3 
REMARK    2  A    between atoms: C_3  and  O_6 
REMARK    3  A    between atoms: C_3  and  C_4 
REMARK    4  A    between atoms: C_7  and  O_6 
REMARK    5  A    between atoms: C_9  and  C_10 
REMARK    6  A    between atoms: N_15  and  C_14 
REMARK    7  A    between atoms: N_20  and  C_19 
REMARK       I    between atoms: C_22  and  N_20 
ROOT
ATOM      1  C   LIG d   1      -0.584  90.315 117.266  0.00  0.00     0.161 C 
ATOM      2  C   LIG d   1       0.583  90.781 117.894  0.00  0.00     0.016 C 
ATOM      3  C   LIG d   1       0.597  91.860 118.807  0.00  0.00     0.038 C 
ATOM      4  C   LIG d   1      -0.585  92.454 119.272  0.00  0.00     0.028 C 
ATOM      5  C   LIG d   1      -1.743  92.352 118.285  0.00  0.00    -0.047 C 
ATOM      6  C   LIG d   1      -1.899  90.878 117.846  0.00  0.00     0.091 C 
ENDROOT
BRANCH   1   7
ATOM      7  O   LIG d   1      -0.606  88.874 117.283  0.00  0.00    -0.368 OA
BRANCH   7   8
ATOM      8  C   LIG d   1       0.685  88.216 117.256  0.00  0.00     0.119 C 
BRANCH   8   9
ATOM      9  C   LIG d   1       0.934  87.744 115.811  0.00  0.00     0.028 C 
ATOM     10  C   LIG d   1       2.259  88.277 115.239  0.00  0.00     0.006 C 
ENDBRANCH   8   9
BRANCH   8  11
ATOM     11  C   LIG d   1       0.678  86.941 118.104  0.00  0.00     0.028 C 
ATOM     12  C   LIG d   1      -0.047  85.773 117.418  0.00  0.00     0.006 C 
ENDBRANCH   8  11
ENDBRANCH   7   8
ENDBRANCH   1   7
BRANCH   6  13
ATOM     13  N   LIG d   1      -2.956  90.702 116.816  0.00  0.00    -0.311 N 
ATOM     14  C   LIG d   1      -4.229  90.440 117.108  0.00  0.00     0.210 C 
ATOM     15  C   LIG d   1      -5.151  90.276 115.896  0.00  0.00     0.109 C 
ATOM     16  O   LIG d   1      -4.688  90.359 118.257  0.00  0.00    -0.276 OA
ATOM     17  H   LIG d   1      -2.677  90.782 115.857  0.00  0.00     0.149 HD
ENDBRANCH   6  13
BRANCH   5  18
ATOM     18  N   LIG d   1      -2.946  92.887 118.951  0.00  0.00     0.381 N 
ATOM     19  H   LIG d   1      -2.957  92.601 119.910  0.00  0.00    -0.090 HD
ATOM     20  H   LIG d   1      -3.761  92.511 118.501  0.00  0.00    -0.090 HD
ATOM     21  H   LIG d   1      -2.954  93.881 118.893  0.00  0.00    -0.090 HD
ENDBRANCH   5  18
BRANCH   3  22
ATOM     22  C   LIG d   1       1.809  92.383 119.234  0.00  0.00     0.382 C 
ATOM     23  O   LIG d   1       2.844  92.208 118.547  0.00  0.00    -0.241 OA
ATOM     24  O   LIG d   1       1.888  92.989 120.319  0.00  0.00    -0.241 OA
ENDBRANCH   3  22
TORSDOF 7
ENDMDL
MODEL 5
REMARK VINA RESULT:      -4.3      4.158      6.851
REMARK  7 active torsions:
REMARK  status: ('A' for Active; 'I' for Inactive)
REMARK    1  A    between atoms: C_2  and  C_3 
REMARK    2  A    between atoms: C_3  and  O_6 
REMARK    3  A    between atoms: C_3  and  C_4 
REMARK    4  A    between atoms: C_7  and  O_6 
REMARK    5  A    between atoms: C_9  and  C_10 
REMARK    6  A    between atoms: N_15  and  C_14 
REMARK    7  A    between atoms: N_20  and  C_19 
REMARK       I    between atoms: C_22  and  N_20 
ROOT
ATOM      1  C   LIG d   1      -0.911  90.336 117.796  0.00  0.00     0.161 C 
ATOM      2  C   LIG d   1      -2.168  90.318 117.171  0.00  0.00     0.016 C 
ATOM      3  C   LIG d   1      -3.303  90.987 117.686  0.00  0.00     0.038 C 
ATOM      4  C   LIG d   1      -3.218  91.849 118.789  0.00  0.00     0.028 C 
ATOM      5  C   LIG d   1      -2.083  91.498 119.746  0.00  0.00    -0.047 C 
ATOM      6  C   LIG d   1      -0.771  91.361 118.941  0.00  0.00     0.091 C 
ENDROOT
BRANCH   1   7
ATOM      7  O   LIG d   1       0.122  90.540 116.812  0.00  0.00    -0.368 OA
BRANCH   7   8
ATOM      8  C   LIG d   1       0.705  89.343 116.241  0.00  0.00     0.119 C 
BRANCH   8   9
ATOM      9  C   LIG d   1       0.663  88.247 117.324  0.00  0.00     0.028 C 
ATOM     10  C   LIG d   1       0.133  86.908 116.783  0.00  0.00     0.006 C 
ENDBRANCH   8   9
BRANCH   8  11
ATOM     11  C   LIG d   1       2.190  89.543 115.925  0.00  0.00     0.028 C 
ATOM     12  C   LIG d   1       2.845  90.624 116.798  0.00  0.00     0.006 C 
ENDBRANCH   8  11
ENDBRANCH   7   8
ENDBRANCH   1   7
BRANCH   6  13
ATOM     13  N   LIG d   1       0.373  90.937 119.789  0.00  0.00    -0.311 N 
ATOM     14  C   LIG d   1       1.421  91.716 120.050  0.00  0.00     0.210 C 
ATOM     15  C   LIG d   1       2.499  91.076 120.930  0.00  0.00     0.109 C 
ATOM     16  O   LIG d   1       1.544  92.888 119.664  0.00  0.00    -0.276 OA
ATOM     17  H   LIG d   1       0.340  90.011 120.169  0.00  0.00     0.149 HD
ENDBRANCH   6  13
BRANCH   5  18
ATOM     18  N   LIG d   1      -2.024  92.555 120.773  0.00  0.00     0.381 N 
ATOM     19  H   LIG d   1      -1.196  92.445 121.325  0.00  0.00    -0.090 HD
ATOM     20  H   LIG d   1      -2.821  92.466 121.379  0.00  0.00    -0.090 HD
ATOM     21  H   LIG d   1      -2.026  93.452 120.340  0.00  0.00    -0.090 HD
ENDBRANCH   5  18
BRANCH   3  22
ATOM     22  C   LIG d   1      -4.548  90.764 117.119  0.00  0.00     0.382 C 
ATOM     23  O   LIG d   1      -5.575  90.763 117.840  0.00  0.00    -0.241 OA
ATOM     24  O   LIG d   1      -4.653  90.521 115.902  0.00  0.00    -0.241 OA
ENDBRANCH   3  22
TORSDOF 7
ENDMDL
MODEL 6
REMARK VINA RESULT:      -4.3      1.714      4.799
REMARK  7 active torsions:
REMARK  status: ('A' for Active; 'I' for Inactive)
REMARK    1  A    between atoms: C_2  and  C_3 
REMARK    2  A    between atoms: C_3  and  O_6 
REMARK    3  A    between atoms: C_3  and  C_4 
REMARK    4  A    between atoms: C_7  and  O_6 
REMARK    5  A    between atoms: C_9  and  C_10 
REMARK    6  A    between atoms: N_15  and  C_14 
REMARK    7  A    between atoms: N_20  and  C_19 
REMARK       I    between atoms: C_22  and  N_20 
ROOT
ATOM      1  C   LIG d   1      -6.244  91.783 119.218  0.00  0.00     0.161 C 
ATOM      2  C   LIG d   1      -5.148  92.207 119.987  0.00  0.00     0.016 C 
ATOM      3  C   LIG d   1      -3.808  92.123 119.545  0.00  0.00     0.038 C 
ATOM      4  C   LIG d   1      -3.482  91.746 118.233  0.00  0.00     0.028 C 
ATOM      5  C   LIG d   1      -4.519  90.831 117.591  0.00  0.00    -0.047 C 
ATOM      6  C   LIG d   1      -5.917  91.473 117.742  0.00  0.00     0.091 C 
ENDROOT
BRANCH   1   7
ATOM      7  O   LIG d   1      -7.305  92.755 119.302  0.00  0.00    -0.368 OA
BRANCH   7   8
ATOM      8  C   LIG d   1      -7.090  93.997 118.588  0.00  0.00     0.119 C 
BRANCH   8   9
ATOM      9  C   LIG d   1      -6.930  95.113 119.639  0.00  0.00     0.028 C 
ATOM     10  C   LIG d   1      -5.596  95.866 119.497  0.00  0.00     0.006 C 
ENDBRANCH   8   9
BRANCH   8  11
ATOM     11  C   LIG d   1      -8.322  94.388 117.766  0.00  0.00     0.028 C 
ATOM     12  C   LIG d   1      -9.132  95.524 118.410  0.00  0.00     0.006 C 
ENDBRANCH   8  11
ENDBRANCH   7   8
ENDBRANCH   1   7
BRANCH   6  13
ATOM     13  N   LIG d   1      -7.001  90.602 117.215  0.00  0.00    -0.311 N 
ATOM     14  C   LIG d   1      -7.394  90.611 115.943  0.00  0.00     0.210 C 
ATOM     15  C   LIG d   1      -8.540  89.650 115.614  0.00  0.00     0.109 C 
ATOM     16  O   LIG d   1      -6.880  91.299 115.048  0.00  0.00    -0.276 OA
ATOM     17  H   LIG d   1      -7.451  89.990 117.866  0.00  0.00     0.149 HD
ENDBRANCH   6  13
BRANCH   5  18
ATOM     18  N   LIG d   1      -4.125  90.628 116.184  0.00  0.00     0.381 N 
ATOM     19  H   LIG d   1      -3.425  89.915 116.128  0.00  0.00    -0.090 HD
ATOM     20  H   LIG d   1      -3.733  91.483 115.830  0.00  0.00    -0.090 HD
ATOM     21  H   LIG d   1      -4.919  90.369 115.642  0.00  0.00    -0.090 HD
ENDBRANCH   5  18
BRANCH   3  22
ATOM     22  C   LIG d   1      -2.774  92.380 120.432  0.00  0.00     0.382 C 
ATOM     23  O   LIG d   1      -1.996  91.456 120.773  0.00  0.00    -0.241 OA
ATOM     24  O   LIG d   1      -2.635  93.513 120.930  0.00  0.00    -0.241 OA
ENDBRANCH   3  22
TORSDOF 7
ENDMDL
MODEL 7
REMARK VINA RESULT:      -4.2      7.111     10.236
REMARK  7 active torsions:
REMARK  status: ('A' for Active; 'I' for Inactive)
REMARK    1  A    between atoms: C_2  and  C_3 
REMARK    2  A    between atoms: C_3  and  O_6 
REMARK    3  A    between atoms: C_3  and  C_4 
REMARK    4  A    between atoms: C_7  and  O_6 
REMARK    5  A    between atoms: C_9  and  C_10 
REMARK    6  A    between atoms: N_15  and  C_14 
REMARK    7  A    between atoms: N_20  and  C_19 
REMARK       I    between atoms: C_22  and  N_20 
ROOT
ATOM      1  C   LIG d   1       2.548  90.317 117.306  0.00  0.00     0.161 C 
ATOM      2  C   LIG d   1       2.879  91.238 118.313  0.00  0.00     0.016 C 
ATOM      3  C   LIG d   1       4.178  91.772 118.483  0.00  0.00     0.038 C 
ATOM      4  C   LIG d   1       5.204  91.534 117.557  0.00  0.00     0.028 C 
ATOM      5  C   LIG d   1       5.052  90.212 116.811  0.00  0.00    -0.047 C 
ATOM      6  C   LIG d   1       3.627  90.130 116.219  0.00  0.00     0.091 C 
ENDROOT
BRANCH   1   7
ATOM      7  O   LIG d   1       1.289  90.681 116.705  0.00  0.00    -0.368 OA
BRANCH   7   8
ATOM      8  C   LIG d   1       0.189  89.765 116.926  0.00  0.00     0.119 C 
BRANCH   8   9
ATOM      9  C   LIG d   1      -0.938  90.555 117.620  0.00  0.00     0.028 C 
ATOM     10  C   LIG d   1      -0.653  90.797 119.112  0.00  0.00     0.006 C 
ENDBRANCH   8   9
BRANCH   8  11
ATOM     11  C   LIG d   1       0.574  88.658 117.912  0.00  0.00     0.028 C 
ATOM     12  C   LIG d   1       0.410  87.250 117.319  0.00  0.00     0.006 C 
ENDBRANCH   8  11
ENDBRANCH   7   8
ENDBRANCH   1   7
BRANCH   6  13
ATOM     13  N   LIG d   1       3.367  88.832 115.545  0.00  0.00    -0.311 N 
ATOM     14  C   LIG d   1       3.490  88.650 114.231  0.00  0.00     0.210 C 
ATOM     15  C   LIG d   1       3.154  87.239 113.739  0.00  0.00     0.109 C 
ATOM     16  O   LIG d   1       3.876  89.515 113.431  0.00  0.00    -0.276 OA
ATOM     17  H   LIG d   1       3.079  88.067 116.123  0.00  0.00     0.149 HD
ENDBRANCH   6  13
BRANCH   5  18
ATOM     18  N   LIG d   1       6.110  90.156 115.784  0.00  0.00     0.381 N 
ATOM     19  H   LIG d   1       6.107  91.001 115.249  0.00  0.00    -0.090 HD
ATOM     20  H   LIG d   1       5.919  89.389 115.163  0.00  0.00    -0.090 HD
ATOM     21  H   LIG d   1       6.998  90.030 116.216  0.00  0.00    -0.090 HD
ENDBRANCH   5  18
BRANCH   3  22
ATOM     22  C   LIG d   1       4.470  92.522 119.612  0.00  0.00     0.382 C 
ATOM     23  O   LIG d   1       5.662  92.674 119.972  0.00  0.00    -0.241 OA
ATOM     24  O   LIG d   1       3.554  93.012 120.299  0.00  0.00    -0.241 OA
ENDBRANCH   3  22
TORSDOF 7
ENDMDL
MODEL 8
REMARK VINA RESULT:      -4.1      5.624      8.689
REMARK  7 active torsions:
REMARK  status: ('A' for Active; 'I' for Inactive)
REMARK    1  A    between atoms: C_2  and  C_3 
REMARK    2  A    between atoms: C_3  and  O_6 
REMARK    3  A    between atoms: C_3  and  C_4 
REMARK    4  A    between atoms: C_7  and  O_6 
REMARK    5  A    between atoms: C_9  and  C_10 
REMARK    6  A    between atoms: N_15  and  C_14 
REMARK    7  A    between atoms: N_20  and  C_19 
REMARK       I    between atoms: C_22  and  N_20 
ROOT
ATOM      1  C   LIG d   1       0.105  90.177 117.007  0.00  0.00     0.161 C 
ATOM      2  C   LIG d   1       1.354  90.028 116.381  0.00  0.00     0.016 C 
ATOM      3  C   LIG d   1       2.541  90.628 116.859  0.00  0.00     0.038 C 
ATOM      4  C   LIG d   1       2.589  91.300 118.089  0.00  0.00     0.028 C 
ATOM      5  C   LIG d   1       1.251  91.905 118.501  0.00  0.00    -0.047 C 
ATOM      6  C   LIG d   1       0.158  90.815 118.411  0.00  0.00     0.091 C 
ENDROOT
BRANCH   1   7
ATOM      7  O   LIG d   1      -0.570  88.905 117.059  0.00  0.00    -0.368 OA
BRANCH   7   8
ATOM      8  C   LIG d   1       0.262  87.733 116.876  0.00  0.00     0.119 C 
BRANCH   8   9
ATOM      9  C   LIG d   1      -0.554  86.709 116.063  0.00  0.00     0.028 C 
ATOM     10  C   LIG d   1       0.278  86.045 114.953  0.00  0.00     0.006 C 
ENDBRANCH   8   9
BRANCH   8  11
ATOM     11  C   LIG d   1       0.558  87.046 118.213  0.00  0.00     0.028 C 
ATOM     12  C   LIG d   1       2.005  87.261 118.685  0.00  0.00     0.006 C 
ENDBRANCH   8  11
ENDBRANCH   7   8
ENDBRANCH   1   7
BRANCH   6  13
ATOM     13  N   LIG d   1      -1.197  91.344 118.716  0.00  0.00    -0.311 N 
ATOM     14  C   LIG d   1      -1.761  91.263 119.920  0.00  0.00     0.210 C 
ATOM     15  C   LIG d   1      -3.171  91.853 120.014  0.00  0.00     0.109 C 
ATOM     16  O   LIG d   1      -1.214  90.788 120.927  0.00  0.00    -0.276 OA
ATOM     17  H   LIG d   1      -1.699  91.773 117.964  0.00  0.00     0.149 HD
ENDBRANCH   6  13
BRANCH   5  18
ATOM     18  N   LIG d   1       1.409  92.454 119.861  0.00  0.00     0.381 N 
ATOM     19  H   LIG d   1       2.379  92.603 120.055  0.00  0.00    -0.090 HD
ATOM     20  H   LIG d   1       1.055  91.787 120.524  0.00  0.00    -0.090 HD
ATOM     21  H   LIG d   1       0.910  93.312 119.943  0.00  0.00    -0.090 HD
ENDBRANCH   5  18
BRANCH   3  22
ATOM     22  C   LIG d   1       3.690  90.593 116.083  0.00  0.00     0.382 C 
ATOM     23  O   LIG d   1       4.686  91.283 116.406  0.00  0.00    -0.241 OA
ATOM     24  O   LIG d   1       3.726  89.915 115.039  0.00  0.00    -0.241 OA
ENDBRANCH   3  22
TORSDOF 7
ENDMDL
MODEL 9
REMARK VINA RESULT:      -4.1      2.770      4.481
REMARK  7 active torsions:
REMARK  status: ('A' for Active; 'I' for Inactive)
REMARK    1  A    between atoms: C_2  and  C_3 
REMARK    2  A    between atoms: C_3  and  O_6 
REMARK    3  A    between atoms: C_3  and  C_4 
REMARK    4  A    between atoms: C_7  and  O_6 
REMARK    5  A    between atoms: C_9  and  C_10 
REMARK    6  A    between atoms: N_15  and  C_14 
REMARK    7  A    between atoms: N_20  and  C_19 
REMARK       I    between atoms: C_22  and  N_20 
ROOT
ATOM      1  C   LIG d   1      -5.169  92.235 120.062  0.00  0.00     0.161 C 
ATOM      2  C   LIG d   1      -4.072  91.693 119.373  0.00  0.00     0.016 C 
ATOM      3  C   LIG d   1      -4.152  91.193 118.052  0.00  0.00     0.038 C 
ATOM      4  C   LIG d   1      -5.309  91.342 117.272  0.00  0.00     0.028 C 
ATOM      5  C   LIG d   1      -6.589  91.427 118.097  0.00  0.00    -0.047 C 
ATOM      6  C   LIG d   1      -6.412  92.507 119.189  0.00  0.00     0.091 C 
ENDROOT
BRANCH   1   7
ATOM      7  O   LIG d   1      -4.768  93.436 120.751  0.00  0.00    -0.368 OA
BRANCH   7   8
ATOM      8  C   LIG d   1      -4.720  94.643 119.952  0.00  0.00     0.119 C 
BRANCH   8   9
ATOM      9  C   LIG d   1      -3.409  95.375 120.299  0.00  0.00     0.028 C 
ATOM     10  C   LIG d   1      -2.245  94.960 119.384  0.00  0.00     0.006 C 
ENDBRANCH   8   9
BRANCH   8  11
ATOM     11  C   LIG d   1      -5.840  95.613 120.338  0.00  0.00     0.028 C 
ATOM     12  C   LIG d   1      -6.224  96.565 119.195  0.00  0.00     0.006 C 
ENDBRANCH   8  11
ENDBRANCH   7   8
ENDBRANCH   1   7
BRANCH   6  13
ATOM     13  N   LIG d   1      -7.587  92.596 120.094  0.00  0.00    -0.311 N 
ATOM     14  C   LIG d   1      -8.635  93.384 119.859  0.00  0.00     0.210 C 
ATOM     15  C   LIG d   1      -9.730  93.340 120.929  0.00  0.00     0.109 C 
ATOM     16  O   LIG d   1      -8.777  94.090 118.849  0.00  0.00    -0.276 OA
ATOM     17  H   LIG d   1      -7.569  92.033 120.921  0.00  0.00     0.149 HD
ENDBRANCH   6  13
BRANCH   5  18
ATOM     18  N   LIG d   1      -7.698  91.719 117.170  0.00  0.00     0.381 N 
ATOM     19  H   LIG d   1      -7.438  91.461 116.239  0.00  0.00    -0.090 HD
ATOM     20  H   LIG d   1      -7.882  92.707 117.184  0.00  0.00    -0.090 HD
ATOM     21  H   LIG d   1      -8.513  91.217 117.445  0.00  0.00    -0.090 HD
ENDBRANCH   5  18
BRANCH   3  22
ATOM     22  C   LIG d   1      -3.079  90.501 117.513  0.00  0.00     0.382 C 
ATOM     23  O   LIG d   1      -1.919  90.708 117.944  0.00  0.00    -0.241 OA
ATOM     24  O   LIG d   1      -3.250  89.705 116.570  0.00  0.00    -0.241 OA
ENDBRANCH   3  22
TORSDOF 7
ENDMDL
