MODEL 1
REMARK VINA RESULT:      -5.7      0.000      0.000
REMARK  7 active torsions:
REMARK  status: ('A' for Active; 'I' for Inactive)
REMARK    1  A    between atoms: C_2  and  C_3 
REMARK    2  A    between atoms: C_3  and  O_6 
REMARK    3  A    between atoms: C_3  and  C_4 
REMARK    4  A    between atoms: C_7  and  O_6 
REMARK    5  A    between atoms: C_9  and  C_10 
REMARK    6  A    between atoms: N_15  and  C_14 
REMARK    7  A    between atoms: N_20  and  C_19 
REMARK       I    between atoms: C_22  and  N_20 
ROOT
ATOM      1  C   LIG d   1      -6.613  92.853 118.130  0.00  0.00     0.161 C 
ATOM      2  C   LIG d   1      -7.333  91.909 117.379  0.00  0.00     0.016 C 
ATOM      3  C   LIG d   1      -6.718  90.897 116.606  0.00  0.00     0.038 C 
ATOM      4  C   LIG d   1      -5.335  90.666 116.653  0.00  0.00     0.028 C 
ATOM      5  C   LIG d   1      -4.524  91.910 117.000  0.00  0.00    -0.047 C 
ATOM      6  C   LIG d   1      -5.108  92.548 118.281  0.00  0.00     0.091 C 
ENDROOT
BRANCH   1   7
ATOM      7  O   LIG d   1      -7.224  93.016 119.425  0.00  0.00    -0.368 OA
BRANCH   7   8
ATOM      8  C   LIG d   1      -7.626  94.363 119.775  0.00  0.00     0.119 C 
BRANCH   8   9
ATOM      9  C   LIG d   1      -8.905  94.257 120.629  0.00  0.00     0.028 C 
ATOM     10  C   LIG d   1      -9.920  93.261 120.044  0.00  0.00     0.006 C 
ENDBRANCH   8   9
BRANCH   8  11
ATOM     11  C   LIG d   1      -8.032  95.164 118.535  0.00  0.00     0.028 C 
ATOM     12  C   LIG d   1      -7.567  96.628 118.592  0.00  0.00     0.006 C 
ENDBRANCH   8  11
ENDBRANCH   7   8
ENDBRANCH   1   7
BRANCH   6  13
ATOM     13  N   LIG d   1      -4.426  93.817 118.644  0.00  0.00    -0.311 N 
ATOM     14  C   LIG d   1      -3.413  93.885 119.507  0.00  0.00     0.210 C 
ATOM     15  C   LIG d   1      -2.867  95.294 119.754  0.00  0.00     0.109 C 
ATOM     16  O   LIG d   1      -2.894  92.907 120.066  0.00  0.00    -0.276 OA
ATOM     17  H   LIG d   1      -4.763  94.656 118.213  0.00  0.00     0.149 HD
ENDBRANCH   6  13
BRANCH   5  18
ATOM     18  N   LIG d   1      -3.116  91.497 117.150  0.00  0.00     0.381 N 
ATOM     19  H   LIG d   1      -2.514  92.281 116.996  0.00  0.00    -0.090 HD
ATOM     20  H   LIG d   1      -2.907  90.798 116.459  0.00  0.00    -0.090 HD
ATOM     21  H   LIG d   1      -2.964  91.127 118.063  0.00  0.00    -0.090 HD
ENDBRANCH   5  18
BRANCH   3  22
ATOM     22  C   LIG d   1      -7.485  90.129 115.743  0.00  0.00     0.382 C 
ATOM     23  O   LIG d   1      -8.487  89.511 116.177  0.00  0.00    -0.241 OA
ATOM     24  O   LIG d   1      -7.162  90.011 114.546  0.00  0.00    -0.241 OA
ENDBRANCH   3  22
TORSDOF 7
ENDMDL
MODEL 2
REMARK VINA RESULT:      -5.3      2.298      4.943
REMARK  7 active torsions:
REMARK  status: ('A' for Active; 'I' for Inactive)
REMARK    1  A    between atoms: C_2  and  C_3 
REMARK    2  A    between atoms: C_3  and  O_6 
REMARK    3  A    between atoms: C_3  and  C_4 
REMARK    4  A    between atoms: C_7  and  O_6 
REMARK    5  A    between atoms: C_9  and  C_10 
REMARK    6  A    between atoms: N_15  and  C_14 
REMARK    7  A    between atoms: N_20  and  C_19 
REMARK       I    between atoms: C_22  and  N_20 
ROOT
ATOM      1  C   LIG d   1      -4.518  91.225 117.719  0.00  0.00     0.161 C 
ATOM      2  C   LIG d   1      -5.417  90.677 116.789  0.00  0.00     0.016 C 
ATOM      3  C   LIG d   1      -6.629  91.303 116.417  0.00  0.00     0.038 C 
ATOM      4  C   LIG d   1      -6.953  92.601 116.838  0.00  0.00     0.028 C 
ATOM      5  C   LIG d   1      -6.318  92.981 118.172  0.00  0.00    -0.047 C 
ATOM      6  C   LIG d   1      -4.801  92.692 118.105  0.00  0.00     0.091 C 
ENDROOT
BRANCH   1   7
ATOM      7  O   LIG d   1      -3.168  91.086 117.232  0.00  0.00    -0.368 OA
BRANCH   7   8
ATOM      8  C   LIG d   1      -2.261  90.335 118.076  0.00  0.00     0.119 C 
BRANCH   8   9
ATOM      9  C   LIG d   1      -0.848  90.475 117.476  0.00  0.00     0.028 C 
ATOM     10  C   LIG d   1      -0.084  91.680 118.050  0.00  0.00     0.006 C 
ENDBRANCH   8   9
BRANCH   8  11
ATOM     11  C   LIG d   1      -2.572  88.836 118.033  0.00  0.00     0.028 C 
ATOM     12  C   LIG d   1      -2.792  88.233 119.430  0.00  0.00     0.006 C 
ENDBRANCH   8  11
ENDBRANCH   7   8
ENDBRANCH   1   7
BRANCH   6  13
ATOM     13  N   LIG d   1      -4.116  92.957 119.397  0.00  0.00    -0.311 N 
ATOM     14  C   LIG d   1      -3.035  93.726 119.510  0.00  0.00     0.210 C 
ATOM     15  C   LIG d   1      -2.475  93.851 120.930  0.00  0.00     0.109 C 
ATOM     16  O   LIG d   1      -2.506  94.343 118.573  0.00  0.00    -0.276 OA
ATOM     17  H   LIG d   1      -4.498  92.520 120.213  0.00  0.00     0.149 HD
ENDBRANCH   6  13
BRANCH   5  18
ATOM     18  N   LIG d   1      -6.625  94.402 118.423  0.00  0.00     0.381 N 
ATOM     19  H   LIG d   1      -6.810  94.866 117.556  0.00  0.00    -0.090 HD
ATOM     20  H   LIG d   1      -5.826  94.836 118.850  0.00  0.00    -0.090 HD
ATOM     21  H   LIG d   1      -7.416  94.478 119.024  0.00  0.00    -0.090 HD
ENDBRANCH   5  18
BRANCH   3  22
ATOM     22  C   LIG d   1      -7.551  90.612 115.645  0.00  0.00     0.382 C 
ATOM     23  O   LIG d   1      -8.031  89.529 116.060  0.00  0.00    -0.241 OA
ATOM     24  O   LIG d   1      -7.874  91.034 114.519  0.00  0.00    -0.241 OA
ENDBRANCH   3  22
TORSDOF 7
ENDMDL
MODEL 3
REMARK VINA RESULT:      -4.7      2.299      4.660
REMARK  7 active torsions:
REMARK  status: ('A' for Active; 'I' for Inactive)
REMARK    1  A    between atoms: C_2  and  C_3 
REMARK    2  A    between atoms: C_3  and  O_6 
REMARK    3  A    between atoms: C_3  and  C_4 
REMARK    4  A    between atoms: C_7  and  O_6 
REMARK    5  A    between atoms: C_9  and  C_10 
REMARK    6  A    between atoms: N_15  and  C_14 
REMARK    7  A    between atoms: N_20  and  C_19 
REMARK       I    between atoms: C_22  and  N_20 
ROOT
ATOM      1  C   LIG d   1      -4.311  92.605 118.728  0.00  0.00     0.161 C 
ATOM      2  C   LIG d   1      -5.622  93.031 118.997  0.00  0.00     0.016 C 
ATOM      3  C   LIG d   1      -6.752  92.573 118.280  0.00  0.00     0.038 C 
ATOM      4  C   LIG d   1      -6.662  91.538 117.338  0.00  0.00     0.028 C 
ATOM      5  C   LIG d   1      -5.291  91.436 116.678  0.00  0.00    -0.047 C 
ATOM      6  C   LIG d   1      -4.206  91.393 117.779  0.00  0.00     0.091 C 
ENDROOT
BRANCH   1   7
ATOM      7  O   LIG d   1      -3.622  92.334 119.965  0.00  0.00    -0.368 OA
BRANCH   7   8
ATOM      8  C   LIG d   1      -2.645  93.321 120.380  0.00  0.00     0.119 C 
BRANCH   8   9
ATOM      9  C   LIG d   1      -2.514  94.350 119.240  0.00  0.00     0.028 C 
ATOM     10  C   LIG d   1      -2.929  95.765 119.677  0.00  0.00     0.006 C 
ENDBRANCH   8   9
BRANCH   8  11
ATOM     11  C   LIG d   1      -1.253  92.699 120.527  0.00  0.00     0.028 C 
ATOM     12  C   LIG d   1      -0.213  93.338 119.593  0.00  0.00     0.006 C 
ENDBRANCH   8  11
ENDBRANCH   7   8
ENDBRANCH   1   7
BRANCH   6  13
ATOM     13  N   LIG d   1      -2.830  91.378 117.219  0.00  0.00    -0.311 N 
ATOM     14  C   LIG d   1      -1.876  90.550 117.640  0.00  0.00     0.210 C 
ATOM     15  C   LIG d   1      -0.522  90.715 116.942  0.00  0.00     0.109 C 
ATOM     16  O   LIG d   1      -2.030  89.674 118.504  0.00  0.00    -0.276 OA
ATOM     17  H   LIG d   1      -2.626  92.036 116.492  0.00  0.00     0.149 HD
ENDBRANCH   6  13
BRANCH   5  18
ATOM     18  N   LIG d   1      -5.295  90.233 115.824  0.00  0.00     0.381 N 
ATOM     19  H   LIG d   1      -4.463  90.209 115.269  0.00  0.00    -0.090 HD
ATOM     20  H   LIG d   1      -6.086  90.277 115.206  0.00  0.00    -0.090 HD
ATOM     21  H   LIG d   1      -5.351  89.414 116.389  0.00  0.00    -0.090 HD
ENDBRANCH   5  18
BRANCH   3  22
ATOM     22  C   LIG d   1      -7.982  93.182 118.474  0.00  0.00     0.382 C 
ATOM     23  O   LIG d   1      -8.719  92.817 119.422  0.00  0.00    -0.241 OA
ATOM     24  O   LIG d   1      -8.384  94.060 117.688  0.00  0.00    -0.241 OA
ENDBRANCH   3  22
TORSDOF 7
ENDMDL
MODEL 4
REMARK VINA RESULT:      -4.7      2.613      4.692
REMARK  7 active torsions:
REMARK  status: ('A' for Active; 'I' for Inactive)
REMARK    1  A    between atoms: C_2  and  C_3 
REMARK    2  A    between atoms: C_3  and  O_6 
REMARK    3  A    between atoms: C_3  and  C_4 
REMARK    4  A    between atoms: C_7  and  O_6 
REMARK    5  A    between atoms: C_9  and  C_10 
REMARK    6  A    between atoms: N_15  and  C_14 
REMARK    7  A    between atoms: N_20  and  C_19 
REMARK       I    between atoms: C_22  and  N_20 
ROOT
ATOM      1  C   LIG d   1      -5.460  93.346 119.980  0.00  0.00     0.161 C 
ATOM      2  C   LIG d   1      -4.177  93.055 119.489  0.00  0.00     0.016 C 
ATOM      3  C   LIG d   1      -3.940  92.501 118.209  0.00  0.00     0.038 C 
ATOM      4  C   LIG d   1      -4.968  92.340 117.269  0.00  0.00     0.028 C 
ATOM      5  C   LIG d   1      -6.343  92.148 117.902  0.00  0.00    -0.047 C 
ATOM      6  C   LIG d   1      -6.586  93.280 118.926  0.00  0.00     0.091 C 
ENDROOT
BRANCH   1   7
ATOM      7  O   LIG d   1      -5.456  94.633 120.628  0.00  0.00    -0.368 OA
BRANCH   7   8
ATOM      8  C   LIG d   1      -5.437  95.787 119.753  0.00  0.00     0.119 C 
BRANCH   8   9
ATOM      9  C   LIG d   1      -4.247  96.670 120.177  0.00  0.00     0.028 C 
ATOM     10  C   LIG d   1      -3.072  96.584 119.188  0.00  0.00     0.006 C 
ENDBRANCH   8   9
BRANCH   8  11
ATOM     11  C   LIG d   1      -6.681  96.659 119.954  0.00  0.00     0.028 C 
ATOM     12  C   LIG d   1      -7.229  97.228 118.636  0.00  0.00     0.006 C 
ENDBRANCH   8  11
ENDBRANCH   7   8
ENDBRANCH   1   7
BRANCH   6  13
ATOM     13  N   LIG d   1      -7.873  93.121 119.652  0.00  0.00    -0.311 N 
ATOM     14  C   LIG d   1      -9.019  93.657 119.238  0.00  0.00     0.210 C 
ATOM     15  C   LIG d   1     -10.224  93.387 120.145  0.00  0.00     0.109 C 
ATOM     16  O   LIG d   1      -9.160  94.304 118.189  0.00  0.00    -0.276 OA
ATOM     17  H   LIG d   1      -7.856  92.584 120.497  0.00  0.00     0.149 HD
ENDBRANCH   6  13
BRANCH   5  18
ATOM     18  N   LIG d   1      -7.336  92.131 116.812  0.00  0.00     0.381 N 
ATOM     19  H   LIG d   1      -8.107  91.546 117.065  0.00  0.00    -0.090 HD
ATOM     20  H   LIG d   1      -6.908  91.749 115.987  0.00  0.00    -0.090 HD
ATOM     21  H   LIG d   1      -7.658  93.056 116.629  0.00  0.00    -0.090 HD
ENDBRANCH   5  18
BRANCH   3  22
ATOM     22  C   LIG d   1      -2.667  92.065 117.874  0.00  0.00     0.382 C 
ATOM     23  O   LIG d   1      -1.702  92.867 117.900  0.00  0.00    -0.241 OA
ATOM     24  O   LIG d   1      -2.479  90.891 117.504  0.00  0.00    -0.241 OA
ENDBRANCH   3  22
TORSDOF 7
ENDMDL
MODEL 5
REMARK VINA RESULT:      -4.5      3.362      5.626
REMARK  7 active torsions:
REMARK  status: ('A' for Active; 'I' for Inactive)
REMARK    1  A    between atoms: C_2  and  C_3 
REMARK    2  A    between atoms: C_3  and  O_6 
REMARK    3  A    between atoms: C_3  and  C_4 
REMARK    4  A    between atoms: C_7  and  O_6 
REMARK    5  A    between atoms: C_9  and  C_10 
REMARK    6  A    between atoms: N_15  and  C_14 
REMARK    7  A    between atoms: N_20  and  C_19 
REMARK       I    between atoms: C_22  and  N_20 
ROOT
ATOM      1  C   LIG d   1      -3.140  90.567 118.213  0.00  0.00     0.161 C 
ATOM      2  C   LIG d   1      -4.290  90.267 117.464  0.00  0.00     0.016 C 
ATOM      3  C   LIG d   1      -5.298  91.215 117.172  0.00  0.00     0.038 C 
ATOM      4  C   LIG d   1      -5.150  92.575 117.482  0.00  0.00     0.028 C 
ATOM      5  C   LIG d   1      -4.239  92.827 118.679  0.00  0.00    -0.047 C 
ATOM      6  C   LIG d   1      -2.907  92.072 118.465  0.00  0.00     0.091 C 
ENDROOT
BRANCH   1   7
ATOM      7  O   LIG d   1      -1.983  89.979 117.587  0.00  0.00    -0.368 OA
BRANCH   7   8
ATOM      8  C   LIG d   1      -1.655  88.628 117.996  0.00  0.00     0.119 C 
BRANCH   8   9
ATOM      9  C   LIG d   1      -1.817  88.555 119.526  0.00  0.00     0.028 C 
ATOM     10  C   LIG d   1      -2.622  87.323 119.973  0.00  0.00     0.006 C 
ENDBRANCH   8   9
BRANCH   8  11
ATOM     11  C   LIG d   1      -0.181  88.307 117.728  0.00  0.00     0.028 C 
ATOM     12  C   LIG d   1       0.772  89.046 118.682  0.00  0.00     0.006 C 
ENDBRANCH   8  11
ENDBRANCH   7   8
ENDBRANCH   1   7
BRANCH   6  13
ATOM     13  N   LIG d   1      -1.991  92.196 119.628  0.00  0.00    -0.311 N 
ATOM     14  C   LIG d   1      -0.686  92.434 119.512  0.00  0.00     0.210 C 
ATOM     15  C   LIG d   1       0.079  92.505 120.837  0.00  0.00     0.109 C 
ATOM     16  O   LIG d   1      -0.095  92.624 118.438  0.00  0.00    -0.276 OA
ATOM     17  H   LIG d   1      -2.393  92.087 120.539  0.00  0.00     0.149 HD
ENDBRANCH   6  13
BRANCH   5  18
ATOM     18  N   LIG d   1      -4.063  94.286 118.806  0.00  0.00     0.381 N 
ATOM     19  H   LIG d   1      -3.926  94.690 117.901  0.00  0.00    -0.090 HD
ATOM     20  H   LIG d   1      -3.245  94.467 119.360  0.00  0.00    -0.090 HD
ATOM     21  H   LIG d   1      -4.864  94.689 119.240  0.00  0.00    -0.090 HD
ENDBRANCH   5  18
BRANCH   3  22
ATOM     22  C   LIG d   1      -6.489  90.797 116.597  0.00  0.00     0.382 C 
ATOM     23  O   LIG d   1      -7.567  91.355 116.912  0.00  0.00    -0.241 OA
ATOM     24  O   LIG d   1      -6.503  89.839 115.800  0.00  0.00    -0.241 OA
ENDBRANCH   3  22
TORSDOF 7
ENDMDL
MODEL 6
REMARK VINA RESULT:      -4.5      1.855      2.657
REMARK  7 active torsions:
REMARK  status: ('A' for Active; 'I' for Inactive)
REMARK    1  A    between atoms: C_2  and  C_3 
REMARK    2  A    between atoms: C_3  and  O_6 
REMARK    3  A    between atoms: C_3  and  C_4 
REMARK    4  A    between atoms: C_7  and  O_6 
REMARK    5  A    between atoms: C_9  and  C_10 
REMARK    6  A    between atoms: N_15  and  C_14 
REMARK    7  A    between atoms: N_20  and  C_19 
REMARK       I    between atoms: C_22  and  N_20 
ROOT
ATOM      1  C   LIG d   1      -4.683  93.276 118.982  0.00  0.00     0.161 C 
ATOM      2  C   LIG d   1      -5.825  92.880 118.265  0.00  0.00     0.016 C 
ATOM      3  C   LIG d   1      -5.814  91.858 117.288  0.00  0.00     0.038 C 
ATOM      4  C   LIG d   1      -4.684  91.056 117.067  0.00  0.00     0.028 C 
ATOM      5  C   LIG d   1      -3.371  91.751 117.407  0.00  0.00    -0.047 C 
ATOM      6  C   LIG d   1      -3.468  92.337 118.834  0.00  0.00     0.091 C 
ENDROOT
BRANCH   1   7
ATOM      7  O   LIG d   1      -5.016  93.450 120.374  0.00  0.00    -0.368 OA
BRANCH   7   8
ATOM      8  C   LIG d   1      -5.049  94.816 120.856  0.00  0.00     0.119 C 
BRANCH   8   9
ATOM      9  C   LIG d   1      -6.526  95.246 120.930  0.00  0.00     0.028 C 
ATOM     10  C   LIG d   1      -6.933  96.154 119.758  0.00  0.00     0.006 C 
ENDBRANCH   8   9
BRANCH   8  11
ATOM     11  C   LIG d   1      -4.397  95.775 119.856  0.00  0.00     0.028 C 
ATOM     12  C   LIG d   1      -3.147  96.467 120.422  0.00  0.00     0.006 C 
ENDBRANCH   8  11
ENDBRANCH   7   8
ENDBRANCH   1   7
BRANCH   6  13
ATOM     13  N   LIG d   1      -2.255  93.108 119.215  0.00  0.00    -0.311 N 
ATOM     14  C   LIG d   1      -1.232  92.580 119.883  0.00  0.00     0.210 C 
ATOM     15  C   LIG d   1      -0.090  93.554 120.192  0.00  0.00     0.109 C 
ATOM     16  O   LIG d   1      -1.146  91.390 120.223  0.00  0.00    -0.276 OA
ATOM     17  H   LIG d   1      -2.227  94.073 118.951  0.00  0.00     0.149 HD
ENDBRANCH   6  13
BRANCH   5  18
ATOM     18  N   LIG d   1      -2.290  90.758 117.262  0.00  0.00     0.381 N 
ATOM     19  H   LIG d   1      -2.190  90.504 116.300  0.00  0.00    -0.090 HD
ATOM     20  H   LIG d   1      -2.534  89.934 117.782  0.00  0.00    -0.090 HD
ATOM     21  H   LIG d   1      -1.433  91.134 117.604  0.00  0.00    -0.090 HD
ENDBRANCH   5  18
BRANCH   3  22
ATOM     22  C   LIG d   1      -6.930  91.658 116.491  0.00  0.00     0.382 C 
ATOM     23  O   LIG d   1      -7.265  92.527 115.650  0.00  0.00    -0.241 OA
ATOM     24  O   LIG d   1      -7.633  90.639 116.632  0.00  0.00    -0.241 OA
ENDBRANCH   3  22
TORSDOF 7
ENDMDL
MODEL 7
REMARK VINA RESULT:      -4.4      2.409      4.758
REMARK  7 active torsions:
REMARK  status: ('A' for Active; 'I' for Inactive)
REMARK    1  A    between atoms: C_2  and  C_3 
REMARK    2  A    between atoms: C_3  and  O_6 
REMARK    3  A    between atoms: C_3  and  C_4 
REMARK    4  A    between atoms: C_7  and  O_6 
REMARK    5  A    between atoms: C_9  and  C_10 
REMARK    6  A    between atoms: N_15  and  C_14 
REMARK    7  A    between atoms: N_20  and  C_19 
REMARK       I    between atoms: C_22  and  N_20 
ROOT
ATOM      1  C   LIG d   1      -5.012  93.543 119.386  0.00  0.00     0.161 C 
ATOM      2  C   LIG d   1      -4.664  92.384 118.672  0.00  0.00     0.016 C 
ATOM      3  C   LIG d   1      -5.475  91.819 117.661  0.00  0.00     0.038 C 
ATOM      4  C   LIG d   1      -6.627  92.465 117.188  0.00  0.00     0.028 C 
ATOM      5  C   LIG d   1      -7.281  93.373 118.224  0.00  0.00    -0.047 C 
ATOM      6  C   LIG d   1      -6.210  94.323 118.807  0.00  0.00     0.091 C 
ENDROOT
BRANCH   1   7
ATOM      7  O   LIG d   1      -3.864  94.405 119.507  0.00  0.00    -0.368 OA
BRANCH   7   8
ATOM      8  C   LIG d   1      -2.655  93.955 118.847  0.00  0.00     0.119 C 
BRANCH   8   9
ATOM      9  C   LIG d   1      -1.584  93.746 119.934  0.00  0.00     0.028 C 
ATOM     10  C   LIG d   1      -0.804  92.434 119.746  0.00  0.00     0.006 C 
ENDBRANCH   8   9
BRANCH   8  11
ATOM     11  C   LIG d   1      -2.090  95.036 117.922  0.00  0.00     0.028 C 
ATOM     12  C   LIG d   1      -1.460  96.208 118.691  0.00  0.00     0.006 C 
ENDBRANCH   8  11
ENDBRANCH   7   8
ENDBRANCH   1   7
BRANCH   6  13
ATOM     13  N   LIG d   1      -6.749  95.188 119.888  0.00  0.00    -0.311 N 
ATOM     14  C   LIG d   1      -7.256  96.401 119.673  0.00  0.00     0.210 C 
ATOM     15  C   LIG d   1      -7.738  97.133 120.930  0.00  0.00     0.109 C 
ATOM     16  O   LIG d   1      -7.382  96.927 118.557  0.00  0.00    -0.276 OA
ATOM     17  H   LIG d   1      -6.715  94.827 120.821  0.00  0.00     0.149 HD
ENDBRANCH   6  13
BRANCH   5  18
ATOM     18  N   LIG d   1      -8.386  94.087 117.556  0.00  0.00     0.381 N 
ATOM     19  H   LIG d   1      -8.439  95.025 117.899  0.00  0.00    -0.090 HD
ATOM     20  H   LIG d   1      -9.251  93.623 117.772  0.00  0.00    -0.090 HD
ATOM     21  H   LIG d   1      -8.241  94.094 116.570  0.00  0.00    -0.090 HD
ENDBRANCH   5  18
BRANCH   3  22
ATOM     22  C   LIG d   1      -5.157  90.574 117.141  0.00  0.00     0.382 C 
ATOM     23  O   LIG d   1      -4.223  89.904 117.643  0.00  0.00    -0.241 OA
ATOM     24  O   LIG d   1      -5.764  90.131 116.147  0.00  0.00    -0.241 OA
ENDBRANCH   3  22
TORSDOF 7
ENDMDL
MODEL 8
REMARK VINA RESULT:      -4.2      4.506      8.015
REMARK  7 active torsions:
REMARK  status: ('A' for Active; 'I' for Inactive)
REMARK    1  A    between atoms: C_2  and  C_3 
REMARK    2  A    between atoms: C_3  and  O_6 
REMARK    3  A    between atoms: C_3  and  C_4 
REMARK    4  A    between atoms: C_7  and  O_6 
REMARK    5  A    between atoms: C_9  and  C_10 
REMARK    6  A    between atoms: N_15  and  C_14 
REMARK    7  A    between atoms: N_20  and  C_19 
REMARK       I    between atoms: C_22  and  N_20 
ROOT
ATOM      1  C   LIG d   1      -0.820  90.500 117.189  0.00  0.00     0.161 C 
ATOM      2  C   LIG d   1       0.484  90.869 117.560  0.00  0.00     0.016 C 
ATOM      3  C   LIG d   1       0.790  92.076 118.229  0.00  0.00     0.038 C 
ATOM      4  C   LIG d   1      -0.211  92.933 118.709  0.00  0.00     0.028 C 
ATOM      5  C   LIG d   1      -1.511  92.851 117.915  0.00  0.00    -0.047 C 
ATOM      6  C   LIG d   1      -1.938  91.370 117.803  0.00  0.00     0.091 C 
ENDROOT
BRANCH   1   7
ATOM      7  O   LIG d   1      -1.041  89.110 117.496  0.00  0.00    -0.368 OA
BRANCH   7   8
ATOM      8  C   LIG d   1      -0.419  88.618 118.709  0.00  0.00     0.119 C 
BRANCH   8   9
ATOM      9  C   LIG d   1       0.148  87.218 118.403  0.00  0.00     0.028 C 
ATOM     10  C   LIG d   1       0.683  87.102 116.966  0.00  0.00     0.006 C 
ENDBRANCH   8   9
BRANCH   8  11
ATOM     11  C   LIG d   1      -1.452  88.404 119.819  0.00  0.00     0.028 C 
ATOM     12  C   LIG d   1      -2.857  88.101 119.274  0.00  0.00     0.006 C 
ENDBRANCH   8  11
ENDBRANCH   7   8
ENDBRANCH   1   7
BRANCH   6  13
ATOM     13  N   LIG d   1      -3.155  91.192 116.968  0.00  0.00    -0.311 N 
ATOM     14  C   LIG d   1      -4.392  91.240 117.458  0.00  0.00     0.210 C 
ATOM     15  C   LIG d   1      -5.504  91.012 116.429  0.00  0.00     0.109 C 
ATOM     16  O   LIG d   1      -4.676  91.483 118.641  0.00  0.00    -0.276 OA
ATOM     17  H   LIG d   1      -3.017  91.022 115.991  0.00  0.00     0.149 HD
ENDBRANCH   6  13
BRANCH   5  18
ATOM     18  N   LIG d   1      -2.509  93.690 118.605  0.00  0.00     0.381 N 
ATOM     19  H   LIG d   1      -2.048  94.314 119.236  0.00  0.00    -0.090 HD
ATOM     20  H   LIG d   1      -3.119  93.096 119.138  0.00  0.00    -0.090 HD
ATOM     21  H   LIG d   1      -3.037  94.209 117.938  0.00  0.00    -0.090 HD
ENDBRANCH   5  18
BRANCH   3  22
ATOM     22  C   LIG d   1       2.114  92.456 118.388  0.00  0.00     0.382 C 
ATOM     23  O   LIG d   1       2.420  93.316 119.250  0.00  0.00    -0.241 OA
ATOM     24  O   LIG d   1       3.000  91.984 117.651  0.00  0.00    -0.241 OA
ENDBRANCH   3  22
TORSDOF 7
ENDMDL
MODEL 9
REMARK VINA RESULT:      -4.2      1.459      2.165
REMARK  7 active torsions:
REMARK  status: ('A' for Active; 'I' for Inactive)
REMARK    1  A    between atoms: C_2  and  C_3 
REMARK    2  A    between atoms: C_3  and  O_6 
REMARK    3  A    between atoms: C_3  and  C_4 
REMARK    4  A    between atoms: C_7  and  O_6 
REMARK    5  A    between atoms: C_9  and  C_10 
REMARK    6  A    between atoms: N_15  and  C_14 
REMARK    7  A    between atoms: N_20  and  C_19 
REMARK       I    between atoms: C_22  and  N_20 
ROOT
ATOM      1  C   LIG d   1      -5.448  93.052 118.502  0.00  0.00     0.161 C 
ATOM      2  C   LIG d   1      -6.259  92.418 117.546  0.00  0.00     0.016 C 
ATOM      3  C   LIG d   1      -5.884  91.234 116.870  0.00  0.00     0.038 C 
ATOM      4  C   LIG d   1      -4.730  90.516 117.216  0.00  0.00     0.028 C 
ATOM      5  C   LIG d   1      -3.634  91.386 117.821  0.00  0.00    -0.047 C 
ATOM      6  C   LIG d   1      -4.236  92.222 118.974  0.00  0.00     0.091 C 
ENDROOT
BRANCH   1   7
ATOM      7  O   LIG d   1      -6.249  93.456 119.631  0.00  0.00    -0.368 OA
BRANCH   7   8
ATOM      8  C   LIG d   1      -6.742  94.818 119.608  0.00  0.00     0.119 C 
BRANCH   8   9
ATOM      9  C   LIG d   1      -5.894  95.633 120.604  0.00  0.00     0.028 C 
ATOM     10  C   LIG d   1      -4.928  96.600 119.898  0.00  0.00     0.006 C 
ENDBRANCH   8   9
BRANCH   8  11
ATOM     11  C   LIG d   1      -8.177  94.900 120.135  0.00  0.00     0.028 C 
ATOM     12  C   LIG d   1      -9.168  94.080 119.294  0.00  0.00     0.006 C 
ENDBRANCH   8  11
ENDBRANCH   7   8
ENDBRANCH   1   7
BRANCH   6  13
ATOM     13  N   LIG d   1      -3.250  93.164 119.566  0.00  0.00    -0.311 N 
ATOM     14  C   LIG d   1      -2.461  93.953 118.838  0.00  0.00     0.210 C 
ATOM     15  C   LIG d   1      -1.503  94.833 119.647  0.00  0.00     0.109 C 
ATOM     16  O   LIG d   1      -2.487  94.032 117.601  0.00  0.00    -0.276 OA
ATOM     17  H   LIG d   1      -3.184  93.187 120.565  0.00  0.00     0.149 HD
ENDBRANCH   6  13
BRANCH   5  18
ATOM     18  N   LIG d   1      -2.547  90.492 118.262  0.00  0.00     0.381 N 
ATOM     19  H   LIG d   1      -2.879  89.549 118.299  0.00  0.00    -0.090 HD
ATOM     20  H   LIG d   1      -2.259  90.762 119.186  0.00  0.00    -0.090 HD
ATOM     21  H   LIG d   1      -1.777  90.556 117.633  0.00  0.00    -0.090 HD
ENDBRANCH   5  18
BRANCH   3  22
ATOM     22  C   LIG d   1      -6.649  90.779 115.806  0.00  0.00     0.382 C 
ATOM     23  O   LIG d   1      -6.524  89.597 115.405  0.00  0.00    -0.241 OA
ATOM     24  O   LIG d   1      -7.429  91.549 115.214  0.00  0.00    -0.241 OA
ENDBRANCH   3  22
TORSDOF 7
ENDMDL
