MODEL 1
REMARK VINA RESULT:      -5.2      0.000      0.000
REMARK  7 active torsions:
REMARK  status: ('A' for Active; 'I' for Inactive)
REMARK    1  A    between atoms: C_2  and  C_3 
REMARK    2  A    between atoms: C_3  and  O_6 
REMARK    3  A    between atoms: C_3  and  C_4 
REMARK    4  A    between atoms: C_7  and  O_6 
REMARK    5  A    between atoms: C_9  and  C_10 
REMARK    6  A    between atoms: N_15  and  C_14 
REMARK    7  A    between atoms: N_20  and  C_19 
REMARK       I    between atoms: C_22  and  N_20 
ROOT
ATOM      1  C   LIG d   1      -6.464  93.029 118.389  0.00  0.00     0.161 C 
ATOM      2  C   LIG d   1      -7.329  92.131 117.742  0.00  0.00     0.016 C 
ATOM      3  C   LIG d   1      -6.878  91.039 116.965  0.00  0.00     0.038 C 
ATOM      4  C   LIG d   1      -5.523  90.680 116.906  0.00  0.00     0.028 C 
ATOM      5  C   LIG d   1      -4.575  91.854 117.132  0.00  0.00    -0.047 C 
ATOM      6  C   LIG d   1      -4.986  92.588 118.428  0.00  0.00     0.091 C 
ENDROOT
BRANCH   1   7
ATOM      7  O   LIG d   1      -6.943  93.294 119.722  0.00  0.00    -0.368 OA
BRANCH   7   8
ATOM      8  C   LIG d   1      -7.550  94.592 119.935  0.00  0.00     0.119 C 
BRANCH   8   9
ATOM      9  C   LIG d   1      -9.072  94.427 119.753  0.00  0.00     0.028 C 
ATOM     10  C   LIG d   1      -9.727  93.684 120.929  0.00  0.00     0.006 C 
ENDBRANCH   8   9
BRANCH   8  11
ATOM     11  C   LIG d   1      -7.119  95.592 118.859  0.00  0.00     0.028 C 
ATOM     12  C   LIG d   1      -8.297  96.396 118.286  0.00  0.00     0.006 C 
ENDBRANCH   8  11
ENDBRANCH   7   8
ENDBRANCH   1   7
BRANCH   6  13
ATOM     13  N   LIG d   1      -4.162  93.800 118.679  0.00  0.00    -0.311 N 
ATOM     14  C   LIG d   1      -3.067  93.798 119.437  0.00  0.00     0.210 C 
ATOM     15  C   LIG d   1      -2.377  95.158 119.580  0.00  0.00     0.109 C 
ATOM     16  O   LIG d   1      -2.583  92.792 119.978  0.00  0.00    -0.276 OA
ATOM     17  H   LIG d   1      -4.465  94.653 118.252  0.00  0.00     0.149 HD
ENDBRANCH   6  13
BRANCH   5  18
ATOM     18  N   LIG d   1      -3.203  91.315 117.182  0.00  0.00     0.381 N 
ATOM     19  H   LIG d   1      -2.554  92.012 116.874  0.00  0.00    -0.090 HD
ATOM     20  H   LIG d   1      -3.140  90.528 116.560  0.00  0.00    -0.090 HD
ATOM     21  H   LIG d   1      -2.982  91.032 118.111  0.00  0.00    -0.090 HD
ENDBRANCH   5  18
BRANCH   3  22
ATOM     22  C   LIG d   1      -7.784  90.317 116.203  0.00  0.00     0.382 C 
ATOM     23  O   LIG d   1      -8.670  89.631 116.766  0.00  0.00    -0.241 OA
ATOM     24  O   LIG d   1      -7.698  90.308 114.960  0.00  0.00    -0.241 OA
ENDBRANCH   3  22
TORSDOF 7
ENDMDL
MODEL 2
REMARK VINA RESULT:      -5.1      1.545      4.623
REMARK  7 active torsions:
REMARK  status: ('A' for Active; 'I' for Inactive)
REMARK    1  A    between atoms: C_2  and  C_3 
REMARK    2  A    between atoms: C_3  and  O_6 
REMARK    3  A    between atoms: C_3  and  C_4 
REMARK    4  A    between atoms: C_7  and  O_6 
REMARK    5  A    between atoms: C_9  and  C_10 
REMARK    6  A    between atoms: N_15  and  C_14 
REMARK    7  A    between atoms: N_20  and  C_19 
REMARK       I    between atoms: C_22  and  N_20 
ROOT
ATOM      1  C   LIG d   1      -7.027  92.500 118.947  0.00  0.00     0.161 C 
ATOM      2  C   LIG d   1      -5.898  93.205 119.398  0.00  0.00     0.016 C 
ATOM      3  C   LIG d   1      -4.614  93.065 118.824  0.00  0.00     0.038 C 
ATOM      4  C   LIG d   1      -4.401  92.318 117.655  0.00  0.00     0.028 C 
ATOM      5  C   LIG d   1      -5.410  91.191 117.464  0.00  0.00    -0.047 C 
ATOM      6  C   LIG d   1      -6.838  91.766 117.603  0.00  0.00     0.091 C 
ENDROOT
BRANCH   1   7
ATOM      7  O   LIG d   1      -8.161  93.388 118.879  0.00  0.00    -0.368 OA
BRANCH   7   8
ATOM      8  C   LIG d   1      -7.921  94.760 119.275  0.00  0.00     0.119 C 
BRANCH   8   9
ATOM      9  C   LIG d   1      -9.015  95.148 120.288  0.00  0.00     0.028 C 
ATOM     10  C   LIG d   1     -10.011  94.003 120.543  0.00  0.00     0.006 C 
ENDBRANCH   8   9
BRANCH   8  11
ATOM     11  C   LIG d   1      -8.103  95.721 118.095  0.00  0.00     0.028 C 
ATOM     12  C   LIG d   1      -8.949  96.952 118.455  0.00  0.00     0.006 C 
ENDBRANCH   8  11
ENDBRANCH   7   8
ENDBRANCH   1   7
BRANCH   6  13
ATOM     13  N   LIG d   1      -7.884  90.715 117.514  0.00  0.00    -0.311 N 
ATOM     14  C   LIG d   1      -8.394  90.284 116.361  0.00  0.00     0.210 C 
ATOM     15  C   LIG d   1      -9.476  89.208 116.495  0.00  0.00     0.109 C 
ATOM     16  O   LIG d   1      -8.029  90.667 115.240  0.00  0.00    -0.276 OA
ATOM     17  H   LIG d   1      -8.215  90.326 118.375  0.00  0.00     0.149 HD
ENDBRANCH   6  13
BRANCH   5  18
ATOM     18  N   LIG d   1      -5.157  90.585 116.143  0.00  0.00     0.381 N 
ATOM     19  H   LIG d   1      -5.993  90.155 115.802  0.00  0.00    -0.090 HD
ATOM     20  H   LIG d   1      -4.454  89.874 116.241  0.00  0.00    -0.090 HD
ATOM     21  H   LIG d   1      -4.848  91.282 115.502  0.00  0.00    -0.090 HD
ENDBRANCH   5  18
BRANCH   3  22
ATOM     22  C   LIG d   1      -3.517  93.643 119.444  0.00  0.00     0.382 C 
ATOM     23  O   LIG d   1      -2.488  92.960 119.665  0.00  0.00    -0.241 OA
ATOM     24  O   LIG d   1      -3.559  94.829 119.825  0.00  0.00    -0.241 OA
ENDBRANCH   3  22
TORSDOF 7
ENDMDL
MODEL 3
REMARK VINA RESULT:      -5.0      2.346      5.045
REMARK  7 active torsions:
REMARK  status: ('A' for Active; 'I' for Inactive)
REMARK    1  A    between atoms: C_2  and  C_3 
REMARK    2  A    between atoms: C_3  and  O_6 
REMARK    3  A    between atoms: C_3  and  C_4 
REMARK    4  A    between atoms: C_7  and  O_6 
REMARK    5  A    between atoms: C_9  and  C_10 
REMARK    6  A    between atoms: N_15  and  C_14 
REMARK    7  A    between atoms: N_20  and  C_19 
REMARK       I    between atoms: C_22  and  N_20 
ROOT
ATOM      1  C   LIG d   1      -4.353  91.448 118.021  0.00  0.00     0.161 C 
ATOM      2  C   LIG d   1      -5.228  90.755 117.167  0.00  0.00     0.016 C 
ATOM      3  C   LIG d   1      -6.461  91.284 116.720  0.00  0.00     0.038 C 
ATOM      4  C   LIG d   1      -6.834  92.612 116.977  0.00  0.00     0.028 C 
ATOM      5  C   LIG d   1      -6.219  93.179 118.252  0.00  0.00    -0.047 C 
ATOM      6  C   LIG d   1      -4.692  92.940 118.221  0.00  0.00     0.091 C 
ENDROOT
BRANCH   1   7
ATOM      7  O   LIG d   1      -2.997  91.300 117.555  0.00  0.00    -0.368 OA
BRANCH   7   8
ATOM      8  C   LIG d   1      -2.064  90.703 118.489  0.00  0.00     0.119 C 
BRANCH   8   9
ATOM      9  C   LIG d   1      -0.658  91.225 118.135  0.00  0.00     0.028 C 
ATOM     10  C   LIG d   1       0.125  90.244 117.247  0.00  0.00     0.006 C 
ENDBRANCH   8   9
BRANCH   8  11
ATOM     11  C   LIG d   1      -1.990  89.184 118.309  0.00  0.00     0.028 C 
ATOM     12  C   LIG d   1      -2.717  88.416 119.424  0.00  0.00     0.006 C 
ENDBRANCH   8  11
ENDBRANCH   7   8
ENDBRANCH   1   7
BRANCH   6  13
ATOM     13  N   LIG d   1      -4.023  93.389 119.470  0.00  0.00    -0.311 N 
ATOM     14  C   LIG d   1      -2.934  94.155 119.483  0.00  0.00     0.210 C 
ATOM     15  C   LIG d   1      -2.393  94.487 120.878  0.00  0.00     0.109 C 
ATOM     16  O   LIG d   1      -2.383  94.619 118.473  0.00  0.00    -0.276 OA
ATOM     17  H   LIG d   1      -4.422  93.085 120.336  0.00  0.00     0.149 HD
ENDBRANCH   6  13
BRANCH   5  18
ATOM     18  N   LIG d   1      -6.580  94.607 118.324  0.00  0.00     0.381 N 
ATOM     19  H   LIG d   1      -7.575  94.704 118.352  0.00  0.00    -0.090 HD
ATOM     20  H   LIG d   1      -6.241  95.070 117.498  0.00  0.00    -0.090 HD
ATOM     21  H   LIG d   1      -6.175  95.020 119.135  0.00  0.00    -0.090 HD
ENDBRANCH   5  18
BRANCH   3  22
ATOM     22  C   LIG d   1      -7.353  90.468 116.041  0.00  0.00     0.382 C 
ATOM     23  O   LIG d   1      -7.234  90.304 114.803  0.00  0.00    -0.241 OA
ATOM     24  O   LIG d   1      -8.301  89.930 116.643  0.00  0.00    -0.241 OA
ENDBRANCH   3  22
TORSDOF 7
ENDMDL
MODEL 4
REMARK VINA RESULT:      -5.0      2.582      6.500
REMARK  7 active torsions:
REMARK  status: ('A' for Active; 'I' for Inactive)
REMARK    1  A    between atoms: C_2  and  C_3 
REMARK    2  A    between atoms: C_3  and  O_6 
REMARK    3  A    between atoms: C_3  and  C_4 
REMARK    4  A    between atoms: C_7  and  O_6 
REMARK    5  A    between atoms: C_9  and  C_10 
REMARK    6  A    between atoms: N_15  and  C_14 
REMARK    7  A    between atoms: N_20  and  C_19 
REMARK       I    between atoms: C_22  and  N_20 
ROOT
ATOM      1  C   LIG d   1      -4.139  92.248 117.509  0.00  0.00     0.161 C 
ATOM      2  C   LIG d   1      -3.530  92.981 118.541  0.00  0.00     0.016 C 
ATOM      3  C   LIG d   1      -4.256  93.704 119.515  0.00  0.00     0.038 C 
ATOM      4  C   LIG d   1      -5.652  93.619 119.613  0.00  0.00     0.028 C 
ATOM      5  C   LIG d   1      -6.334  93.298 118.287  0.00  0.00    -0.047 C 
ATOM      6  C   LIG d   1      -5.661  92.053 117.666  0.00  0.00     0.091 C 
ENDROOT
BRANCH   1   7
ATOM      7  O   LIG d   1      -3.483  90.972 117.363  0.00  0.00    -0.368 OA
BRANCH   7   8
ATOM      8  C   LIG d   1      -2.543  90.616 118.406  0.00  0.00     0.119 C 
BRANCH   8   9
ATOM      9  C   LIG d   1      -1.239  90.166 117.720  0.00  0.00     0.028 C 
ATOM     10  C   LIG d   1      -0.981  88.658 117.880  0.00  0.00     0.006 C 
ENDBRANCH   8   9
BRANCH   8  11
ATOM     11  C   LIG d   1      -3.026  89.397 119.198  0.00  0.00     0.028 C 
ATOM     12  C   LIG d   1      -3.807  89.781 120.465  0.00  0.00     0.006 C 
ENDBRANCH   8  11
ENDBRANCH   7   8
ENDBRANCH   1   7
BRANCH   6  13
ATOM     13  N   LIG d   1      -6.213  91.720 116.327  0.00  0.00    -0.311 N 
ATOM     14  C   LIG d   1      -7.230  90.880 116.140  0.00  0.00     0.210 C 
ATOM     15  C   LIG d   1      -7.628  90.661 114.677  0.00  0.00     0.109 C 
ATOM     16  O   LIG d   1      -7.861  90.321 117.050  0.00  0.00    -0.276 OA
ATOM     17  H   LIG d   1      -5.780  92.153 115.535  0.00  0.00     0.149 HD
ENDBRANCH   6  13
BRANCH   5  18
ATOM     18  N   LIG d   1      -7.771  93.103 118.561  0.00  0.00     0.381 N 
ATOM     19  H   LIG d   1      -8.179  92.539 117.842  0.00  0.00    -0.090 HD
ATOM     20  H   LIG d   1      -8.227  93.999 118.556  0.00  0.00    -0.090 HD
ATOM     21  H   LIG d   1      -7.893  92.665 119.447  0.00  0.00    -0.090 HD
ENDBRANCH   5  18
BRANCH   3  22
ATOM     22  C   LIG d   1      -3.585  94.556 120.380  0.00  0.00     0.382 C 
ATOM     23  O   LIG d   1      -4.176  95.551 120.863  0.00  0.00    -0.241 OA
ATOM     24  O   LIG d   1      -2.384  94.366 120.648  0.00  0.00    -0.241 OA
ENDBRANCH   3  22
TORSDOF 7
ENDMDL
MODEL 5
REMARK VINA RESULT:      -4.3      3.221      5.260
REMARK  7 active torsions:
REMARK  status: ('A' for Active; 'I' for Inactive)
REMARK    1  A    between atoms: C_2  and  C_3 
REMARK    2  A    between atoms: C_3  and  O_6 
REMARK    3  A    between atoms: C_3  and  C_4 
REMARK    4  A    between atoms: C_7  and  O_6 
REMARK    5  A    between atoms: C_9  and  C_10 
REMARK    6  A    between atoms: N_15  and  C_14 
REMARK    7  A    between atoms: N_20  and  C_19 
REMARK       I    between atoms: C_22  and  N_20 
ROOT
ATOM      1  C   LIG d   1      -3.674  91.351 120.254  0.00  0.00     0.161 C 
ATOM      2  C   LIG d   1      -4.930  91.132 119.664  0.00  0.00     0.016 C 
ATOM      3  C   LIG d   1      -5.311  91.686 118.420  0.00  0.00     0.038 C 
ATOM      4  C   LIG d   1      -4.402  92.377 117.606  0.00  0.00     0.028 C 
ATOM      5  C   LIG d   1      -3.280  93.051 118.388  0.00  0.00    -0.047 C 
ATOM      6  C   LIG d   1      -2.630  92.011 119.329  0.00  0.00     0.091 C 
ENDROOT
BRANCH   1   7
ATOM      7  O   LIG d   1      -3.161  90.113 120.785  0.00  0.00    -0.368 OA
BRANCH   7   8
ATOM      8  C   LIG d   1      -3.126  88.992 119.868  0.00  0.00     0.119 C 
BRANCH   8   9
ATOM      9  C   LIG d   1      -3.615  87.749 120.637  0.00  0.00     0.028 C 
ATOM     10  C   LIG d   1      -2.558  86.633 120.680  0.00  0.00     0.006 C 
ENDBRANCH   8   9
BRANCH   8  11
ATOM     11  C   LIG d   1      -1.692  88.667 119.440  0.00  0.00     0.028 C 
ATOM     12  C   LIG d   1      -1.433  88.960 117.954  0.00  0.00     0.006 C 
ENDBRANCH   8  11
ENDBRANCH   7   8
ENDBRANCH   1   7
BRANCH   6  13
ATOM     13  N   LIG d   1      -1.577  92.608 120.192  0.00  0.00    -0.311 N 
ATOM     14  C   LIG d   1      -0.280  92.578 119.892  0.00  0.00     0.210 C 
ATOM     15  C   LIG d   1       0.638  93.234 120.929  0.00  0.00     0.109 C 
ATOM     16  O   LIG d   1       0.195  92.099 118.851  0.00  0.00    -0.276 OA
ATOM     17  H   LIG d   1      -1.877  93.044 121.042  0.00  0.00     0.149 HD
ENDBRANCH   6  13
BRANCH   5  18
ATOM     18  N   LIG d   1      -2.332  93.616 117.409  0.00  0.00     0.381 N 
ATOM     19  H   LIG d   1      -2.773  94.354 116.897  0.00  0.00    -0.090 HD
ATOM     20  H   LIG d   1      -2.066  92.896 116.760  0.00  0.00    -0.090 HD
ATOM     21  H   LIG d   1      -1.525  93.965 117.878  0.00  0.00    -0.090 HD
ENDBRANCH   5  18
BRANCH   3  22
ATOM     22  C   LIG d   1      -6.628  91.584 117.998  0.00  0.00     0.382 C 
ATOM     23  O   LIG d   1      -7.431  92.523 118.214  0.00  0.00    -0.241 OA
ATOM     24  O   LIG d   1      -7.035  90.546 117.442  0.00  0.00    -0.241 OA
ENDBRANCH   3  22
TORSDOF 7
ENDMDL
MODEL 6
REMARK VINA RESULT:      -4.2      4.670      7.949
REMARK  7 active torsions:
REMARK  status: ('A' for Active; 'I' for Inactive)
REMARK    1  A    between atoms: C_2  and  C_3 
REMARK    2  A    between atoms: C_3  and  O_6 
REMARK    3  A    between atoms: C_3  and  C_4 
REMARK    4  A    between atoms: C_7  and  O_6 
REMARK    5  A    between atoms: C_9  and  C_10 
REMARK    6  A    between atoms: N_15  and  C_14 
REMARK    7  A    between atoms: N_20  and  C_19 
REMARK       I    between atoms: C_22  and  N_20 
ROOT
ATOM      1  C   LIG d   1      -0.458  90.542 118.073  0.00  0.00     0.161 C 
ATOM      2  C   LIG d   1       0.945  90.574 118.128  0.00  0.00     0.016 C 
ATOM      3  C   LIG d   1       1.707  91.743 117.903  0.00  0.00     0.038 C 
ATOM      4  C   LIG d   1       1.106  93.002 117.755  0.00  0.00     0.028 C 
ATOM      5  C   LIG d   1      -0.309  92.936 117.190  0.00  0.00    -0.047 C 
ATOM      6  C   LIG d   1      -1.135  91.928 118.022  0.00  0.00     0.091 C 
ENDROOT
BRANCH   1   7
ATOM      7  O   LIG d   1      -0.974  89.773 119.177  0.00  0.00    -0.368 OA
BRANCH   7   8
ATOM      8  C   LIG d   1      -1.813  88.644 118.830  0.00  0.00     0.119 C 
BRANCH   8   9
ATOM      9  C   LIG d   1      -3.180  88.857 119.509  0.00  0.00     0.028 C 
ATOM     10  C   LIG d   1      -3.374  87.948 120.735  0.00  0.00     0.006 C 
ENDBRANCH   8   9
BRANCH   8  11
ATOM     11  C   LIG d   1      -1.265  87.341 119.421  0.00  0.00     0.028 C 
ATOM     12  C   LIG d   1      -0.161  86.713 118.556  0.00  0.00     0.006 C 
ENDBRANCH   8  11
ENDBRANCH   7   8
ENDBRANCH   1   7
BRANCH   6  13
ATOM     13  N   LIG d   1      -2.508  91.740 117.485  0.00  0.00    -0.311 N 
ATOM     14  C   LIG d   1      -3.557  92.453 117.889  0.00  0.00     0.210 C 
ATOM     15  C   LIG d   1      -4.886  92.084 117.221  0.00  0.00     0.109 C 
ATOM     16  O   LIG d   1      -3.509  93.377 118.714  0.00  0.00    -0.276 OA
ATOM     17  H   LIG d   1      -2.631  91.031 116.789  0.00  0.00     0.149 HD
ENDBRANCH   6  13
BRANCH   5  18
ATOM     18  N   LIG d   1      -0.865  94.302 117.218  0.00  0.00     0.381 N 
ATOM     19  H   LIG d   1      -0.127  94.965 117.343  0.00  0.00    -0.090 HD
ATOM     20  H   LIG d   1      -1.495  94.380 117.997  0.00  0.00    -0.090 HD
ATOM     21  H   LIG d   1      -1.350  94.490 116.369  0.00  0.00    -0.090 HD
ENDBRANCH   5  18
BRANCH   3  22
ATOM     22  C   LIG d   1       3.085  91.654 117.784  0.00  0.00     0.382 C 
ATOM     23  O   LIG d   1       3.704  90.722 118.354  0.00  0.00    -0.241 OA
ATOM     24  O   LIG d   1       3.722  92.517 117.152  0.00  0.00    -0.241 OA
ENDBRANCH   3  22
TORSDOF 7
ENDMDL
MODEL 7
REMARK VINA RESULT:      -4.2      3.952      6.564
REMARK  7 active torsions:
REMARK  status: ('A' for Active; 'I' for Inactive)
REMARK    1  A    between atoms: C_2  and  C_3 
REMARK    2  A    between atoms: C_3  and  O_6 
REMARK    3  A    between atoms: C_3  and  C_4 
REMARK    4  A    between atoms: C_7  and  O_6 
REMARK    5  A    between atoms: C_9  and  C_10 
REMARK    6  A    between atoms: N_15  and  C_14 
REMARK    7  A    between atoms: N_20  and  C_19 
REMARK       I    between atoms: C_22  and  N_20 
ROOT
ATOM      1  C   LIG d   1      -2.018  90.570 118.482  0.00  0.00     0.161 C 
ATOM      2  C   LIG d   1      -3.335  90.283 118.086  0.00  0.00     0.016 C 
ATOM      3  C   LIG d   1      -4.275  91.277 117.731  0.00  0.00     0.038 C 
ATOM      4  C   LIG d   1      -3.913  92.627 117.601  0.00  0.00     0.028 C 
ATOM      5  C   LIG d   1      -2.730  93.024 118.478  0.00  0.00    -0.047 C 
ATOM      6  C   LIG d   1      -1.572  92.027 118.240  0.00  0.00     0.091 C 
ENDROOT
BRANCH   1   7
ATOM      7  O   LIG d   1      -1.105  89.655 117.844  0.00  0.00    -0.368 OA
BRANCH   7   8
ATOM      8  C   LIG d   1      -0.243  88.895 118.727  0.00  0.00     0.119 C 
BRANCH   8   9
ATOM      9  C   LIG d   1       1.210  89.140 118.279  0.00  0.00     0.028 C 
ATOM     10  C   LIG d   1       1.294  89.771 116.878  0.00  0.00     0.006 C 
ENDBRANCH   8   9
BRANCH   8  11
ATOM     11  C   LIG d   1      -0.469  87.388 118.564  0.00  0.00     0.028 C 
ATOM     12  C   LIG d   1      -1.406  86.807 119.635  0.00  0.00     0.006 C 
ENDBRANCH   8  11
ENDBRANCH   7   8
ENDBRANCH   1   7
BRANCH   6  13
ATOM     13  N   LIG d   1      -0.405  92.293 119.120  0.00  0.00    -0.311 N 
ATOM     14  C   LIG d   1       0.655  93.004 118.738  0.00  0.00     0.210 C 
ATOM     15  C   LIG d   1       1.756  93.141 119.794  0.00  0.00     0.109 C 
ATOM     16  O   LIG d   1       0.773  93.560 117.636  0.00  0.00    -0.276 OA
ATOM     17  H   LIG d   1      -0.432  91.905 120.043  0.00  0.00     0.149 HD
ENDBRANCH   6  13
BRANCH   5  18
ATOM     18  N   LIG d   1      -2.373  94.415 118.141  0.00  0.00     0.381 N 
ATOM     19  H   LIG d   1      -1.574  94.424 117.540  0.00  0.00    -0.090 HD
ATOM     20  H   LIG d   1      -2.138  94.904 118.987  0.00  0.00    -0.090 HD
ATOM     21  H   LIG d   1      -3.141  94.865 117.692  0.00  0.00    -0.090 HD
ENDBRANCH   5  18
BRANCH   3  22
ATOM     22  C   LIG d   1      -5.603  90.930 117.540  0.00  0.00     0.382 C 
ATOM     23  O   LIG d   1      -6.437  91.110 118.460  0.00  0.00    -0.241 OA
ATOM     24  O   LIG d   1      -5.971  90.399 116.475  0.00  0.00    -0.241 OA
ENDBRANCH   3  22
TORSDOF 7
ENDMDL
MODEL 8
REMARK VINA RESULT:      -4.2      2.398      5.060
REMARK  7 active torsions:
REMARK  status: ('A' for Active; 'I' for Inactive)
REMARK    1  A    between atoms: C_2  and  C_3 
REMARK    2  A    between atoms: C_3  and  O_6 
REMARK    3  A    between atoms: C_3  and  C_4 
REMARK    4  A    between atoms: C_7  and  O_6 
REMARK    5  A    between atoms: C_9  and  C_10 
REMARK    6  A    between atoms: N_15  and  C_14 
REMARK    7  A    between atoms: N_20  and  C_19 
REMARK       I    between atoms: C_22  and  N_20 
ROOT
ATOM      1  C   LIG d   1      -4.549  93.122 119.436  0.00  0.00     0.161 C 
ATOM      2  C   LIG d   1      -3.529  92.218 119.098  0.00  0.00     0.016 C 
ATOM      3  C   LIG d   1      -3.725  91.107 118.245  0.00  0.00     0.038 C 
ATOM      4  C   LIG d   1      -4.926  90.911 117.548  0.00  0.00     0.028 C 
ATOM      5  C   LIG d   1      -6.139  91.513 118.249  0.00  0.00    -0.047 C 
ATOM      6  C   LIG d   1      -5.837  92.988 118.597  0.00  0.00     0.091 C 
ENDROOT
BRANCH   1   7
ATOM      7  O   LIG d   1      -4.047  94.472 119.371  0.00  0.00    -0.368 OA
BRANCH   7   8
ATOM      8  C   LIG d   1      -2.619  94.631 119.559  0.00  0.00     0.119 C 
BRANCH   8   9
ATOM      9  C   LIG d   1      -2.405  95.303 120.929  0.00  0.00     0.028 C 
ATOM     10  C   LIG d   1      -2.283  96.832 120.820  0.00  0.00     0.006 C 
ENDBRANCH   8   9
BRANCH   8  11
ATOM     11  C   LIG d   1      -2.026  95.601 118.534  0.00  0.00     0.028 C 
ATOM     12  C   LIG d   1      -1.245  94.887 117.420  0.00  0.00     0.006 C 
ENDBRANCH   8  11
ENDBRANCH   7   8
ENDBRANCH   1   7
BRANCH   6  13
ATOM     13  N   LIG d   1      -6.940  93.628 119.360  0.00  0.00    -0.311 N 
ATOM     14  C   LIG d   1      -7.941  94.291 118.785  0.00  0.00     0.210 C 
ATOM     15  C   LIG d   1      -8.963  94.890 119.756  0.00  0.00     0.109 C 
ATOM     16  O   LIG d   1      -8.098  94.413 117.560  0.00  0.00    -0.276 OA
ATOM     17  H   LIG d   1      -6.909  93.551 120.358  0.00  0.00     0.149 HD
ENDBRANCH   6  13
BRANCH   5  18
ATOM     18  N   LIG d   1      -7.297  91.356 117.349  0.00  0.00     0.381 N 
ATOM     19  H   LIG d   1      -7.053  90.761 116.582  0.00  0.00    -0.090 HD
ATOM     20  H   LIG d   1      -7.547  92.257 116.981  0.00  0.00    -0.090 HD
ATOM     21  H   LIG d   1      -8.067  90.968 117.848  0.00  0.00    -0.090 HD
ENDBRANCH   5  18
BRANCH   3  22
ATOM     22  C   LIG d   1      -2.724  90.156 118.115  0.00  0.00     0.382 C 
ATOM     23  O   LIG d   1      -1.600  90.486 117.666  0.00  0.00    -0.241 OA
ATOM     24  O   LIG d   1      -2.945  88.964 118.399  0.00  0.00    -0.241 OA
ENDBRANCH   3  22
TORSDOF 7
ENDMDL
MODEL 9
REMARK VINA RESULT:      -4.2      3.184      5.842
REMARK  7 active torsions:
REMARK  status: ('A' for Active; 'I' for Inactive)
REMARK    1  A    between atoms: C_2  and  C_3 
REMARK    2  A    between atoms: C_3  and  O_6 
REMARK    3  A    between atoms: C_3  and  C_4 
REMARK    4  A    between atoms: C_7  and  O_6 
REMARK    5  A    between atoms: C_9  and  C_10 
REMARK    6  A    between atoms: N_15  and  C_14 
REMARK    7  A    between atoms: N_20  and  C_19 
REMARK       I    between atoms: C_22  and  N_20 
ROOT
ATOM      1  C   LIG d   1      -2.812  91.969 118.330  0.00  0.00     0.161 C 
ATOM      2  C   LIG d   1      -2.748  93.357 118.124  0.00  0.00     0.016 C 
ATOM      3  C   LIG d   1      -1.545  94.099 118.188  0.00  0.00     0.038 C 
ATOM      4  C   LIG d   1      -0.295  93.475 118.314  0.00  0.00     0.028 C 
ATOM      5  C   LIG d   1      -0.359  92.130 119.029  0.00  0.00    -0.047 C 
ATOM      6  C   LIG d   1      -1.444  91.256 118.358  0.00  0.00     0.091 C 
ENDROOT
BRANCH   1   7
ATOM      7  O   LIG d   1      -3.670  91.368 117.341  0.00  0.00    -0.368 OA
BRANCH   7   8
ATOM      8  C   LIG d   1      -5.053  91.799 117.350  0.00  0.00     0.119 C 
BRANCH   8   9
ATOM      9  C   LIG d   1      -5.686  91.296 118.661  0.00  0.00     0.028 C 
ATOM     10  C   LIG d   1      -6.900  92.138 119.088  0.00  0.00     0.006 C 
ENDBRANCH   8   9
BRANCH   8  11
ATOM     11  C   LIG d   1      -5.853  91.128 116.229  0.00  0.00     0.028 C 
ATOM     12  C   LIG d   1      -6.568  92.140 115.320  0.00  0.00     0.006 C 
ENDBRANCH   8  11
ENDBRANCH   7   8
ENDBRANCH   1   7
BRANCH   6  13
ATOM     13  N   LIG d   1      -1.630  89.954 119.050  0.00  0.00    -0.311 N 
ATOM     14  C   LIG d   1      -1.337  88.779 118.493  0.00  0.00     0.210 C 
ATOM     15  C   LIG d   1      -1.624  87.558 119.372  0.00  0.00     0.109 C 
ATOM     16  O   LIG d   1      -0.838  88.636 117.367  0.00  0.00    -0.276 OA
ATOM     17  H   LIG d   1      -2.001  89.980 119.979  0.00  0.00     0.149 HD
ENDBRANCH   6  13
BRANCH   5  18
ATOM     18  N   LIG d   1       0.987  91.529 118.968  0.00  0.00     0.381 N 
ATOM     19  H   LIG d   1       1.184  91.052 119.826  0.00  0.00    -0.090 HD
ATOM     20  H   LIG d   1       1.665  92.261 118.852  0.00  0.00    -0.090 HD
ATOM     21  H   LIG d   1       1.041  90.891 118.205  0.00  0.00    -0.090 HD
ENDBRANCH   5  18
BRANCH   3  22
ATOM     22  C   LIG d   1      -1.591  95.485 118.165  0.00  0.00     0.382 C 
ATOM     23  O   LIG d   1      -2.493  96.092 118.790  0.00  0.00    -0.241 OA
ATOM     24  O   LIG d   1      -0.767  96.133 117.493  0.00  0.00    -0.241 OA
ENDBRANCH   3  22
TORSDOF 7
ENDMDL
