MODEL 1
REMARK VINA RESULT:      -5.7      0.000      0.000
REMARK  7 active torsions:
REMARK  status: ('A' for Active; 'I' for Inactive)
REMARK    1  A    between atoms: C_2  and  C_3 
REMARK    2  A    between atoms: C_3  and  O_6 
REMARK    3  A    between atoms: C_3  and  C_4 
REMARK    4  A    between atoms: C_7  and  O_6 
REMARK    5  A    between atoms: C_9  and  C_10 
REMARK    6  A    between atoms: N_15  and  C_14 
REMARK    7  A    between atoms: N_20  and  C_19 
REMARK       I    between atoms: C_22  and  N_20 
ROOT
ATOM      1  C   LIG d   1      -4.486  92.197 117.682  0.00  0.00     0.161 C 
ATOM      2  C   LIG d   1      -4.896  91.358 116.633  0.00  0.00     0.016 C 
ATOM      3  C   LIG d   1      -5.938  91.686 115.736  0.00  0.00     0.038 C 
ATOM      4  C   LIG d   1      -6.545  92.951 115.734  0.00  0.00     0.028 C 
ATOM      5  C   LIG d   1      -6.512  93.640 117.094  0.00  0.00    -0.047 C 
ATOM      6  C   LIG d   1      -5.061  93.628 117.627  0.00  0.00     0.091 C 
ENDROOT
BRANCH   1   7
ATOM      7  O   LIG d   1      -3.046  92.237 117.741  0.00  0.00    -0.368 OA
BRANCH   7   8
ATOM      8  C   LIG d   1      -2.389  91.000 118.108  0.00  0.00     0.119 C 
BRANCH   8   9
ATOM      9  C   LIG d   1      -2.549  90.824 119.631  0.00  0.00     0.028 C 
ATOM     10  C   LIG d   1      -3.204  89.482 120.001  0.00  0.00     0.006 C 
ENDBRANCH   8   9
BRANCH   8  11
ATOM     11  C   LIG d   1      -0.879  91.078 117.865  0.00  0.00     0.028 C 
ATOM     12  C   LIG d   1      -0.378  92.519 117.684  0.00  0.00     0.006 C 
ENDBRANCH   8  11
ENDBRANCH   7   8
ENDBRANCH   1   7
BRANCH   6  13
ATOM     13  N   LIG d   1      -4.953  94.209 118.991  0.00  0.00    -0.311 N 
ATOM     14  C   LIG d   1      -4.026  95.100 119.337  0.00  0.00     0.210 C 
ATOM     15  C   LIG d   1      -4.080  95.554 120.799  0.00  0.00     0.109 C 
ATOM     16  O   LIG d   1      -3.184  95.582 118.565  0.00  0.00    -0.276 OA
ATOM     17  H   LIG d   1      -5.617  93.897 119.673  0.00  0.00     0.149 HD
ENDBRANCH   6  13
BRANCH   5  18
ATOM     18  N   LIG d   1      -7.052  95.001 116.917  0.00  0.00     0.381 N 
ATOM     19  H   LIG d   1      -6.333  95.676 117.089  0.00  0.00    -0.090 HD
ATOM     20  H   LIG d   1      -7.789  95.148 117.584  0.00  0.00    -0.090 HD
ATOM     21  H   LIG d   1      -7.405  95.110 115.992  0.00  0.00    -0.090 HD
ENDBRANCH   5  18
BRANCH   3  22
ATOM     22  C   LIG d   1      -6.412  90.727 114.853  0.00  0.00     0.382 C 
ATOM     23  O   LIG d   1      -5.760  89.672 114.664  0.00  0.00    -0.241 OA
ATOM     24  O   LIG d   1      -7.460  90.924 114.209  0.00  0.00    -0.241 OA
ENDBRANCH   3  22
TORSDOF 7
ENDMDL
MODEL 2
REMARK VINA RESULT:      -5.5      2.281      4.900
REMARK  7 active torsions:
REMARK  status: ('A' for Active; 'I' for Inactive)
REMARK    1  A    between atoms: C_2  and  C_3 
REMARK    2  A    between atoms: C_3  and  O_6 
REMARK    3  A    between atoms: C_3  and  C_4 
REMARK    4  A    between atoms: C_7  and  O_6 
REMARK    5  A    between atoms: C_9  and  C_10 
REMARK    6  A    between atoms: N_15  and  C_14 
REMARK    7  A    between atoms: N_20  and  C_19 
REMARK       I    between atoms: C_22  and  N_20 
ROOT
ATOM      1  C   LIG d   1      -5.005  93.688 118.119  0.00  0.00     0.161 C 
ATOM      2  C   LIG d   1      -5.385  94.904 118.713  0.00  0.00     0.016 C 
ATOM      3  C   LIG d   1      -6.601  95.564 118.424  0.00  0.00     0.038 C 
ATOM      4  C   LIG d   1      -7.595  94.973 117.630  0.00  0.00     0.028 C 
ATOM      5  C   LIG d   1      -7.046  93.982 116.610  0.00  0.00    -0.047 C 
ATOM      6  C   LIG d   1      -6.126  92.974 117.335  0.00  0.00     0.091 C 
ENDROOT
BRANCH   1   7
ATOM      7  O   LIG d   1      -4.453  92.808 119.118  0.00  0.00    -0.368 OA
BRANCH   7   8
ATOM      8  C   LIG d   1      -3.008  92.717 119.158  0.00  0.00     0.119 C 
BRANCH   8   9
ATOM      9  C   LIG d   1      -2.463  93.444 117.913  0.00  0.00     0.028 C 
ATOM     10  C   LIG d   1      -0.928  93.540 117.915  0.00  0.00     0.006 C 
ENDBRANCH   8   9
BRANCH   8  11
ATOM     11  C   LIG d   1      -2.537  91.266 119.019  0.00  0.00     0.028 C 
ATOM     12  C   LIG d   1      -3.692  90.256 119.087  0.00  0.00     0.006 C 
ENDBRANCH   8  11
ENDBRANCH   7   8
ENDBRANCH   1   7
BRANCH   6  13
ATOM     13  N   LIG d   1      -5.479  92.020 116.396  0.00  0.00    -0.311 N 
ATOM     14  C   LIG d   1      -5.952  90.799 116.151  0.00  0.00     0.210 C 
ATOM     15  C   LIG d   1      -5.123  89.970 115.165  0.00  0.00     0.109 C 
ATOM     16  O   LIG d   1      -6.998  90.336 116.631  0.00  0.00    -0.276 OA
ATOM     17  H   LIG d   1      -4.643  92.325 115.939  0.00  0.00     0.149 HD
ENDBRANCH   6  13
BRANCH   5  18
ATOM     18  N   LIG d   1      -8.197  93.341 115.946  0.00  0.00     0.381 N 
ATOM     19  H   LIG d   1      -8.089  93.394 114.953  0.00  0.00    -0.090 HD
ATOM     20  H   LIG d   1      -9.035  93.835 116.199  0.00  0.00    -0.090 HD
ATOM     21  H   LIG d   1      -8.266  92.388 116.229  0.00  0.00    -0.090 HD
ENDBRANCH   5  18
BRANCH   3  22
ATOM     22  C   LIG d   1      -6.816  96.848 118.901  0.00  0.00     0.382 C 
ATOM     23  O   LIG d   1      -5.937  97.415 119.594  0.00  0.00    -0.241 OA
ATOM     24  O   LIG d   1      -7.896  97.430 118.685  0.00  0.00    -0.241 OA
ENDBRANCH   3  22
TORSDOF 7
ENDMDL
MODEL 3
REMARK VINA RESULT:      -5.4      2.426      4.781
REMARK  7 active torsions:
REMARK  status: ('A' for Active; 'I' for Inactive)
REMARK    1  A    between atoms: C_2  and  C_3 
REMARK    2  A    between atoms: C_3  and  O_6 
REMARK    3  A    between atoms: C_3  and  C_4 
REMARK    4  A    between atoms: C_7  and  O_6 
REMARK    5  A    between atoms: C_9  and  C_10 
REMARK    6  A    between atoms: N_15  and  C_14 
REMARK    7  A    between atoms: N_20  and  C_19 
REMARK       I    between atoms: C_22  and  N_20 
ROOT
ATOM      1  C   LIG d   1      -6.361  93.495 117.713  0.00  0.00     0.161 C 
ATOM      2  C   LIG d   1      -6.943  92.377 117.093  0.00  0.00     0.016 C 
ATOM      3  C   LIG d   1      -6.199  91.260 116.648  0.00  0.00     0.038 C 
ATOM      4  C   LIG d   1      -4.832  91.118 116.931  0.00  0.00     0.028 C 
ATOM      5  C   LIG d   1      -4.110  92.449 117.108  0.00  0.00    -0.047 C 
ATOM      6  C   LIG d   1      -4.887  93.310 118.130  0.00  0.00     0.091 C 
ENDROOT
BRANCH   1   7
ATOM      7  O   LIG d   1      -7.157  93.893 118.848  0.00  0.00    -0.368 OA
BRANCH   7   8
ATOM      8  C   LIG d   1      -8.152  94.916 118.601  0.00  0.00     0.119 C 
BRANCH   8   9
ATOM      9  C   LIG d   1      -7.427  96.128 117.984  0.00  0.00     0.028 C 
ATOM     10  C   LIG d   1      -6.927  97.118 119.049  0.00  0.00     0.006 C 
ENDBRANCH   8   9
BRANCH   8  11
ATOM     11  C   LIG d   1      -8.760  95.430 119.909  0.00  0.00     0.028 C 
ATOM     12  C   LIG d   1      -9.895  94.536 120.431  0.00  0.00     0.006 C 
ENDBRANCH   8  11
ENDBRANCH   7   8
ENDBRANCH   1   7
BRANCH   6  13
ATOM     13  N   LIG d   1      -4.295  94.662 118.300  0.00  0.00    -0.311 N 
ATOM     14  C   LIG d   1      -3.440  94.972 119.273  0.00  0.00     0.210 C 
ATOM     15  C   LIG d   1      -2.965  96.428 119.278  0.00  0.00     0.109 C 
ATOM     16  O   LIG d   1      -3.006  94.170 120.114  0.00  0.00    -0.276 OA
ATOM     17  H   LIG d   1      -4.568  95.366 117.642  0.00  0.00     0.149 HD
ENDBRANCH   6  13
BRANCH   5  18
ATOM     18  N   LIG d   1      -2.729  92.153 117.533  0.00  0.00     0.381 N 
ATOM     19  H   LIG d   1      -2.081  92.585 116.905  0.00  0.00    -0.090 HD
ATOM     20  H   LIG d   1      -2.585  91.160 117.502  0.00  0.00    -0.090 HD
ATOM     21  H   LIG d   1      -2.578  92.489 118.459  0.00  0.00    -0.090 HD
ENDBRANCH   5  18
BRANCH   3  22
ATOM     22  C   LIG d   1      -6.816  90.287 115.876  0.00  0.00     0.382 C 
ATOM     23  O   LIG d   1      -6.396  90.045 114.719  0.00  0.00    -0.241 OA
ATOM     24  O   LIG d   1      -7.815  89.679 116.305  0.00  0.00    -0.241 OA
ENDBRANCH   3  22
TORSDOF 7
ENDMDL
MODEL 4
REMARK VINA RESULT:      -5.3      1.999      2.525
REMARK  7 active torsions:
REMARK  status: ('A' for Active; 'I' for Inactive)
REMARK    1  A    between atoms: C_2  and  C_3 
REMARK    2  A    between atoms: C_3  and  O_6 
REMARK    3  A    between atoms: C_3  and  C_4 
REMARK    4  A    between atoms: C_7  and  O_6 
REMARK    5  A    between atoms: C_9  and  C_10 
REMARK    6  A    between atoms: N_15  and  C_14 
REMARK    7  A    between atoms: N_20  and  C_19 
REMARK       I    between atoms: C_22  and  N_20 
ROOT
ATOM      1  C   LIG d   1      -5.775  92.507 118.195  0.00  0.00     0.161 C 
ATOM      2  C   LIG d   1      -5.439  91.520 117.254  0.00  0.00     0.016 C 
ATOM      3  C   LIG d   1      -6.079  91.390 116.000  0.00  0.00     0.038 C 
ATOM      4  C   LIG d   1      -7.001  92.340 115.536  0.00  0.00     0.028 C 
ATOM      5  C   LIG d   1      -7.737  93.066 116.657  0.00  0.00    -0.047 C 
ATOM      6  C   LIG d   1      -6.701  93.620 117.662  0.00  0.00     0.091 C 
ENDROOT
BRANCH   1   7
ATOM      7  O   LIG d   1      -4.575  93.079 118.753  0.00  0.00    -0.368 OA
BRANCH   7   8
ATOM      8  C   LIG d   1      -3.340  92.769 118.061  0.00  0.00     0.119 C 
BRANCH   8   9
ATOM      9  C   LIG d   1      -2.445  91.985 119.041  0.00  0.00     0.028 C 
ATOM     10  C   LIG d   1      -1.459  91.053 118.318  0.00  0.00     0.006 C 
ENDBRANCH   8   9
BRANCH   8  11
ATOM     11  C   LIG d   1      -2.556  94.040 117.724  0.00  0.00     0.028 C 
ATOM     12  C   LIG d   1      -2.968  95.242 118.589  0.00  0.00     0.006 C 
ENDBRANCH   8  11
ENDBRANCH   7   8
ENDBRANCH   1   7
BRANCH   6  13
ATOM     13  N   LIG d   1      -7.341  94.273 118.834  0.00  0.00    -0.311 N 
ATOM     14  C   LIG d   1      -7.704  95.554 118.852  0.00  0.00     0.210 C 
ATOM     15  C   LIG d   1      -8.328  96.031 120.167  0.00  0.00     0.109 C 
ATOM     16  O   LIG d   1      -7.598  96.333 117.893  0.00  0.00    -0.276 OA
ATOM     17  H   LIG d   1      -7.493  93.705 119.645  0.00  0.00     0.149 HD
ENDBRANCH   6  13
BRANCH   5  18
ATOM     18  N   LIG d   1      -8.563  94.120 116.038  0.00  0.00     0.381 N 
ATOM     19  H   LIG d   1      -9.017  93.760 115.223  0.00  0.00    -0.090 HD
ATOM     20  H   LIG d   1      -7.966  94.878 115.757  0.00  0.00    -0.090 HD
ATOM     21  H   LIG d   1      -9.243  94.447 116.689  0.00  0.00    -0.090 HD
ENDBRANCH   5  18
BRANCH   3  22
ATOM     22  C   LIG d   1      -5.826  90.278 115.211  0.00  0.00     0.382 C 
ATOM     23  O   LIG d   1      -6.691  89.878 114.395  0.00  0.00    -0.241 OA
ATOM     24  O   LIG d   1      -4.762  89.643 115.336  0.00  0.00    -0.241 OA
ENDBRANCH   3  22
TORSDOF 7
ENDMDL
MODEL 5
REMARK VINA RESULT:      -5.3      1.660      4.954
REMARK  7 active torsions:
REMARK  status: ('A' for Active; 'I' for Inactive)
REMARK    1  A    between atoms: C_2  and  C_3 
REMARK    2  A    between atoms: C_3  and  O_6 
REMARK    3  A    between atoms: C_3  and  C_4 
REMARK    4  A    between atoms: C_7  and  O_6 
REMARK    5  A    between atoms: C_9  and  C_10 
REMARK    6  A    between atoms: N_15  and  C_14 
REMARK    7  A    between atoms: N_20  and  C_19 
REMARK       I    between atoms: C_22  and  N_20 
ROOT
ATOM      1  C   LIG d   1      -4.028  92.841 117.319  0.00  0.00     0.161 C 
ATOM      2  C   LIG d   1      -3.476  93.859 118.114  0.00  0.00     0.016 C 
ATOM      3  C   LIG d   1      -4.255  94.807 118.816  0.00  0.00     0.038 C 
ATOM      4  C   LIG d   1      -5.652  94.707 118.893  0.00  0.00     0.028 C 
ATOM      5  C   LIG d   1      -6.276  93.996 117.697  0.00  0.00    -0.047 C 
ATOM      6  C   LIG d   1      -5.551  92.648 117.481  0.00  0.00     0.091 C 
ENDROOT
BRANCH   1   7
ATOM      7  O   LIG d   1      -3.337  91.600 117.566  0.00  0.00    -0.368 OA
BRANCH   7   8
ATOM      8  C   LIG d   1      -2.686  91.478 118.854  0.00  0.00     0.119 C 
BRANCH   8   9
ATOM      9  C   LIG d   1      -1.344  90.756 118.628  0.00  0.00     0.028 C 
ATOM     10  C   LIG d   1      -0.486  91.437 117.548  0.00  0.00     0.006 C 
ENDBRANCH   8   9
BRANCH   8  11
ATOM     11  C   LIG d   1      -3.482  90.569 119.796  0.00  0.00     0.028 C 
ATOM     12  C   LIG d   1      -4.321  91.356 120.815  0.00  0.00     0.006 C 
ENDBRANCH   8  11
ENDBRANCH   7   8
ENDBRANCH   1   7
BRANCH   6  13
ATOM     13  N   LIG d   1      -6.043  91.926 116.279  0.00  0.00    -0.311 N 
ATOM     14  C   LIG d   1      -6.915  90.921 116.333  0.00  0.00     0.210 C 
ATOM     15  C   LIG d   1      -7.274  90.303 114.978  0.00  0.00     0.109 C 
ATOM     16  O   LIG d   1      -7.449  90.503 117.371  0.00  0.00    -0.276 OA
ATOM     17  H   LIG d   1      -5.685  92.221 115.391  0.00  0.00     0.149 HD
ENDBRANCH   6  13
BRANCH   5  18
ATOM     18  N   LIG d   1      -7.716  93.840 117.973  0.00  0.00     0.381 N 
ATOM     19  H   LIG d   1      -8.172  94.728 117.906  0.00  0.00    -0.090 HD
ATOM     20  H   LIG d   1      -7.833  93.495 118.909  0.00  0.00    -0.090 HD
ATOM     21  H   LIG d   1      -8.121  93.202 117.323  0.00  0.00    -0.090 HD
ENDBRANCH   5  18
BRANCH   3  22
ATOM     22  C   LIG d   1      -3.638  95.893 119.418  0.00  0.00     0.382 C 
ATOM     23  O   LIG d   1      -4.243  96.988 119.506  0.00  0.00    -0.241 OA
ATOM     24  O   LIG d   1      -2.467  95.803 119.835  0.00  0.00    -0.241 OA
ENDBRANCH   3  22
TORSDOF 7
ENDMDL
MODEL 6
REMARK VINA RESULT:      -5.2      2.373      4.228
REMARK  7 active torsions:
REMARK  status: ('A' for Active; 'I' for Inactive)
REMARK    1  A    between atoms: C_2  and  C_3 
REMARK    2  A    between atoms: C_3  and  O_6 
REMARK    3  A    between atoms: C_3  and  C_4 
REMARK    4  A    between atoms: C_7  and  O_6 
REMARK    5  A    between atoms: C_9  and  C_10 
REMARK    6  A    between atoms: N_15  and  C_14 
REMARK    7  A    between atoms: N_20  and  C_19 
REMARK       I    between atoms: C_22  and  N_20 
ROOT
ATOM      1  C   LIG d   1      -4.943  93.427 117.237  0.00  0.00     0.161 C 
ATOM      2  C   LIG d   1      -5.807  92.482 116.659  0.00  0.00     0.016 C 
ATOM      3  C   LIG d   1      -5.478  91.115 116.512  0.00  0.00     0.038 C 
ATOM      4  C   LIG d   1      -4.316  90.567 117.074  0.00  0.00     0.028 C 
ATOM      5  C   LIG d   1      -3.182  91.576 117.223  0.00  0.00    -0.047 C 
ATOM      6  C   LIG d   1      -3.717  92.828 117.956  0.00  0.00     0.091 C 
ENDROOT
BRANCH   1   7
ATOM      7  O   LIG d   1      -5.682  94.281 118.133  0.00  0.00    -0.368 OA
BRANCH   7   8
ATOM      8  C   LIG d   1      -6.907  93.728 118.674  0.00  0.00     0.119 C 
BRANCH   8   9
ATOM      9  C   LIG d   1      -8.012  94.787 118.492  0.00  0.00     0.028 C 
ATOM     10  C   LIG d   1      -8.879  94.953 119.752  0.00  0.00     0.006 C 
ENDBRANCH   8   9
BRANCH   8  11
ATOM     11  C   LIG d   1      -6.800  93.509 120.186  0.00  0.00     0.028 C 
ATOM     12  C   LIG d   1      -6.037  92.225 120.549  0.00  0.00     0.006 C 
ENDBRANCH   8  11
ENDBRANCH   7   8
ENDBRANCH   1   7
BRANCH   6  13
ATOM     13  N   LIG d   1      -2.693  93.899 118.069  0.00  0.00    -0.311 N 
ATOM     14  C   LIG d   1      -1.883  94.031 119.118  0.00  0.00     0.210 C 
ATOM     15  C   LIG d   1      -0.915  95.216 119.042  0.00  0.00     0.109 C 
ATOM     16  O   LIG d   1      -1.852  93.260 120.089  0.00  0.00    -0.276 OA
ATOM     17  H   LIG d   1      -2.629  94.550 117.311  0.00  0.00     0.149 HD
ENDBRANCH   6  13
BRANCH   5  18
ATOM     18  N   LIG d   1      -2.083  90.908 117.947  0.00  0.00     0.381 N 
ATOM     19  H   LIG d   1      -1.473  90.458 117.294  0.00  0.00    -0.090 HD
ATOM     20  H   LIG d   1      -2.472  90.205 118.551  0.00  0.00    -0.090 HD
ATOM     21  H   LIG d   1      -1.574  91.574 118.484  0.00  0.00    -0.090 HD
ENDBRANCH   5  18
BRANCH   3  22
ATOM     22  C   LIG d   1      -6.299  90.288 115.760  0.00  0.00     0.382 C 
ATOM     23  O   LIG d   1      -7.402  89.910 116.225  0.00  0.00    -0.241 OA
ATOM     24  O   LIG d   1      -5.932  89.879 114.643  0.00  0.00    -0.241 OA
ENDBRANCH   3  22
TORSDOF 7
ENDMDL
MODEL 7
REMARK VINA RESULT:      -5.2      2.406      4.254
REMARK  7 active torsions:
REMARK  status: ('A' for Active; 'I' for Inactive)
REMARK    1  A    between atoms: C_2  and  C_3 
REMARK    2  A    between atoms: C_3  and  O_6 
REMARK    3  A    between atoms: C_3  and  C_4 
REMARK    4  A    between atoms: C_7  and  O_6 
REMARK    5  A    between atoms: C_9  and  C_10 
REMARK    6  A    between atoms: N_15  and  C_14 
REMARK    7  A    between atoms: N_20  and  C_19 
REMARK       I    between atoms: C_22  and  N_20 
ROOT
ATOM      1  C   LIG d   1      -4.545  93.433 118.129  0.00  0.00     0.161 C 
ATOM      2  C   LIG d   1      -5.856  93.931 118.062  0.00  0.00     0.016 C 
ATOM      3  C   LIG d   1      -6.883  93.318 117.307  0.00  0.00     0.038 C 
ATOM      4  C   LIG d   1      -6.705  92.072 116.687  0.00  0.00     0.028 C 
ATOM      5  C   LIG d   1      -5.256  91.785 116.310  0.00  0.00    -0.047 C 
ATOM      6  C   LIG d   1      -4.360  92.015 117.549  0.00  0.00     0.091 C 
ENDROOT
BRANCH   1   7
ATOM      7  O   LIG d   1      -4.073  93.482 119.491  0.00  0.00    -0.368 OA
BRANCH   7   8
ATOM      8  C   LIG d   1      -3.087  94.502 119.787  0.00  0.00     0.119 C 
BRANCH   8   9
ATOM      9  C   LIG d   1      -3.840  95.727 120.341  0.00  0.00     0.028 C 
ATOM     10  C   LIG d   1      -2.901  96.909 120.636  0.00  0.00     0.006 C 
ENDBRANCH   8   9
BRANCH   8  11
ATOM     11  C   LIG d   1      -2.394  94.994 118.513  0.00  0.00     0.028 C 
ATOM     12  C   LIG d   1      -0.896  94.654 118.480  0.00  0.00     0.006 C 
ENDBRANCH   8  11
ENDBRANCH   7   8
ENDBRANCH   1   7
BRANCH   6  13
ATOM     13  N   LIG d   1      -2.916  91.837 117.246  0.00  0.00    -0.311 N 
ATOM     14  C   LIG d   1      -2.099  91.088 117.984  0.00  0.00     0.210 C 
ATOM     15  C   LIG d   1      -0.644  91.056 117.507  0.00  0.00     0.109 C 
ATOM     16  O   LIG d   1      -2.448  90.420 118.969  0.00  0.00    -0.276 OA
ATOM     17  H   LIG d   1      -2.556  92.318 116.445  0.00  0.00     0.149 HD
ENDBRANCH   6  13
BRANCH   5  18
ATOM     18  N   LIG d   1      -5.193  90.403 115.800  0.00  0.00     0.381 N 
ATOM     19  H   LIG d   1      -4.397  89.935 116.185  0.00  0.00    -0.090 HD
ATOM     20  H   LIG d   1      -5.091  90.429 114.801  0.00  0.00    -0.090 HD
ATOM     21  H   LIG d   1      -6.025  89.912 116.043  0.00  0.00    -0.090 HD
ENDBRANCH   5  18
BRANCH   3  22
ATOM     22  C   LIG d   1      -8.094  93.972 117.135  0.00  0.00     0.382 C 
ATOM     23  O   LIG d   1      -8.671  93.940 116.022  0.00  0.00    -0.241 OA
ATOM     24  O   LIG d   1      -8.593  94.632 118.066  0.00  0.00    -0.241 OA
ENDBRANCH   3  22
TORSDOF 7
ENDMDL
MODEL 8
REMARK VINA RESULT:      -5.1      1.811      2.504
REMARK  7 active torsions:
REMARK  status: ('A' for Active; 'I' for Inactive)
REMARK    1  A    between atoms: C_2  and  C_3 
REMARK    2  A    between atoms: C_3  and  O_6 
REMARK    3  A    between atoms: C_3  and  C_4 
REMARK    4  A    between atoms: C_7  and  O_6 
REMARK    5  A    between atoms: C_9  and  C_10 
REMARK    6  A    between atoms: N_15  and  C_14 
REMARK    7  A    between atoms: N_20  and  C_19 
REMARK       I    between atoms: C_22  and  N_20 
ROOT
ATOM      1  C   LIG d   1      -4.962  92.832 117.492  0.00  0.00     0.161 C 
ATOM      2  C   LIG d   1      -4.988  91.751 116.595  0.00  0.00     0.016 C 
ATOM      3  C   LIG d   1      -6.061  91.500 115.710  0.00  0.00     0.038 C 
ATOM      4  C   LIG d   1      -7.120  92.406 115.553  0.00  0.00     0.028 C 
ATOM      5  C   LIG d   1      -7.385  93.249 116.796  0.00  0.00    -0.047 C 
ATOM      6  C   LIG d   1      -6.058  93.893 117.257  0.00  0.00     0.091 C 
ENDROOT
BRANCH   1   7
ATOM      7  O   LIG d   1      -3.658  93.447 117.479  0.00  0.00    -0.368 OA
BRANCH   7   8
ATOM      8  C   LIG d   1      -2.810  93.167 118.619  0.00  0.00     0.119 C 
BRANCH   8   9
ATOM      9  C   LIG d   1      -1.949  94.419 118.874  0.00  0.00     0.028 C 
ATOM     10  C   LIG d   1      -2.800  95.673 119.137  0.00  0.00     0.006 C 
ENDBRANCH   8   9
BRANCH   8  11
ATOM     11  C   LIG d   1      -1.813  92.046 118.309  0.00  0.00     0.028 C 
ATOM     12  C   LIG d   1      -2.174  90.721 118.999  0.00  0.00     0.006 C 
ENDBRANCH   8  11
ENDBRANCH   7   8
ENDBRANCH   1   7
BRANCH   6  13
ATOM     13  N   LIG d   1      -6.211  94.667 118.517  0.00  0.00    -0.311 N 
ATOM     14  C   LIG d   1      -6.998  94.284 119.521  0.00  0.00     0.210 C 
ATOM     15  C   LIG d   1      -7.026  95.238 120.720  0.00  0.00     0.109 C 
ATOM     16  O   LIG d   1      -7.649  93.229 119.547  0.00  0.00    -0.276 OA
ATOM     17  H   LIG d   1      -5.694  95.521 118.593  0.00  0.00     0.149 HD
ENDBRANCH   6  13
BRANCH   5  18
ATOM     18  N   LIG d   1      -8.420  94.241 116.449  0.00  0.00     0.381 N 
ATOM     19  H   LIG d   1      -8.896  94.537 117.278  0.00  0.00    -0.090 HD
ATOM     20  H   LIG d   1      -9.090  93.811 115.837  0.00  0.00    -0.090 HD
ATOM     21  H   LIG d   1      -8.002  95.026 115.999  0.00  0.00    -0.090 HD
ENDBRANCH   5  18
BRANCH   3  22
ATOM     22  C   LIG d   1      -6.100  90.311 114.997  0.00  0.00     0.382 C 
ATOM     23  O   LIG d   1      -5.079  89.584 114.935  0.00  0.00    -0.241 OA
ATOM     24  O   LIG d   1      -7.129  89.978 114.379  0.00  0.00    -0.241 OA
ENDBRANCH   3  22
TORSDOF 7
ENDMDL
MODEL 9
REMARK VINA RESULT:      -5.0      2.679      4.670
REMARK  7 active torsions:
REMARK  status: ('A' for Active; 'I' for Inactive)
REMARK    1  A    between atoms: C_2  and  C_3 
REMARK    2  A    between atoms: C_3  and  O_6 
REMARK    3  A    between atoms: C_3  and  C_4 
REMARK    4  A    between atoms: C_7  and  O_6 
REMARK    5  A    between atoms: C_9  and  C_10 
REMARK    6  A    between atoms: N_15  and  C_14 
REMARK    7  A    between atoms: N_20  and  C_19 
REMARK       I    between atoms: C_22  and  N_20 
ROOT
ATOM      1  C   LIG d   1      -5.685  92.748 119.254  0.00  0.00     0.161 C 
ATOM      2  C   LIG d   1      -6.985  93.276 119.332  0.00  0.00     0.016 C 
ATOM      3  C   LIG d   1      -7.269  94.659 119.260  0.00  0.00     0.038 C 
ATOM      4  C   LIG d   1      -6.280  95.604 118.951  0.00  0.00     0.028 C 
ATOM      5  C   LIG d   1      -4.878  95.170 119.364  0.00  0.00    -0.047 C 
ATOM      6  C   LIG d   1      -4.605  93.755 118.805  0.00  0.00     0.091 C 
ENDROOT
BRANCH   1   7
ATOM      7  O   LIG d   1      -5.679  91.591 118.395  0.00  0.00    -0.368 OA
BRANCH   7   8
ATOM      8  C   LIG d   1      -5.271  91.817 117.023  0.00  0.00     0.119 C 
BRANCH   8   9
ATOM      9  C   LIG d   1      -6.548  91.856 116.161  0.00  0.00     0.028 C 
ATOM     10  C   LIG d   1      -6.839  93.261 115.606  0.00  0.00     0.006 C 
ENDBRANCH   8   9
BRANCH   8  11
ATOM     11  C   LIG d   1      -4.454  90.640 116.483  0.00  0.00     0.028 C 
ATOM     12  C   LIG d   1      -5.125  89.948 115.286  0.00  0.00     0.006 C 
ENDBRANCH   8  11
ENDBRANCH   7   8
ENDBRANCH   1   7
BRANCH   6  13
ATOM     13  N   LIG d   1      -3.286  93.220 119.234  0.00  0.00    -0.311 N 
ATOM     14  C   LIG d   1      -2.168  93.376 118.528  0.00  0.00     0.210 C 
ATOM     15  C   LIG d   1      -0.921  92.729 119.141  0.00  0.00     0.109 C 
ATOM     16  O   LIG d   1      -2.082  94.017 117.470  0.00  0.00    -0.276 OA
ATOM     17  H   LIG d   1      -3.258  92.714 120.097  0.00  0.00     0.149 HD
ENDBRANCH   6  13
BRANCH   5  18
ATOM     18  N   LIG d   1      -3.931  96.183 118.860  0.00  0.00     0.381 N 
ATOM     19  H   LIG d   1      -4.345  96.684 118.100  0.00  0.00    -0.090 HD
ATOM     20  H   LIG d   1      -3.108  95.718 118.521  0.00  0.00    -0.090 HD
ATOM     21  H   LIG d   1      -3.687  96.815 119.591  0.00  0.00    -0.090 HD
ENDBRANCH   5  18
BRANCH   3  22
ATOM     22  C   LIG d   1      -8.550  95.112 119.539  0.00  0.00     0.382 C 
ATOM     23  O   LIG d   1      -8.718  96.260 120.017  0.00  0.00    -0.241 OA
ATOM     24  O   LIG d   1      -9.535  94.372 119.359  0.00  0.00    -0.241 OA
ENDBRANCH   3  22
TORSDOF 7
ENDMDL
