MODEL 1
REMARK VINA RESULT:      -5.3      0.000      0.000
REMARK  7 active torsions:
REMARK  status: ('A' for Active; 'I' for Inactive)
REMARK    1  A    between atoms: C_2  and  C_3 
REMARK    2  A    between atoms: C_3  and  O_6 
REMARK    3  A    between atoms: C_3  and  C_4 
REMARK    4  A    between atoms: C_7  and  O_6 
REMARK    5  A    between atoms: C_9  and  C_10 
REMARK    6  A    between atoms: N_15  and  C_14 
REMARK    7  A    between atoms: N_20  and  C_19 
REMARK       I    between atoms: C_22  and  N_20 
ROOT
ATOM      1  C   LIG d   1      -5.847  93.540 117.636  0.00  0.00     0.161 C 
ATOM      2  C   LIG d   1      -6.740  92.696 116.955  0.00  0.00     0.016 C 
ATOM      3  C   LIG d   1      -6.365  91.448 116.406  0.00  0.00     0.038 C 
ATOM      4  C   LIG d   1      -5.099  90.888 116.634  0.00  0.00     0.028 C 
ATOM      5  C   LIG d   1      -4.013  91.928 116.885  0.00  0.00    -0.047 C 
ATOM      6  C   LIG d   1      -4.491  92.896 117.991  0.00  0.00     0.091 C 
ENDROOT
BRANCH   1   7
ATOM      7  O   LIG d   1      -6.478  94.064 118.821  0.00  0.00    -0.368 OA
BRANCH   7   8
ATOM      8  C   LIG d   1      -6.663  95.501 118.862  0.00  0.00     0.119 C 
BRANCH   8   9
ATOM      9  C   LIG d   1      -5.764  96.051 119.986  0.00  0.00     0.028 C 
ATOM     10  C   LIG d   1      -4.876  97.213 119.511  0.00  0.00     0.006 C 
ENDBRANCH   8   9
BRANCH   8  11
ATOM     11  C   LIG d   1      -8.093  95.867 119.271  0.00  0.00     0.028 C 
ATOM     12  C   LIG d   1      -8.269  95.975 120.794  0.00  0.00     0.006 C 
ENDBRANCH   8  11
ENDBRANCH   7   8
ENDBRANCH   1   7
BRANCH   6  13
ATOM     13  N   LIG d   1      -3.522  93.995 118.239  0.00  0.00    -0.311 N 
ATOM     14  C   LIG d   1      -2.600  93.956 119.200  0.00  0.00     0.210 C 
ATOM     15  C   LIG d   1      -1.715  95.203 119.297  0.00  0.00     0.109 C 
ATOM     16  O   LIG d   1      -2.410  92.995 119.959  0.00  0.00    -0.276 OA
ATOM     17  H   LIG d   1      -3.585  94.801 117.649  0.00  0.00     0.149 HD
ENDBRANCH   6  13
BRANCH   5  18
ATOM     18  N   LIG d   1      -2.778  91.205 117.243  0.00  0.00     0.381 N 
ATOM     19  H   LIG d   1      -1.993  91.633 116.795  0.00  0.00    -0.090 HD
ATOM     20  H   LIG d   1      -2.850  90.257 116.916  0.00  0.00    -0.090 HD
ATOM     21  H   LIG d   1      -2.652  91.214 118.231  0.00  0.00    -0.090 HD
ENDBRANCH   5  18
BRANCH   3  22
ATOM     22  C   LIG d   1      -7.249  90.765 115.585  0.00  0.00     0.382 C 
ATOM     23  O   LIG d   1      -7.102  89.534 115.391  0.00  0.00    -0.241 OA
ATOM     24  O   LIG d   1      -8.166  91.372 115.000  0.00  0.00    -0.241 OA
ENDBRANCH   3  22
TORSDOF 7
ENDMDL
MODEL 2
REMARK VINA RESULT:      -5.1      2.310      4.715
REMARK  7 active torsions:
REMARK  status: ('A' for Active; 'I' for Inactive)
REMARK    1  A    between atoms: C_2  and  C_3 
REMARK    2  A    between atoms: C_3  and  O_6 
REMARK    3  A    between atoms: C_3  and  C_4 
REMARK    4  A    between atoms: C_7  and  O_6 
REMARK    5  A    between atoms: C_9  and  C_10 
REMARK    6  A    between atoms: N_15  and  C_14 
REMARK    7  A    between atoms: N_20  and  C_19 
REMARK       I    between atoms: C_22  and  N_20 
ROOT
ATOM      1  C   LIG d   1      -4.065  91.556 117.580  0.00  0.00     0.161 C 
ATOM      2  C   LIG d   1      -4.827  90.914 116.589  0.00  0.00     0.016 C 
ATOM      3  C   LIG d   1      -6.069  91.404 116.124  0.00  0.00     0.038 C 
ATOM      4  C   LIG d   1      -6.564  92.657 116.513  0.00  0.00     0.028 C 
ATOM      5  C   LIG d   1      -6.076  93.102 117.887  0.00  0.00    -0.047 C 
ATOM      6  C   LIG d   1      -4.535  92.982 117.935  0.00  0.00     0.091 C 
ENDROOT
BRANCH   1   7
ATOM      7  O   LIG d   1      -2.675  91.568 117.196  0.00  0.00    -0.368 OA
BRANCH   7   8
ATOM      8  C   LIG d   1      -1.757  90.913 118.106  0.00  0.00     0.119 C 
BRANCH   8   9
ATOM      9  C   LIG d   1      -0.342  91.044 117.509  0.00  0.00     0.028 C 
ATOM     10  C   LIG d   1       0.144  92.502 117.466  0.00  0.00     0.006 C 
ENDBRANCH   8   9
BRANCH   8  11
ATOM     11  C   LIG d   1      -2.028  89.408 118.183  0.00  0.00     0.028 C 
ATOM     12  C   LIG d   1      -0.767  88.563 117.942  0.00  0.00     0.006 C 
ENDBRANCH   8  11
ENDBRANCH   7   8
ENDBRANCH   1   7
BRANCH   6  13
ATOM     13  N   LIG d   1      -3.982  93.317 119.273  0.00  0.00    -0.311 N 
ATOM     14  C   LIG d   1      -2.965  94.158 119.457  0.00  0.00     0.210 C 
ATOM     15  C   LIG d   1      -2.539  94.348 120.916  0.00  0.00     0.109 C 
ATOM     16  O   LIG d   1      -2.397  94.788 118.552  0.00  0.00    -0.276 OA
ATOM     17  H   LIG d   1      -4.405  92.874 120.066  0.00  0.00     0.149 HD
ENDBRANCH   6  13
BRANCH   5  18
ATOM     18  N   LIG d   1      -6.555  94.479 118.107  0.00  0.00     0.381 N 
ATOM     19  H   LIG d   1      -6.629  94.660 119.088  0.00  0.00    -0.090 HD
ATOM     20  H   LIG d   1      -7.469  94.574 117.699  0.00  0.00    -0.090 HD
ATOM     21  H   LIG d   1      -5.928  95.130 117.687  0.00  0.00    -0.090 HD
ENDBRANCH   5  18
BRANCH   3  22
ATOM     22  C   LIG d   1      -6.848  90.617 115.289  0.00  0.00     0.382 C 
ATOM     23  O   LIG d   1      -6.383  89.552 114.817  0.00  0.00    -0.241 OA
ATOM     24  O   LIG d   1      -7.995  90.982 114.967  0.00  0.00    -0.241 OA
ENDBRANCH   3  22
TORSDOF 7
ENDMDL
MODEL 3
REMARK VINA RESULT:      -4.7      2.846      6.456
REMARK  7 active torsions:
REMARK  status: ('A' for Active; 'I' for Inactive)
REMARK    1  A    between atoms: C_2  and  C_3 
REMARK    2  A    between atoms: C_3  and  O_6 
REMARK    3  A    between atoms: C_3  and  C_4 
REMARK    4  A    between atoms: C_7  and  O_6 
REMARK    5  A    between atoms: C_9  and  C_10 
REMARK    6  A    between atoms: N_15  and  C_14 
REMARK    7  A    between atoms: N_20  and  C_19 
REMARK       I    between atoms: C_22  and  N_20 
ROOT
ATOM      1  C   LIG d   1      -3.991  91.411 117.353  0.00  0.00     0.161 C 
ATOM      2  C   LIG d   1      -2.920  92.224 117.761  0.00  0.00     0.016 C 
ATOM      3  C   LIG d   1      -3.091  93.474 118.397  0.00  0.00     0.038 C 
ATOM      4  C   LIG d   1      -4.352  93.931 118.808  0.00  0.00     0.028 C 
ATOM      5  C   LIG d   1      -5.499  93.379 117.968  0.00  0.00    -0.047 C 
ATOM      6  C   LIG d   1      -5.371  91.841 117.892  0.00  0.00     0.091 C 
ENDROOT
BRANCH   1   7
ATOM      7  O   LIG d   1      -3.722  90.038 117.701  0.00  0.00    -0.368 OA
BRANCH   7   8
ATOM      8  C   LIG d   1      -2.677  89.822 118.680  0.00  0.00     0.119 C 
BRANCH   8   9
ATOM      9  C   LIG d   1      -1.674  88.822 118.073  0.00  0.00     0.028 C 
ATOM     10  C   LIG d   1      -0.367  89.500 117.628  0.00  0.00     0.006 C 
ENDBRANCH   8   9
BRANCH   8  11
ATOM     11  C   LIG d   1      -3.224  89.136 119.936  0.00  0.00     0.028 C 
ATOM     12  C   LIG d   1      -2.147  88.352 120.703  0.00  0.00     0.006 C 
ENDBRANCH   8  11
ENDBRANCH   7   8
ENDBRANCH   1   7
BRANCH   6  13
ATOM     13  N   LIG d   1      -6.406  91.228 117.019  0.00  0.00    -0.311 N 
ATOM     14  C   LIG d   1      -6.599  91.584 115.750  0.00  0.00     0.210 C 
ATOM     15  C   LIG d   1      -7.731  90.840 115.035  0.00  0.00     0.109 C 
ATOM     16  O   LIG d   1      -5.918  92.421 115.139  0.00  0.00    -0.276 OA
ATOM     17  H   LIG d   1      -6.983  90.518 117.425  0.00  0.00     0.149 HD
ENDBRANCH   6  13
BRANCH   5  18
ATOM     18  N   LIG d   1      -6.761  93.824 118.589  0.00  0.00     0.381 N 
ATOM     19  H   LIG d   1      -7.364  93.039 118.731  0.00  0.00    -0.090 HD
ATOM     20  H   LIG d   1      -7.220  94.467 117.968  0.00  0.00    -0.090 HD
ATOM     21  H   LIG d   1      -6.574  94.270 119.460  0.00  0.00    -0.090 HD
ENDBRANCH   5  18
BRANCH   3  22
ATOM     22  C   LIG d   1      -1.995  94.301 118.593  0.00  0.00     0.382 C 
ATOM     23  O   LIG d   1      -1.393  94.788 117.607  0.00  0.00    -0.241 OA
ATOM     24  O   LIG d   1      -1.575  94.531 119.743  0.00  0.00    -0.241 OA
ENDBRANCH   3  22
TORSDOF 7
ENDMDL
MODEL 4
REMARK VINA RESULT:      -4.6      3.882      6.197
REMARK  7 active torsions:
REMARK  status: ('A' for Active; 'I' for Inactive)
REMARK    1  A    between atoms: C_2  and  C_3 
REMARK    2  A    between atoms: C_3  and  O_6 
REMARK    3  A    between atoms: C_3  and  C_4 
REMARK    4  A    between atoms: C_7  and  O_6 
REMARK    5  A    between atoms: C_9  and  C_10 
REMARK    6  A    between atoms: N_15  and  C_14 
REMARK    7  A    between atoms: N_20  and  C_19 
REMARK       I    between atoms: C_22  and  N_20 
ROOT
ATOM      1  C   LIG d   1      -2.624  90.374 118.886  0.00  0.00     0.161 C 
ATOM      2  C   LIG d   1      -4.009  90.361 118.655  0.00  0.00     0.016 C 
ATOM      3  C   LIG d   1      -4.703  91.419 118.024  0.00  0.00     0.038 C 
ATOM      4  C   LIG d   1      -4.030  92.503 117.441  0.00  0.00     0.028 C 
ATOM      5  C   LIG d   1      -2.685  92.802 118.093  0.00  0.00    -0.047 C 
ATOM      6  C   LIG d   1      -1.857  91.498 118.157  0.00  0.00     0.091 C 
ENDROOT
BRANCH   1   7
ATOM      7  O   LIG d   1      -2.061  89.089 118.555  0.00  0.00    -0.368 OA
BRANCH   7   8
ATOM      8  C   LIG d   1      -1.257  88.461 119.584  0.00  0.00     0.119 C 
BRANCH   8   9
ATOM      9  C   LIG d   1      -0.014  87.862 118.899  0.00  0.00     0.028 C 
ATOM     10  C   LIG d   1       0.122  88.309 117.434  0.00  0.00     0.006 C 
ENDBRANCH   8   9
BRANCH   8  11
ATOM     11  C   LIG d   1      -1.987  87.270 120.212  0.00  0.00     0.028 C 
ATOM     12  C   LIG d   1      -1.308  85.926 119.906  0.00  0.00     0.006 C 
ENDBRANCH   8  11
ENDBRANCH   7   8
ENDBRANCH   1   7
BRANCH   6  13
ATOM     13  N   LIG d   1      -0.560  91.684 118.857  0.00  0.00    -0.311 N 
ATOM     14  C   LIG d   1       0.583  91.947 118.225  0.00  0.00     0.210 C 
ATOM     15  C   LIG d   1       1.809  92.082 119.135  0.00  0.00     0.109 C 
ATOM     16  O   LIG d   1       0.692  92.113 117.001  0.00  0.00    -0.276 OA
ATOM     17  H   LIG d   1      -0.563  91.598 119.855  0.00  0.00     0.149 HD
ENDBRANCH   6  13
BRANCH   5  18
ATOM     18  N   LIG d   1      -2.032  93.863 117.301  0.00  0.00     0.381 N 
ATOM     19  H   LIG d   1      -1.093  93.594 117.086  0.00  0.00    -0.090 HD
ATOM     20  H   LIG d   1      -2.002  94.705 117.848  0.00  0.00    -0.090 HD
ATOM     21  H   LIG d   1      -2.541  94.022 116.460  0.00  0.00    -0.090 HD
ENDBRANCH   5  18
BRANCH   3  22
ATOM     22  C   LIG d   1      -6.090  91.418 118.007  0.00  0.00     0.382 C 
ATOM     23  O   LIG d   1      -6.729  91.975 118.931  0.00  0.00    -0.241 OA
ATOM     24  O   LIG d   1      -6.710  90.828 117.102  0.00  0.00    -0.241 OA
ENDBRANCH   3  22
TORSDOF 7
ENDMDL
MODEL 5
REMARK VINA RESULT:      -4.6      3.786      7.661
REMARK  7 active torsions:
REMARK  status: ('A' for Active; 'I' for Inactive)
REMARK    1  A    between atoms: C_2  and  C_3 
REMARK    2  A    between atoms: C_3  and  O_6 
REMARK    3  A    between atoms: C_3  and  C_4 
REMARK    4  A    between atoms: C_7  and  O_6 
REMARK    5  A    between atoms: C_9  and  C_10 
REMARK    6  A    between atoms: N_15  and  C_14 
REMARK    7  A    between atoms: N_20  and  C_19 
REMARK       I    between atoms: C_22  and  N_20 
ROOT
ATOM      1  C   LIG d   1      -0.420  91.583 118.074  0.00  0.00     0.161 C 
ATOM      2  C   LIG d   1       0.919  91.890 118.366  0.00  0.00     0.016 C 
ATOM      3  C   LIG d   1       1.425  93.210 118.402  0.00  0.00     0.038 C 
ATOM      4  C   LIG d   1       0.585  94.329 118.295  0.00  0.00     0.028 C 
ATOM      5  C   LIG d   1      -0.686  94.058 117.498  0.00  0.00    -0.047 C 
ATOM      6  C   LIG d   1      -1.375  92.796 118.065  0.00  0.00     0.091 C 
ENDROOT
BRANCH   1   7
ATOM      7  O   LIG d   1      -0.900  90.575 118.985  0.00  0.00    -0.368 OA
BRANCH   7   8
ATOM      8  C   LIG d   1      -1.592  89.452 118.386  0.00  0.00     0.119 C 
BRANCH   8   9
ATOM      9  C   LIG d   1      -2.923  89.271 119.142  0.00  0.00     0.028 C 
ATOM     10  C   LIG d   1      -3.086  90.279 120.292  0.00  0.00     0.006 C 
ENDBRANCH   8   9
BRANCH   8  11
ATOM     11  C   LIG d   1      -0.823  88.145 118.601  0.00  0.00     0.028 C 
ATOM     12  C   LIG d   1       0.308  87.944 117.581  0.00  0.00     0.006 C 
ENDBRANCH   8  11
ENDBRANCH   7   8
ENDBRANCH   1   7
BRANCH   6  13
ATOM     13  N   LIG d   1      -2.582  92.412 117.288  0.00  0.00    -0.311 N 
ATOM     14  C   LIG d   1      -3.817  92.787 117.619  0.00  0.00     0.210 C 
ATOM     15  C   LIG d   1      -4.921  92.264 116.695  0.00  0.00     0.109 C 
ATOM     16  O   LIG d   1      -4.099  93.529 118.572  0.00  0.00    -0.276 OA
ATOM     17  H   LIG d   1      -2.442  91.836 116.482  0.00  0.00     0.149 HD
ENDBRANCH   6  13
BRANCH   5  18
ATOM     18  N   LIG d   1      -1.531  95.265 117.583  0.00  0.00     0.381 N 
ATOM     19  H   LIG d   1      -1.531  95.741 116.703  0.00  0.00    -0.090 HD
ATOM     20  H   LIG d   1      -1.146  95.883 118.275  0.00  0.00    -0.090 HD
ATOM     21  H   LIG d   1      -2.461  95.013 117.833  0.00  0.00    -0.090 HD
ENDBRANCH   5  18
BRANCH   3  22
ATOM     22  C   LIG d   1       2.792  93.420 118.506  0.00  0.00     0.382 C 
ATOM     23  O   LIG d   1       3.515  93.360 117.482  0.00  0.00    -0.241 OA
ATOM     24  O   LIG d   1       3.317  93.623 119.617  0.00  0.00    -0.241 OA
ENDBRANCH   3  22
TORSDOF 7
ENDMDL
MODEL 6
REMARK VINA RESULT:      -4.5      3.396      7.184
REMARK  7 active torsions:
REMARK  status: ('A' for Active; 'I' for Inactive)
REMARK    1  A    between atoms: C_2  and  C_3 
REMARK    2  A    between atoms: C_3  and  O_6 
REMARK    3  A    between atoms: C_3  and  C_4 
REMARK    4  A    between atoms: C_7  and  O_6 
REMARK    5  A    between atoms: C_9  and  C_10 
REMARK    6  A    between atoms: N_15  and  C_14 
REMARK    7  A    between atoms: N_20  and  C_19 
REMARK       I    between atoms: C_22  and  N_20 
ROOT
ATOM      1  C   LIG d   1      -1.788  90.918 117.570  0.00  0.00     0.161 C 
ATOM      2  C   LIG d   1      -0.756  91.461 118.353  0.00  0.00     0.016 C 
ATOM      3  C   LIG d   1      -0.874  92.678 119.062  0.00  0.00     0.038 C 
ATOM      4  C   LIG d   1      -2.094  93.364 119.158  0.00  0.00     0.028 C 
ATOM      5  C   LIG d   1      -3.022  93.119 117.973  0.00  0.00    -0.047 C 
ATOM      6  C   LIG d   1      -3.162  91.595 117.753  0.00  0.00     0.091 C 
ENDROOT
BRANCH   1   7
ATOM      7  O   LIG d   1      -1.892  89.501 117.812  0.00  0.00    -0.368 OA
BRANCH   7   8
ATOM      8  C   LIG d   1      -1.273  89.015 119.029  0.00  0.00     0.119 C 
BRANCH   8   9
ATOM      9  C   LIG d   1      -0.464  87.755 118.667  0.00  0.00     0.028 C 
ATOM     10  C   LIG d   1      -0.887  86.529 119.493  0.00  0.00     0.006 C 
ENDBRANCH   8   9
BRANCH   8  11
ATOM     11  C   LIG d   1      -2.324  88.546 120.040  0.00  0.00     0.028 C 
ATOM     12  C   LIG d   1      -2.852  89.687 120.924  0.00  0.00     0.006 C 
ENDBRANCH   8  11
ENDBRANCH   7   8
ENDBRANCH   1   7
BRANCH   6  13
ATOM     13  N   LIG d   1      -3.987  91.269 116.560  0.00  0.00    -0.311 N 
ATOM     14  C   LIG d   1      -5.282  90.965 116.625  0.00  0.00     0.210 C 
ATOM     15  C   LIG d   1      -5.938  90.641 115.279  0.00  0.00     0.109 C 
ATOM     16  O   LIG d   1      -5.957  90.964 117.665  0.00  0.00    -0.276 OA
ATOM     17  H   LIG d   1      -3.526  91.276 115.671  0.00  0.00     0.149 HD
ENDBRANCH   6  13
BRANCH   5  18
ATOM     18  N   LIG d   1      -4.307  93.781 118.269  0.00  0.00     0.381 N 
ATOM     19  H   LIG d   1      -4.695  94.159 117.428  0.00  0.00    -0.090 HD
ATOM     20  H   LIG d   1      -4.143  94.538 118.908  0.00  0.00    -0.090 HD
ATOM     21  H   LIG d   1      -4.942  93.128 118.672  0.00  0.00    -0.090 HD
ENDBRANCH   5  18
BRANCH   3  22
ATOM     22  C   LIG d   1       0.247  93.242 119.652  0.00  0.00     0.382 C 
ATOM     23  O   LIG d   1       1.226  92.519 119.955  0.00  0.00    -0.241 OA
ATOM     24  O   LIG d   1       0.273  94.457 119.925  0.00  0.00    -0.241 OA
ENDBRANCH   3  22
TORSDOF 7
ENDMDL
MODEL 7
REMARK VINA RESULT:      -4.3      4.737      8.342
REMARK  7 active torsions:
REMARK  status: ('A' for Active; 'I' for Inactive)
REMARK    1  A    between atoms: C_2  and  C_3 
REMARK    2  A    between atoms: C_3  and  O_6 
REMARK    3  A    between atoms: C_3  and  C_4 
REMARK    4  A    between atoms: C_7  and  O_6 
REMARK    5  A    between atoms: C_9  and  C_10 
REMARK    6  A    between atoms: N_15  and  C_14 
REMARK    7  A    between atoms: N_20  and  C_19 
REMARK       I    between atoms: C_22  and  N_20 
ROOT
ATOM      1  C   LIG d   1       0.116  91.623 117.132  0.00  0.00     0.161 C 
ATOM      2  C   LIG d   1       1.520  91.600 117.179  0.00  0.00     0.016 C 
ATOM      3  C   LIG d   1       2.295  92.619 117.780  0.00  0.00     0.038 C 
ATOM      4  C   LIG d   1       1.710  93.662 118.512  0.00  0.00     0.028 C 
ATOM      5  C   LIG d   1       0.292  93.997 118.061  0.00  0.00    -0.047 C 
ATOM      6  C   LIG d   1      -0.543  92.697 118.022  0.00  0.00     0.091 C 
ENDROOT
BRANCH   1   7
ATOM      7  O   LIG d   1      -0.405  90.318 117.452  0.00  0.00    -0.368 OA
BRANCH   7   8
ATOM      8  C   LIG d   1       0.491  89.432 118.166  0.00  0.00     0.119 C 
BRANCH   8   9
ATOM      9  C   LIG d   1       0.350  88.030 117.542  0.00  0.00     0.028 C 
ATOM     10  C   LIG d   1       1.572  87.639 116.694  0.00  0.00     0.006 C 
ENDBRANCH   8   9
BRANCH   8  11
ATOM     11  C   LIG d   1       0.065  89.269 119.628  0.00  0.00     0.028 C 
ATOM     12  C   LIG d   1       0.804  90.230 120.574  0.00  0.00     0.006 C 
ENDBRANCH   8  11
ENDBRANCH   7   8
ENDBRANCH   1   7
BRANCH   6  13
ATOM     13  N   LIG d   1      -1.920  92.923 117.510  0.00  0.00    -0.311 N 
ATOM     14  C   LIG d   1      -3.008  92.408 118.080  0.00  0.00     0.210 C 
ATOM     15  C   LIG d   1      -4.327  92.748 117.380  0.00  0.00     0.109 C 
ATOM     16  O   LIG d   1      -3.008  91.728 119.118  0.00  0.00    -0.276 OA
ATOM     17  H   LIG d   1      -2.014  93.489 116.690  0.00  0.00     0.149 HD
ENDBRANCH   6  13
BRANCH   5  18
ATOM     18  N   LIG d   1      -0.247  95.004 118.995  0.00  0.00     0.381 N 
ATOM     19  H   LIG d   1       0.491  95.366 119.565  0.00  0.00    -0.090 HD
ATOM     20  H   LIG d   1      -0.921  94.562 119.595  0.00  0.00    -0.090 HD
ATOM     21  H   LIG d   1      -0.678  95.744 118.487  0.00  0.00    -0.090 HD
ENDBRANCH   5  18
BRANCH   3  22
ATOM     22  C   LIG d   1       3.672  92.620 117.616  0.00  0.00     0.382 C 
ATOM     23  O   LIG d   1       4.283  93.704 117.453  0.00  0.00    -0.241 OA
ATOM     24  O   LIG d   1       4.306  91.549 117.586  0.00  0.00    -0.241 OA
ENDBRANCH   3  22
TORSDOF 7
ENDMDL
MODEL 8
REMARK VINA RESULT:      -4.2      2.570      6.427
REMARK  7 active torsions:
REMARK  status: ('A' for Active; 'I' for Inactive)
REMARK    1  A    between atoms: C_2  and  C_3 
REMARK    2  A    between atoms: C_3  and  O_6 
REMARK    3  A    between atoms: C_3  and  C_4 
REMARK    4  A    between atoms: C_7  and  O_6 
REMARK    5  A    between atoms: C_9  and  C_10 
REMARK    6  A    between atoms: N_15  and  C_14 
REMARK    7  A    between atoms: N_20  and  C_19 
REMARK       I    between atoms: C_22  and  N_20 
ROOT
ATOM      1  C   LIG d   1      -2.881  93.047 117.613  0.00  0.00     0.161 C 
ATOM      2  C   LIG d   1      -2.362  94.005 118.500  0.00  0.00     0.016 C 
ATOM      3  C   LIG d   1      -3.165  94.766 119.380  0.00  0.00     0.038 C 
ATOM      4  C   LIG d   1      -4.535  94.512 119.541  0.00  0.00     0.028 C 
ATOM      5  C   LIG d   1      -5.187  93.902 118.305  0.00  0.00    -0.047 C 
ATOM      6  C   LIG d   1      -4.360  92.677 117.853  0.00  0.00     0.091 C 
ENDROOT
BRANCH   1   7
ATOM      7  O   LIG d   1      -2.059  91.863 117.636  0.00  0.00    -0.368 OA
BRANCH   7   8
ATOM      8  C   LIG d   1      -1.389  91.577 118.889  0.00  0.00     0.119 C 
BRANCH   8   9
ATOM      9  C   LIG d   1       0.106  91.373 118.578  0.00  0.00     0.028 C 
ATOM     10  C   LIG d   1       0.349  90.936 117.124  0.00  0.00     0.006 C 
ENDBRANCH   8   9
BRANCH   8  11
ATOM     11  C   LIG d   1      -1.865  90.248 119.484  0.00  0.00     0.028 C 
ATOM     12  C   LIG d   1      -2.832  89.493 118.558  0.00  0.00     0.006 C 
ENDBRANCH   8  11
ENDBRANCH   7   8
ENDBRANCH   1   7
BRANCH   6  13
ATOM     13  N   LIG d   1      -4.881  92.071 116.601  0.00  0.00    -0.311 N 
ATOM     14  C   LIG d   1      -5.843  91.150 116.577  0.00  0.00     0.210 C 
ATOM     15  C   LIG d   1      -6.219  90.643 115.181  0.00  0.00     0.109 C 
ATOM     16  O   LIG d   1      -6.444  90.729 117.577  0.00  0.00    -0.276 OA
ATOM     17  H   LIG d   1      -4.472  92.379 115.740  0.00  0.00     0.149 HD
ENDBRANCH   6  13
BRANCH   5  18
ATOM     18  N   LIG d   1      -6.579  93.562 118.657  0.00  0.00     0.381 N 
ATOM     19  H   LIG d   1      -7.143  94.389 118.645  0.00  0.00    -0.090 HD
ATOM     20  H   LIG d   1      -6.595  93.183 119.587  0.00  0.00    -0.090 HD
ATOM     21  H   LIG d   1      -6.940  92.895 118.012  0.00  0.00    -0.090 HD
ENDBRANCH   5  18
BRANCH   3  22
ATOM     22  C   LIG d   1      -2.604  95.823 120.081  0.00  0.00     0.382 C 
ATOM     23  O   LIG d   1      -1.363  95.868 120.261  0.00  0.00    -0.241 OA
ATOM     24  O   LIG d   1      -3.327  96.708 120.575  0.00  0.00    -0.241 OA
ENDBRANCH   3  22
TORSDOF 7
ENDMDL
MODEL 9
REMARK VINA RESULT:      -4.2      6.057      8.673
REMARK  7 active torsions:
REMARK  status: ('A' for Active; 'I' for Inactive)
REMARK    1  A    between atoms: C_2  and  C_3 
REMARK    2  A    between atoms: C_3  and  O_6 
REMARK    3  A    between atoms: C_3  and  C_4 
REMARK    4  A    between atoms: C_7  and  O_6 
REMARK    5  A    between atoms: C_9  and  C_10 
REMARK    6  A    between atoms: N_15  and  C_14 
REMARK    7  A    between atoms: N_20  and  C_19 
REMARK       I    between atoms: C_22  and  N_20 
ROOT
ATOM      1  C   LIG d   1       0.246  88.984 117.703  0.00  0.00     0.161 C 
ATOM      2  C   LIG d   1      -1.085  88.855 118.133  0.00  0.00     0.016 C 
ATOM      3  C   LIG d   1      -1.996  89.935 118.178  0.00  0.00     0.038 C 
ATOM      4  C   LIG d   1      -1.680  91.195 117.649  0.00  0.00     0.028 C 
ATOM      5  C   LIG d   1      -0.186  91.502 117.669  0.00  0.00    -0.047 C 
ATOM      6  C   LIG d   1       0.577  90.326 117.017  0.00  0.00     0.091 C 
ENDROOT
BRANCH   1   7
ATOM      7  O   LIG d   1       0.589  87.882 116.839  0.00  0.00    -0.368 OA
BRANCH   7   8
ATOM      8  C   LIG d   1       1.115  86.700 117.491  0.00  0.00     0.119 C 
BRANCH   8   9
ATOM      9  C   LIG d   1       2.307  87.144 118.361  0.00  0.00     0.028 C 
ATOM     10  C   LIG d   1       2.251  86.552 119.780  0.00  0.00     0.006 C 
ENDBRANCH   8   9
BRANCH   8  11
ATOM     11  C   LIG d   1       1.700  85.716 116.474  0.00  0.00     0.028 C 
ATOM     12  C   LIG d   1       1.932  86.352 115.095  0.00  0.00     0.006 C 
ENDBRANCH   8  11
ENDBRANCH   7   8
ENDBRANCH   1   7
BRANCH   6  13
ATOM     13  N   LIG d   1       2.051  90.507 117.071  0.00  0.00    -0.311 N 
ATOM     14  C   LIG d   1       2.867  90.181 116.070  0.00  0.00     0.210 C 
ATOM     15  C   LIG d   1       4.354  90.431 116.341  0.00  0.00     0.109 C 
ATOM     16  O   LIG d   1       2.497  89.740 114.972  0.00  0.00    -0.276 OA
ATOM     17  H   LIG d   1       2.433  90.889 117.915  0.00  0.00     0.149 HD
ENDBRANCH   6  13
BRANCH   5  18
ATOM     18  N   LIG d   1       0.015  92.782 116.965  0.00  0.00     0.381 N 
ATOM     19  H   LIG d   1       0.531  93.412 117.547  0.00  0.00    -0.090 HD
ATOM     20  H   LIG d   1      -0.882  93.193 116.774  0.00  0.00    -0.090 HD
ATOM     21  H   LIG d   1       0.506  92.629 116.112  0.00  0.00    -0.090 HD
ENDBRANCH   5  18
BRANCH   3  22
ATOM     22  C   LIG d   1      -3.228  89.770 118.794  0.00  0.00     0.382 C 
ATOM     23  O   LIG d   1      -4.273  90.157 118.219  0.00  0.00    -0.241 OA
ATOM     24  O   LIG d   1      -3.302  89.279 119.936  0.00  0.00    -0.241 OA
ENDBRANCH   3  22
TORSDOF 7
ENDMDL
