MODEL 1
REMARK VINA RESULT:      -5.7      0.000      0.000
REMARK  7 active torsions:
REMARK  status: ('A' for Active; 'I' for Inactive)
REMARK    1  A    between atoms: C_2  and  C_3 
REMARK    2  A    between atoms: C_3  and  O_6 
REMARK    3  A    between atoms: C_3  and  C_4 
REMARK    4  A    between atoms: C_7  and  O_6 
REMARK    5  A    between atoms: C_9  and  C_10 
REMARK    6  A    between atoms: N_15  and  C_14 
REMARK    7  A    between atoms: N_20  and  C_19 
REMARK       I    between atoms: C_22  and  N_20 
ROOT
ATOM      1  C   LIG d   1      -6.811  92.472 117.669  0.00  0.00     0.161 C 
ATOM      2  C   LIG d   1      -7.751  93.506 117.812  0.00  0.00     0.016 C 
ATOM      3  C   LIG d   1      -7.606  94.568 118.734  0.00  0.00     0.038 C 
ATOM      4  C   LIG d   1      -6.428  94.751 119.474  0.00  0.00     0.028 C 
ATOM      5  C   LIG d   1      -5.667  93.455 119.731  0.00  0.00    -0.047 C 
ATOM      6  C   LIG d   1      -5.468  92.715 118.389  0.00  0.00     0.091 C 
ENDROOT
BRANCH   1   7
ATOM      7  O   LIG d   1      -6.588  92.204 116.270  0.00  0.00    -0.368 OA
BRANCH   7   8
ATOM      8  C   LIG d   1      -7.395  91.151 115.687  0.00  0.00     0.119 C 
BRANCH   8   9
ATOM      9  C   LIG d   1      -7.837  90.219 116.831  0.00  0.00     0.028 C 
ATOM     10  C   LIG d   1      -8.965  89.263 116.407  0.00  0.00     0.006 C 
ENDBRANCH   8   9
BRANCH   8  11
ATOM     11  C   LIG d   1      -6.567  90.272 114.745  0.00  0.00     0.028 C 
ATOM     12  C   LIG d   1      -5.414  89.552 115.461  0.00  0.00     0.006 C 
ENDBRANCH   8  11
ENDBRANCH   7   8
ENDBRANCH   1   7
BRANCH   6  13
ATOM     13  N   LIG d   1      -4.805  91.396 118.561  0.00  0.00    -0.311 N 
ATOM     14  C   LIG d   1      -3.487  91.222 118.485  0.00  0.00     0.210 C 
ATOM     15  C   LIG d   1      -3.013  89.778 118.673  0.00  0.00     0.109 C 
ATOM     16  O   LIG d   1      -2.663  92.133 118.311  0.00  0.00    -0.276 OA
ATOM     17  H   LIG d   1      -5.397  90.608 118.737  0.00  0.00     0.149 HD
ENDBRANCH   6  13
BRANCH   5  18
ATOM     18  N   LIG d   1      -4.395  93.808 120.390  0.00  0.00     0.381 N 
ATOM     19  H   LIG d   1      -4.566  94.465 121.126  0.00  0.00    -0.090 HD
ATOM     20  H   LIG d   1      -3.789  94.241 119.716  0.00  0.00    -0.090 HD
ATOM     21  H   LIG d   1      -3.964  92.990 120.760  0.00  0.00    -0.090 HD
ENDBRANCH   5  18
BRANCH   3  22
ATOM     22  C   LIG d   1      -8.662  95.439 118.951  0.00  0.00     0.382 C 
ATOM     23  O   LIG d   1      -9.843  95.020 118.886  0.00  0.00    -0.241 OA
ATOM     24  O   LIG d   1      -8.451  96.647 119.168  0.00  0.00    -0.241 OA
ENDBRANCH   3  22
TORSDOF 7
ENDMDL
MODEL 2
REMARK VINA RESULT:      -5.4      1.950      5.040
REMARK  7 active torsions:
REMARK  status: ('A' for Active; 'I' for Inactive)
REMARK    1  A    between atoms: C_2  and  C_3 
REMARK    2  A    between atoms: C_3  and  O_6 
REMARK    3  A    between atoms: C_3  and  C_4 
REMARK    4  A    between atoms: C_7  and  O_6 
REMARK    5  A    between atoms: C_9  and  C_10 
REMARK    6  A    between atoms: N_15  and  C_14 
REMARK    7  A    between atoms: N_20  and  C_19 
REMARK       I    between atoms: C_22  and  N_20 
ROOT
ATOM      1  C   LIG d   1      -5.209  91.307 117.683  0.00  0.00     0.161 C 
ATOM      2  C   LIG d   1      -4.233  90.306 117.546  0.00  0.00     0.016 C 
ATOM      3  C   LIG d   1      -2.973  90.354 118.186  0.00  0.00     0.038 C 
ATOM      4  C   LIG d   1      -2.660  91.340 119.133  0.00  0.00     0.028 C 
ATOM      5  C   LIG d   1      -3.419  92.646 118.921  0.00  0.00    -0.047 C 
ATOM      6  C   LIG d   1      -4.928  92.335 118.799  0.00  0.00     0.091 C 
ENDROOT
BRANCH   1   7
ATOM      7  O   LIG d   1      -6.505  90.705 117.871  0.00  0.00    -0.368 OA
BRANCH   7   8
ATOM      8  C   LIG d   1      -7.476  90.942 116.823  0.00  0.00     0.119 C 
BRANCH   8   9
ATOM      9  C   LIG d   1      -7.797  89.583 116.172  0.00  0.00     0.028 C 
ATOM     10  C   LIG d   1      -9.236  89.120 116.458  0.00  0.00     0.006 C 
ENDBRANCH   8   9
BRANCH   8  11
ATOM     11  C   LIG d   1      -6.886  91.800 115.700  0.00  0.00     0.028 C 
ATOM     12  C   LIG d   1      -7.051  91.161 114.312  0.00  0.00     0.006 C 
ENDBRANCH   8  11
ENDBRANCH   7   8
ENDBRANCH   1   7
BRANCH   6  13
ATOM     13  N   LIG d   1      -5.735  93.548 118.506  0.00  0.00    -0.311 N 
ATOM     14  C   LIG d   1      -6.376  94.246 119.442  0.00  0.00     0.210 C 
ATOM     15  C   LIG d   1      -7.166  95.451 118.923  0.00  0.00     0.109 C 
ATOM     16  O   LIG d   1      -6.339  94.000 120.657  0.00  0.00    -0.276 OA
ATOM     17  H   LIG d   1      -5.793  93.837 117.549  0.00  0.00     0.149 HD
ENDBRANCH   6  13
BRANCH   5  18
ATOM     18  N   LIG d   1      -3.102  93.535 120.055  0.00  0.00     0.381 N 
ATOM     19  H   LIG d   1      -2.558  94.311 119.734  0.00  0.00    -0.090 HD
ATOM     20  H   LIG d   1      -2.556  93.023 120.726  0.00  0.00    -0.090 HD
ATOM     21  H   LIG d   1      -3.942  93.860 120.478  0.00  0.00    -0.090 HD
ENDBRANCH   5  18
BRANCH   3  22
ATOM     22  C   LIG d   1      -1.996  89.429 117.849  0.00  0.00     0.382 C 
ATOM     23  O   LIG d   1      -2.250  88.202 117.902  0.00  0.00    -0.241 OA
ATOM     24  O   LIG d   1      -0.851  89.806 117.537  0.00  0.00    -0.241 OA
ENDBRANCH   3  22
TORSDOF 7
ENDMDL
MODEL 3
REMARK VINA RESULT:      -5.3      2.503      5.059
REMARK  7 active torsions:
REMARK  status: ('A' for Active; 'I' for Inactive)
REMARK    1  A    between atoms: C_2  and  C_3 
REMARK    2  A    between atoms: C_3  and  O_6 
REMARK    3  A    between atoms: C_3  and  C_4 
REMARK    4  A    between atoms: C_7  and  O_6 
REMARK    5  A    between atoms: C_9  and  C_10 
REMARK    6  A    between atoms: N_15  and  C_14 
REMARK    7  A    between atoms: N_20  and  C_19 
REMARK       I    between atoms: C_22  and  N_20 
ROOT
ATOM      1  C   LIG d   1      -4.327  91.390 117.969  0.00  0.00     0.161 C 
ATOM      2  C   LIG d   1      -3.745  92.170 118.983  0.00  0.00     0.016 C 
ATOM      3  C   LIG d   1      -4.406  93.252 119.608  0.00  0.00     0.038 C 
ATOM      4  C   LIG d   1      -5.759  93.534 119.366  0.00  0.00     0.028 C 
ATOM      5  C   LIG d   1      -6.232  93.092 117.985  0.00  0.00    -0.047 C 
ATOM      6  C   LIG d   1      -5.840  91.613 117.770  0.00  0.00     0.091 C 
ENDROOT
BRANCH   1   7
ATOM      7  O   LIG d   1      -4.052  89.996 118.208  0.00  0.00    -0.368 OA
BRANCH   7   8
ATOM      8  C   LIG d   1      -2.873  89.704 118.997  0.00  0.00     0.119 C 
BRANCH   8   9
ATOM      9  C   LIG d   1      -1.820  89.096 118.050  0.00  0.00     0.028 C 
ATOM     10  C   LIG d   1      -0.624  90.036 117.822  0.00  0.00     0.006 C 
ENDBRANCH   8   9
BRANCH   8  11
ATOM     11  C   LIG d   1      -3.154  88.618 120.040  0.00  0.00     0.028 C 
ATOM     12  C   LIG d   1      -2.083  87.516 120.056  0.00  0.00     0.006 C 
ENDBRANCH   8  11
ENDBRANCH   7   8
ENDBRANCH   1   7
BRANCH   6  13
ATOM     13  N   LIG d   1      -6.192  91.125 116.411  0.00  0.00    -0.311 N 
ATOM     14  C   LIG d   1      -7.321  90.474 116.135  0.00  0.00     0.210 C 
ATOM     15  C   LIG d   1      -7.477  90.042 114.674  0.00  0.00     0.109 C 
ATOM     16  O   LIG d   1      -8.222  90.242 116.955  0.00  0.00    -0.276 OA
ATOM     17  H   LIG d   1      -5.531  91.298 115.679  0.00  0.00     0.149 HD
ENDBRANCH   6  13
BRANCH   5  18
ATOM     18  N   LIG d   1      -7.688  93.321 117.919  0.00  0.00     0.381 N 
ATOM     19  H   LIG d   1      -8.163  92.448 117.799  0.00  0.00    -0.090 HD
ATOM     20  H   LIG d   1      -7.890  93.901 117.124  0.00  0.00    -0.090 HD
ATOM     21  H   LIG d   1      -8.002  93.766 118.753  0.00  0.00    -0.090 HD
ENDBRANCH   5  18
BRANCH   3  22
ATOM     22  C   LIG d   1      -3.700  94.091 120.457  0.00  0.00     0.382 C 
ATOM     23  O   LIG d   1      -4.225  95.154 120.868  0.00  0.00    -0.241 OA
ATOM     24  O   LIG d   1      -2.529  93.819 120.783  0.00  0.00    -0.241 OA
ENDBRANCH   3  22
TORSDOF 7
ENDMDL
MODEL 4
REMARK VINA RESULT:      -5.3      2.490      4.820
REMARK  7 active torsions:
REMARK  status: ('A' for Active; 'I' for Inactive)
REMARK    1  A    between atoms: C_2  and  C_3 
REMARK    2  A    between atoms: C_3  and  O_6 
REMARK    3  A    between atoms: C_3  and  C_4 
REMARK    4  A    between atoms: C_7  and  O_6 
REMARK    5  A    between atoms: C_9  and  C_10 
REMARK    6  A    between atoms: N_15  and  C_14 
REMARK    7  A    between atoms: N_20  and  C_19 
REMARK       I    between atoms: C_22  and  N_20 
ROOT
ATOM      1  C   LIG d   1      -4.435  91.062 118.120  0.00  0.00     0.161 C 
ATOM      2  C   LIG d   1      -5.441  90.497 117.318  0.00  0.00     0.016 C 
ATOM      3  C   LIG d   1      -6.635  91.173 116.976  0.00  0.00     0.038 C 
ATOM      4  C   LIG d   1      -6.837  92.525 117.291  0.00  0.00     0.028 C 
ATOM      5  C   LIG d   1      -6.073  92.980 118.529  0.00  0.00    -0.047 C 
ATOM      6  C   LIG d   1      -4.588  92.576 118.379  0.00  0.00     0.091 C 
ENDROOT
BRANCH   1   7
ATOM      7  O   LIG d   1      -3.141  90.780 117.551  0.00  0.00    -0.368 OA
BRANCH   7   8
ATOM      8  C   LIG d   1      -2.245  89.986 118.368  0.00  0.00     0.119 C 
BRANCH   8   9
ATOM      9  C   LIG d   1      -0.813  90.228 117.853  0.00  0.00     0.028 C 
ATOM     10  C   LIG d   1      -0.286  91.627 118.219  0.00  0.00     0.006 C 
ENDBRANCH   8   9
BRANCH   8  11
ATOM     11  C   LIG d   1      -2.497  88.488 118.176  0.00  0.00     0.028 C 
ATOM     12  C   LIG d   1      -1.215  87.649 118.289  0.00  0.00     0.006 C 
ENDBRANCH   8  11
ENDBRANCH   7   8
ENDBRANCH   1   7
BRANCH   6  13
ATOM     13  N   LIG d   1      -3.786  92.909 119.585  0.00  0.00    -0.311 N 
ATOM     14  C   LIG d   1      -2.784  93.788 119.579  0.00  0.00     0.210 C 
ATOM     15  C   LIG d   1      -2.075  93.968 120.924  0.00  0.00     0.109 C 
ATOM     16  O   LIG d   1      -2.437  94.458 118.595  0.00  0.00    -0.276 OA
ATOM     17  H   LIG d   1      -4.020  92.434 120.434  0.00  0.00     0.149 HD
ENDBRANCH   6  13
BRANCH   5  18
ATOM     18  N   LIG d   1      -6.264  94.437 118.660  0.00  0.00     0.381 N 
ATOM     19  H   LIG d   1      -5.803  94.766 119.485  0.00  0.00    -0.090 HD
ATOM     20  H   LIG d   1      -7.247  94.629 118.750  0.00  0.00    -0.090 HD
ATOM     21  H   LIG d   1      -5.900  94.903 117.859  0.00  0.00    -0.090 HD
ENDBRANCH   5  18
BRANCH   3  22
ATOM     22  C   LIG d   1      -7.659  90.482 116.347  0.00  0.00     0.382 C 
ATOM     23  O   LIG d   1      -7.715  89.232 116.429  0.00  0.00    -0.241 OA
ATOM     24  O   LIG d   1      -8.502  91.090 115.661  0.00  0.00    -0.241 OA
ENDBRANCH   3  22
TORSDOF 7
ENDMDL
MODEL 5
REMARK VINA RESULT:      -5.0      1.979      5.059
REMARK  7 active torsions:
REMARK  status: ('A' for Active; 'I' for Inactive)
REMARK    1  A    between atoms: C_2  and  C_3 
REMARK    2  A    between atoms: C_3  and  O_6 
REMARK    3  A    between atoms: C_3  and  C_4 
REMARK    4  A    between atoms: C_7  and  O_6 
REMARK    5  A    between atoms: C_9  and  C_10 
REMARK    6  A    between atoms: N_15  and  C_14 
REMARK    7  A    between atoms: N_20  and  C_19 
REMARK       I    between atoms: C_22  and  N_20 
ROOT
ATOM      1  C   LIG d   1      -5.835  92.687 117.989  0.00  0.00     0.161 C 
ATOM      2  C   LIG d   1      -6.824  92.327 117.059  0.00  0.00     0.016 C 
ATOM      3  C   LIG d   1      -6.751  91.166 116.256  0.00  0.00     0.038 C 
ATOM      4  C   LIG d   1      -5.750  90.200 116.437  0.00  0.00     0.028 C 
ATOM      5  C   LIG d   1      -4.458  90.769 117.013  0.00  0.00    -0.047 C 
ATOM      6  C   LIG d   1      -4.791  91.589 118.281  0.00  0.00     0.091 C 
ENDROOT
BRANCH   1   7
ATOM      7  O   LIG d   1      -6.454  93.128 119.214  0.00  0.00    -0.368 OA
BRANCH   7   8
ATOM      8  C   LIG d   1      -6.238  94.515 119.574  0.00  0.00     0.119 C 
BRANCH   8   9
ATOM      9  C   LIG d   1      -5.505  94.533 120.929  0.00  0.00     0.028 C 
ATOM     10  C   LIG d   1      -4.201  95.347 120.879  0.00  0.00     0.006 C 
ENDBRANCH   8   9
BRANCH   8  11
ATOM     11  C   LIG d   1      -7.565  95.238 119.821  0.00  0.00     0.028 C 
ATOM     12  C   LIG d   1      -8.366  95.472 118.530  0.00  0.00     0.006 C 
ENDBRANCH   8  11
ENDBRANCH   7   8
ENDBRANCH   1   7
BRANCH   6  13
ATOM     13  N   LIG d   1      -3.593  92.250 118.860  0.00  0.00    -0.311 N 
ATOM     14  C   LIG d   1      -2.879  91.731 119.857  0.00  0.00     0.210 C 
ATOM     15  C   LIG d   1      -1.693  92.585 120.317  0.00  0.00     0.109 C 
ATOM     16  O   LIG d   1      -3.095  90.628 120.382  0.00  0.00    -0.276 OA
ATOM     17  H   LIG d   1      -3.327  93.134 118.471  0.00  0.00     0.149 HD
ENDBRANCH   6  13
BRANCH   5  18
ATOM     18  N   LIG d   1      -3.552  89.635 117.280  0.00  0.00     0.381 N 
ATOM     19  H   LIG d   1      -2.620  89.972 117.419  0.00  0.00    -0.090 HD
ATOM     20  H   LIG d   1      -3.551  89.025 116.481  0.00  0.00    -0.090 HD
ATOM     21  H   LIG d   1      -3.857  89.138 118.087  0.00  0.00    -0.090 HD
ENDBRANCH   5  18
BRANCH   3  22
ATOM     22  C   LIG d   1      -7.666  90.981 115.230  0.00  0.00     0.382 C 
ATOM     23  O   LIG d   1      -8.794  91.526 115.290  0.00  0.00    -0.241 OA
ATOM     24  O   LIG d   1      -7.393  90.241 114.266  0.00  0.00    -0.241 OA
ENDBRANCH   3  22
TORSDOF 7
ENDMDL
MODEL 6
REMARK VINA RESULT:      -5.0      2.855      5.286
REMARK  7 active torsions:
REMARK  status: ('A' for Active; 'I' for Inactive)
REMARK    1  A    between atoms: C_2  and  C_3 
REMARK    2  A    between atoms: C_3  and  O_6 
REMARK    3  A    between atoms: C_3  and  C_4 
REMARK    4  A    between atoms: C_7  and  O_6 
REMARK    5  A    between atoms: C_9  and  C_10 
REMARK    6  A    between atoms: N_15  and  C_14 
REMARK    7  A    between atoms: N_20  and  C_19 
REMARK       I    between atoms: C_22  and  N_20 
ROOT
ATOM      1  C   LIG d   1      -3.056  90.281 118.374  0.00  0.00     0.161 C 
ATOM      2  C   LIG d   1      -4.263  90.044 117.694  0.00  0.00     0.016 C 
ATOM      3  C   LIG d   1      -5.230  91.047 117.453  0.00  0.00     0.038 C 
ATOM      4  C   LIG d   1      -4.986  92.397 117.744  0.00  0.00     0.028 C 
ATOM      5  C   LIG d   1      -3.995  92.602 118.885  0.00  0.00    -0.047 C 
ATOM      6  C   LIG d   1      -2.724  91.771 118.601  0.00  0.00     0.091 C 
ENDROOT
BRANCH   1   7
ATOM      7  O   LIG d   1      -1.972  89.624 117.687  0.00  0.00    -0.368 OA
BRANCH   7   8
ATOM      8  C   LIG d   1      -1.671  88.274 118.117  0.00  0.00     0.119 C 
BRANCH   8   9
ATOM      9  C   LIG d   1      -1.961  88.193 119.628  0.00  0.00     0.028 C 
ATOM     10  C   LIG d   1      -0.705  88.436 120.481  0.00  0.00     0.006 C 
ENDBRANCH   8   9
BRANCH   8  11
ATOM     11  C   LIG d   1      -0.178  87.964 117.974  0.00  0.00     0.028 C 
ATOM     12  C   LIG d   1       0.088  86.554 117.422  0.00  0.00     0.006 C 
ENDBRANCH   8  11
ENDBRANCH   7   8
ENDBRANCH   1   7
BRANCH   6  13
ATOM     13  N   LIG d   1      -1.736  91.847 119.709  0.00  0.00    -0.311 N 
ATOM     14  C   LIG d   1      -0.461  92.188 119.533  0.00  0.00     0.210 C 
ATOM     15  C   LIG d   1       0.391  92.185 120.806  0.00  0.00     0.109 C 
ATOM     16  O   LIG d   1       0.038  92.523 118.448  0.00  0.00    -0.276 OA
ATOM     17  H   LIG d   1      -2.064  91.621 120.628  0.00  0.00     0.149 HD
ENDBRANCH   6  13
BRANCH   5  18
ATOM     18  N   LIG d   1      -3.729  94.049 118.991  0.00  0.00     0.381 N 
ATOM     19  H   LIG d   1      -3.225  94.240 119.834  0.00  0.00    -0.090 HD
ATOM     20  H   LIG d   1      -4.605  94.539 119.030  0.00  0.00    -0.090 HD
ATOM     21  H   LIG d   1      -3.203  94.357 118.203  0.00  0.00    -0.090 HD
ENDBRANCH   5  18
BRANCH   3  22
ATOM     22  C   LIG d   1      -6.473  90.696 116.950  0.00  0.00     0.382 C 
ATOM     23  O   LIG d   1      -6.594  89.673 116.233  0.00  0.00    -0.241 OA
ATOM     24  O   LIG d   1      -7.468  91.413 117.168  0.00  0.00    -0.241 OA
ENDBRANCH   3  22
TORSDOF 7
ENDMDL
MODEL 7
REMARK VINA RESULT:      -4.9      1.978      2.554
REMARK  7 active torsions:
REMARK  status: ('A' for Active; 'I' for Inactive)
REMARK    1  A    between atoms: C_2  and  C_3 
REMARK    2  A    between atoms: C_3  and  O_6 
REMARK    3  A    between atoms: C_3  and  C_4 
REMARK    4  A    between atoms: C_7  and  O_6 
REMARK    5  A    between atoms: C_9  and  C_10 
REMARK    6  A    between atoms: N_15  and  C_14 
REMARK    7  A    between atoms: N_20  and  C_19 
REMARK       I    between atoms: C_22  and  N_20 
ROOT
ATOM      1  C   LIG d   1      -5.137  90.933 118.338  0.00  0.00     0.161 C 
ATOM      2  C   LIG d   1      -5.788  92.148 118.605  0.00  0.00     0.016 C 
ATOM      3  C   LIG d   1      -5.132  93.284 119.134  0.00  0.00     0.038 C 
ATOM      4  C   LIG d   1      -3.739  93.329 119.291  0.00  0.00     0.028 C 
ATOM      5  C   LIG d   1      -3.110  91.957 119.510  0.00  0.00    -0.047 C 
ATOM      6  C   LIG d   1      -3.596  90.998 118.399  0.00  0.00     0.091 C 
ENDROOT
BRANCH   1   7
ATOM      7  O   LIG d   1      -5.566  90.418 117.063  0.00  0.00    -0.368 OA
BRANCH   7   8
ATOM      8  C   LIG d   1      -6.892  90.812 116.630  0.00  0.00     0.119 C 
BRANCH   8   9
ATOM      9  C   LIG d   1      -7.642  89.532 116.213  0.00  0.00     0.028 C 
ATOM     10  C   LIG d   1      -8.952  89.338 116.996  0.00  0.00     0.006 C 
ENDBRANCH   8   9
BRANCH   8  11
ATOM     11  C   LIG d   1      -6.832  91.676 115.367  0.00  0.00     0.028 C 
ATOM     12  C   LIG d   1      -7.393  90.961 114.128  0.00  0.00     0.006 C 
ENDBRANCH   8  11
ENDBRANCH   7   8
ENDBRANCH   1   7
BRANCH   6  13
ATOM     13  N   LIG d   1      -3.094  89.612 118.586  0.00  0.00    -0.311 N 
ATOM     14  C   LIG d   1      -1.946  89.173 118.074  0.00  0.00     0.210 C 
ATOM     15  C   LIG d   1      -1.626  87.704 118.370  0.00  0.00     0.109 C 
ATOM     16  O   LIG d   1      -1.147  89.868 117.430  0.00  0.00    -0.276 OA
ATOM     17  H   LIG d   1      -3.665  88.989 119.123  0.00  0.00     0.149 HD
ENDBRANCH   6  13
BRANCH   5  18
ATOM     18  N   LIG d   1      -1.645  92.135 119.520  0.00  0.00     0.381 N 
ATOM     19  H   LIG d   1      -1.244  91.682 118.723  0.00  0.00    -0.090 HD
ATOM     20  H   LIG d   1      -1.271  91.706 120.348  0.00  0.00    -0.090 HD
ATOM     21  H   LIG d   1      -1.419  93.105 119.508  0.00  0.00    -0.090 HD
ENDBRANCH   5  18
BRANCH   3  22
ATOM     22  C   LIG d   1      -5.877  94.377 119.549  0.00  0.00     0.382 C 
ATOM     23  O   LIG d   1      -7.052  94.529 119.135  0.00  0.00    -0.241 OA
ATOM     24  O   LIG d   1      -5.374  95.237 120.296  0.00  0.00    -0.241 OA
ENDBRANCH   3  22
TORSDOF 7
ENDMDL
MODEL 8
REMARK VINA RESULT:      -4.7      2.006      4.978
REMARK  7 active torsions:
REMARK  status: ('A' for Active; 'I' for Inactive)
REMARK    1  A    between atoms: C_2  and  C_3 
REMARK    2  A    between atoms: C_3  and  O_6 
REMARK    3  A    between atoms: C_3  and  C_4 
REMARK    4  A    between atoms: C_7  and  O_6 
REMARK    5  A    between atoms: C_9  and  C_10 
REMARK    6  A    between atoms: N_15  and  C_14 
REMARK    7  A    between atoms: N_20  and  C_19 
REMARK       I    between atoms: C_22  and  N_20 
ROOT
ATOM      1  C   LIG d   1      -5.841  93.521 119.055  0.00  0.00     0.161 C 
ATOM      2  C   LIG d   1      -6.628  93.056 117.987  0.00  0.00     0.016 C 
ATOM      3  C   LIG d   1      -6.220  92.023 117.112  0.00  0.00     0.038 C 
ATOM      4  C   LIG d   1      -5.055  91.277 117.339  0.00  0.00     0.028 C 
ATOM      5  C   LIG d   1      -3.984  92.044 118.108  0.00  0.00    -0.047 C 
ATOM      6  C   LIG d   1      -4.616  92.644 119.385  0.00  0.00     0.091 C 
ENDROOT
BRANCH   1   7
ATOM      7  O   LIG d   1      -6.662  93.697 120.226  0.00  0.00    -0.368 OA
BRANCH   7   8
ATOM      8  C   LIG d   1      -7.007  95.063 120.564  0.00  0.00     0.119 C 
BRANCH   8   9
ATOM      9  C   LIG d   1      -8.478  95.283 120.160  0.00  0.00     0.028 C 
ATOM     10  C   LIG d   1      -8.614  96.092 118.859  0.00  0.00     0.006 C 
ENDBRANCH   8   9
BRANCH   8  11
ATOM     11  C   LIG d   1      -6.203  96.063 119.729  0.00  0.00     0.028 C 
ATOM     12  C   LIG d   1      -5.251  96.920 120.579  0.00  0.00     0.006 C 
ENDBRANCH   8  11
ENDBRANCH   7   8
ENDBRANCH   1   7
BRANCH   6  13
ATOM     13  N   LIG d   1      -3.657  93.481 120.152  0.00  0.00    -0.311 N 
ATOM     14  C   LIG d   1      -2.731  94.247 119.579  0.00  0.00     0.210 C 
ATOM     15  C   LIG d   1      -1.832  95.014 120.554  0.00  0.00     0.109 C 
ATOM     16  O   LIG d   1      -2.590  94.391 118.355  0.00  0.00    -0.276 OA
ATOM     17  H   LIG d   1      -3.722  93.449 121.151  0.00  0.00     0.149 HD
ENDBRANCH   6  13
BRANCH   5  18
ATOM     18  N   LIG d   1      -2.883  91.105 118.394  0.00  0.00     0.381 N 
ATOM     19  H   LIG d   1      -3.072  90.220 117.968  0.00  0.00    -0.090 HD
ATOM     20  H   LIG d   1      -2.821  90.970 119.388  0.00  0.00    -0.090 HD
ATOM     21  H   LIG d   1      -2.024  91.472 118.047  0.00  0.00    -0.090 HD
ENDBRANCH   5  18
BRANCH   3  22
ATOM     22  C   LIG d   1      -6.963  91.755 115.973  0.00  0.00     0.382 C 
ATOM     23  O   LIG d   1      -8.178  91.455 116.072  0.00  0.00    -0.241 OA
ATOM     24  O   LIG d   1      -6.424  91.765 114.850  0.00  0.00    -0.241 OA
ENDBRANCH   3  22
TORSDOF 7
ENDMDL
MODEL 9
REMARK VINA RESULT:      -4.6      2.824      4.242
REMARK  7 active torsions:
REMARK  status: ('A' for Active; 'I' for Inactive)
REMARK    1  A    between atoms: C_2  and  C_3 
REMARK    2  A    between atoms: C_3  and  O_6 
REMARK    3  A    between atoms: C_3  and  C_4 
REMARK    4  A    between atoms: C_7  and  O_6 
REMARK    5  A    between atoms: C_9  and  C_10 
REMARK    6  A    between atoms: N_15  and  C_14 
REMARK    7  A    between atoms: N_20  and  C_19 
REMARK       I    between atoms: C_22  and  N_20 
ROOT
ATOM      1  C   LIG d   1      -3.578  92.330 119.524  0.00  0.00     0.161 C 
ATOM      2  C   LIG d   1      -3.648  93.733 119.488  0.00  0.00     0.016 C 
ATOM      3  C   LIG d   1      -2.598  94.553 119.016  0.00  0.00     0.038 C 
ATOM      4  C   LIG d   1      -1.456  94.016 118.402  0.00  0.00     0.028 C 
ATOM      5  C   LIG d   1      -1.121  92.605 118.875  0.00  0.00    -0.047 C 
ATOM      6  C   LIG d   1      -2.385  91.723 118.755  0.00  0.00     0.091 C 
ENDROOT
BRANCH   1   7
ATOM      7  O   LIG d   1      -4.817  91.766 119.051  0.00  0.00    -0.368 OA
BRANCH   7   8
ATOM      8  C   LIG d   1      -5.070  91.884 117.629  0.00  0.00     0.119 C 
BRANCH   8   9
ATOM      9  C   LIG d   1      -6.550  92.273 117.453  0.00  0.00     0.028 C 
ATOM     10  C   LIG d   1      -6.916  93.552 118.225  0.00  0.00     0.006 C 
ENDBRANCH   8   9
BRANCH   8  11
ATOM     11  C   LIG d   1      -4.919  90.533 116.924  0.00  0.00     0.028 C 
ATOM     12  C   LIG d   1      -5.996  90.296 115.853  0.00  0.00     0.006 C 
ENDBRANCH   8  11
ENDBRANCH   7   8
ENDBRANCH   1   7
BRANCH   6  13
ATOM     13  N   LIG d   1      -2.168  90.348 119.276  0.00  0.00    -0.311 N 
ATOM     14  C   LIG d   1      -1.669  89.356 118.541  0.00  0.00     0.210 C 
ATOM     15  C   LIG d   1      -1.545  88.012 119.267  0.00  0.00     0.109 C 
ATOM     16  O   LIG d   1      -1.287  89.468 117.367  0.00  0.00    -0.276 OA
ATOM     17  H   LIG d   1      -2.421  90.176 120.230  0.00  0.00     0.149 HD
ENDBRANCH   6  13
BRANCH   5  18
ATOM     18  N   LIG d   1       0.004  92.116 118.056  0.00  0.00     0.381 N 
ATOM     19  H   LIG d   1      -0.013  92.557 117.159  0.00  0.00    -0.090 HD
ATOM     20  H   LIG d   1      -0.097  91.125 117.923  0.00  0.00    -0.090 HD
ATOM     21  H   LIG d   1       0.868  92.311 118.514  0.00  0.00    -0.090 HD
ENDBRANCH   5  18
BRANCH   3  22
ATOM     22  C   LIG d   1      -2.666  95.926 119.192  0.00  0.00     0.382 C 
ATOM     23  O   LIG d   1      -3.724  96.452 119.614  0.00  0.00    -0.241 OA
ATOM     24  O   LIG d   1      -1.698  96.651 118.891  0.00  0.00    -0.241 OA
ENDBRANCH   3  22
TORSDOF 7
ENDMDL
