MODEL 1
REMARK VINA RESULT:      -5.8      0.000      0.000
REMARK  7 active torsions:
REMARK  status: ('A' for Active; 'I' for Inactive)
REMARK    1  A    between atoms: C_2  and  C_3 
REMARK    2  A    between atoms: C_3  and  O_6 
REMARK    3  A    between atoms: C_3  and  C_4 
REMARK    4  A    between atoms: C_7  and  O_6 
REMARK    5  A    between atoms: C_9  and  C_10 
REMARK    6  A    between atoms: N_15  and  C_14 
REMARK    7  A    between atoms: N_20  and  C_19 
REMARK       I    between atoms: C_22  and  N_20 
ROOT
ATOM      1  C   LIG d   1      -5.738  92.892 117.398  0.00  0.00     0.161 C 
ATOM      2  C   LIG d   1      -6.807  92.026 117.115  0.00  0.00     0.016 C 
ATOM      3  C   LIG d   1      -6.635  90.671 116.746  0.00  0.00     0.038 C 
ATOM      4  C   LIG d   1      -5.379  90.047 116.784  0.00  0.00     0.028 C 
ATOM      5  C   LIG d   1      -4.216  91.011 116.575  0.00  0.00    -0.047 C 
ATOM      6  C   LIG d   1      -4.368  92.199 117.553  0.00  0.00     0.091 C 
ENDROOT
BRANCH   1   7
ATOM      7  O   LIG d   1      -6.039  93.672 118.572  0.00  0.00    -0.368 OA
BRANCH   7   8
ATOM      8  C   LIG d   1      -6.593  94.990 118.336  0.00  0.00     0.119 C 
BRANCH   8   9
ATOM      9  C   LIG d   1      -5.882  95.969 119.290  0.00  0.00     0.028 C 
ATOM     10  C   LIG d   1      -4.702  95.315 120.029  0.00  0.00     0.006 C 
ENDBRANCH   8   9
BRANCH   8  11
ATOM     11  C   LIG d   1      -8.074  95.050 118.724  0.00  0.00     0.028 C 
ATOM     12  C   LIG d   1      -8.366  94.365 120.068  0.00  0.00     0.006 C 
ENDBRANCH   8  11
ENDBRANCH   7   8
ENDBRANCH   1   7
BRANCH   6  13
ATOM     13  N   LIG d   1      -3.317  93.232 117.357  0.00  0.00    -0.311 N 
ATOM     14  C   LIG d   1      -2.196  93.282 118.075  0.00  0.00     0.210 C 
ATOM     15  C   LIG d   1      -1.256  94.440 117.724  0.00  0.00     0.109 C 
ATOM     16  O   LIG d   1      -1.877  92.460 118.946  0.00  0.00    -0.276 OA
ATOM     17  H   LIG d   1      -3.480  93.920 116.648  0.00  0.00     0.149 HD
ENDBRANCH   6  13
BRANCH   5  18
ATOM     18  N   LIG d   1      -2.967  90.253 116.775  0.00  0.00     0.381 N 
ATOM     19  H   LIG d   1      -3.180  89.295 116.972  0.00  0.00    -0.090 HD
ATOM     20  H   LIG d   1      -2.477  90.636 117.565  0.00  0.00    -0.090 HD
ATOM     21  H   LIG d   1      -2.397  90.314 115.960  0.00  0.00    -0.090 HD
ENDBRANCH   5  18
BRANCH   3  22
ATOM     22  C   LIG d   1      -7.722  89.938 116.296  0.00  0.00     0.382 C 
ATOM     23  O   LIG d   1      -7.972  88.816 116.798  0.00  0.00    -0.241 OA
ATOM     24  O   LIG d   1      -8.430  90.365 115.364  0.00  0.00    -0.241 OA
ENDBRANCH   3  22
TORSDOF 7
ENDMDL
MODEL 2
REMARK VINA RESULT:      -5.4      1.962      4.718
REMARK  7 active torsions:
REMARK  status: ('A' for Active; 'I' for Inactive)
REMARK    1  A    between atoms: C_2  and  C_3 
REMARK    2  A    between atoms: C_3  and  O_6 
REMARK    3  A    between atoms: C_3  and  C_4 
REMARK    4  A    between atoms: C_7  and  O_6 
REMARK    5  A    between atoms: C_9  and  C_10 
REMARK    6  A    between atoms: N_15  and  C_14 
REMARK    7  A    between atoms: N_20  and  C_19 
REMARK       I    between atoms: C_22  and  N_20 
ROOT
ATOM      1  C   LIG d   1      -6.000  92.879 117.512  0.00  0.00     0.161 C 
ATOM      2  C   LIG d   1      -7.274  93.438 117.709  0.00  0.00     0.016 C 
ATOM      3  C   LIG d   1      -7.560  94.383 118.721  0.00  0.00     0.038 C 
ATOM      4  C   LIG d   1      -6.551  94.950 119.514  0.00  0.00     0.028 C 
ATOM      5  C   LIG d   1      -5.337  94.044 119.687  0.00  0.00    -0.047 C 
ATOM      6  C   LIG d   1      -4.863  93.568 118.295  0.00  0.00     0.091 C 
ENDROOT
BRANCH   1   7
ATOM      7  O   LIG d   1      -5.692  92.849 116.104  0.00  0.00    -0.368 OA
BRANCH   7   8
ATOM      8  C   LIG d   1      -5.744  91.548 115.468  0.00  0.00     0.119 C 
BRANCH   8   9
ATOM      9  C   LIG d   1      -7.161  91.371 114.891  0.00  0.00     0.028 C 
ATOM     10  C   LIG d   1      -7.950  90.259 115.603  0.00  0.00     0.006 C 
ENDBRANCH   8   9
BRANCH   8  11
ATOM     11  C   LIG d   1      -5.579  90.421 116.492  0.00  0.00     0.028 C 
ATOM     12  C   LIG d   1      -4.226  89.701 116.373  0.00  0.00     0.006 C 
ENDBRANCH   8  11
ENDBRANCH   7   8
ENDBRANCH   1   7
BRANCH   6  13
ATOM     13  N   LIG d   1      -3.730  92.610 118.379  0.00  0.00    -0.311 N 
ATOM     14  C   LIG d   1      -2.455  92.969 118.239  0.00  0.00     0.210 C 
ATOM     15  C   LIG d   1      -1.445  91.821 118.341  0.00  0.00     0.109 C 
ATOM     16  O   LIG d   1      -2.062  94.134 118.072  0.00  0.00    -0.276 OA
ATOM     17  H   LIG d   1      -3.956  91.649 118.543  0.00  0.00     0.149 HD
ENDBRANCH   6  13
BRANCH   5  18
ATOM     18  N   LIG d   1      -4.309  94.812 120.417  0.00  0.00     0.381 N 
ATOM     19  H   LIG d   1      -4.634  95.744 120.578  0.00  0.00    -0.090 HD
ATOM     20  H   LIG d   1      -3.479  94.860 119.853  0.00  0.00    -0.090 HD
ATOM     21  H   LIG d   1      -4.105  94.368 121.285  0.00  0.00    -0.090 HD
ENDBRANCH   5  18
BRANCH   3  22
ATOM     22  C   LIG d   1      -8.876  94.740 118.975  0.00  0.00     0.382 C 
ATOM     23  O   LIG d   1      -9.575  94.047 119.753  0.00  0.00    -0.241 OA
ATOM     24  O   LIG d   1      -9.386  95.721 118.401  0.00  0.00    -0.241 OA
ENDBRANCH   3  22
TORSDOF 7
ENDMDL
MODEL 3
REMARK VINA RESULT:      -5.1      2.219      4.611
REMARK  7 active torsions:
REMARK  status: ('A' for Active; 'I' for Inactive)
REMARK    1  A    between atoms: C_2  and  C_3 
REMARK    2  A    between atoms: C_3  and  O_6 
REMARK    3  A    between atoms: C_3  and  C_4 
REMARK    4  A    between atoms: C_7  and  O_6 
REMARK    5  A    between atoms: C_9  and  C_10 
REMARK    6  A    between atoms: N_15  and  C_14 
REMARK    7  A    between atoms: N_20  and  C_19 
REMARK       I    between atoms: C_22  and  N_20 
ROOT
ATOM      1  C   LIG d   1      -4.183  90.913 117.724  0.00  0.00     0.161 C 
ATOM      2  C   LIG d   1      -5.235  90.261 117.060  0.00  0.00     0.016 C 
ATOM      3  C   LIG d   1      -6.452  90.896 116.719  0.00  0.00     0.038 C 
ATOM      4  C   LIG d   1      -6.640  92.276 116.885  0.00  0.00     0.028 C 
ATOM      5  C   LIG d   1      -5.799  92.870 118.011  0.00  0.00    -0.047 C 
ATOM      6  C   LIG d   1      -4.326  92.446 117.815  0.00  0.00     0.091 C 
ENDROOT
BRANCH   1   7
ATOM      7  O   LIG d   1      -2.926  90.562 117.111  0.00  0.00    -0.368 OA
BRANCH   7   8
ATOM      8  C   LIG d   1      -1.978  89.864 117.954  0.00  0.00     0.119 C 
BRANCH   8   9
ATOM      9  C   LIG d   1      -0.567  90.342 117.559  0.00  0.00     0.028 C 
ATOM     10  C   LIG d   1       0.252  90.816 118.771  0.00  0.00     0.006 C 
ENDBRANCH   8   9
BRANCH   8  11
ATOM     11  C   LIG d   1      -1.988  88.358 117.676  0.00  0.00     0.028 C 
ATOM     12  C   LIG d   1      -2.078  87.516 118.959  0.00  0.00     0.006 C 
ENDBRANCH   8  11
ENDBRANCH   7   8
ENDBRANCH   1   7
BRANCH   6  13
ATOM     13  N   LIG d   1      -3.449  92.916 118.919  0.00  0.00    -0.311 N 
ATOM     14  C   LIG d   1      -2.310  93.577 118.720  0.00  0.00     0.210 C 
ATOM     15  C   LIG d   1      -1.549  93.951 119.996  0.00  0.00     0.109 C 
ATOM     16  O   LIG d   1      -1.874  93.917 117.610  0.00  0.00    -0.276 OA
ATOM     17  H   LIG d   1      -3.743  92.709 119.854  0.00  0.00     0.149 HD
ENDBRANCH   6  13
BRANCH   5  18
ATOM     18  N   LIG d   1      -5.989  94.333 117.983  0.00  0.00     0.381 N 
ATOM     19  H   LIG d   1      -5.123  94.790 118.189  0.00  0.00    -0.090 HD
ATOM     20  H   LIG d   1      -6.655  94.588 118.690  0.00  0.00    -0.090 HD
ATOM     21  H   LIG d   1      -6.319  94.617 117.087  0.00  0.00    -0.090 HD
ENDBRANCH   5  18
BRANCH   3  22
ATOM     22  C   LIG d   1      -7.511  90.140 116.241  0.00  0.00     0.382 C 
ATOM     23  O   LIG d   1      -8.264  90.607 115.353  0.00  0.00    -0.241 OA
ATOM     24  O   LIG d   1      -7.749  89.014 116.718  0.00  0.00    -0.241 OA
ENDBRANCH   3  22
TORSDOF 7
ENDMDL
MODEL 4
REMARK VINA RESULT:      -5.0      1.072      1.865
REMARK  7 active torsions:
REMARK  status: ('A' for Active; 'I' for Inactive)
REMARK    1  A    between atoms: C_2  and  C_3 
REMARK    2  A    between atoms: C_3  and  O_6 
REMARK    3  A    between atoms: C_3  and  C_4 
REMARK    4  A    between atoms: C_7  and  O_6 
REMARK    5  A    between atoms: C_9  and  C_10 
REMARK    6  A    between atoms: N_15  and  C_14 
REMARK    7  A    between atoms: N_20  and  C_19 
REMARK       I    between atoms: C_22  and  N_20 
ROOT
ATOM      1  C   LIG d   1      -5.937  92.873 118.393  0.00  0.00     0.161 C 
ATOM      2  C   LIG d   1      -6.807  91.882 117.909  0.00  0.00     0.016 C 
ATOM      3  C   LIG d   1      -6.366  90.725 117.226  0.00  0.00     0.038 C 
ATOM      4  C   LIG d   1      -5.005  90.404 117.113  0.00  0.00     0.028 C 
ATOM      5  C   LIG d   1      -4.091  91.625 117.143  0.00  0.00    -0.047 C 
ATOM      6  C   LIG d   1      -4.443  92.486 118.377  0.00  0.00     0.091 C 
ENDROOT
BRANCH   1   7
ATOM      7  O   LIG d   1      -6.337  93.270 119.719  0.00  0.00    -0.368 OA
BRANCH   7   8
ATOM      8  C   LIG d   1      -6.934  94.585 119.838  0.00  0.00     0.119 C 
BRANCH   8   9
ATOM      9  C   LIG d   1      -8.464  94.404 119.801  0.00  0.00     0.028 C 
ATOM     10  C   LIG d   1      -9.173  95.553 119.064  0.00  0.00     0.006 C 
ENDBRANCH   8   9
BRANCH   8  11
ATOM     11  C   LIG d   1      -6.599  95.460 118.627  0.00  0.00     0.028 C 
ATOM     12  C   LIG d   1      -5.686  96.644 118.982  0.00  0.00     0.006 C 
ENDBRANCH   8  11
ENDBRANCH   7   8
ENDBRANCH   1   7
BRANCH   6  13
ATOM     13  N   LIG d   1      -3.652  93.743 118.435  0.00  0.00    -0.311 N 
ATOM     14  C   LIG d   1      -2.519  93.865 119.124  0.00  0.00     0.210 C 
ATOM     15  C   LIG d   1      -1.873  95.253 119.067  0.00  0.00     0.109 C 
ATOM     16  O   LIG d   1      -1.970  92.946 119.750  0.00  0.00    -0.276 OA
ATOM     17  H   LIG d   1      -4.009  94.530 117.930  0.00  0.00     0.149 HD
ENDBRANCH   6  13
BRANCH   5  18
ATOM     18  N   LIG d   1      -2.698  91.138 117.156  0.00  0.00     0.381 N 
ATOM     19  H   LIG d   1      -2.281  91.328 118.045  0.00  0.00    -0.090 HD
ATOM     20  H   LIG d   1      -2.176  91.628 116.451  0.00  0.00    -0.090 HD
ATOM     21  H   LIG d   1      -2.678  90.159 116.973  0.00  0.00    -0.090 HD
ENDBRANCH   5  18
BRANCH   3  22
ATOM     22  C   LIG d   1      -7.291  89.894 116.613  0.00  0.00     0.382 C 
ATOM     23  O   LIG d   1      -7.115  89.527 115.426  0.00  0.00    -0.241 OA
ATOM     24  O   LIG d   1      -8.323  89.544 117.216  0.00  0.00    -0.241 OA
ENDBRANCH   3  22
TORSDOF 7
ENDMDL
MODEL 5
REMARK VINA RESULT:      -4.8      1.994      4.361
REMARK  7 active torsions:
REMARK  status: ('A' for Active; 'I' for Inactive)
REMARK    1  A    between atoms: C_2  and  C_3 
REMARK    2  A    between atoms: C_3  and  O_6 
REMARK    3  A    between atoms: C_3  and  C_4 
REMARK    4  A    between atoms: C_7  and  O_6 
REMARK    5  A    between atoms: C_9  and  C_10 
REMARK    6  A    between atoms: N_15  and  C_14 
REMARK    7  A    between atoms: N_20  and  C_19 
REMARK       I    between atoms: C_22  and  N_20 
ROOT
ATOM      1  C   LIG d   1      -4.414  92.535 118.000  0.00  0.00     0.161 C 
ATOM      2  C   LIG d   1      -4.726  91.422 117.201  0.00  0.00     0.016 C 
ATOM      3  C   LIG d   1      -6.020  91.169 116.690  0.00  0.00     0.038 C 
ATOM      4  C   LIG d   1      -7.063  92.099 116.820  0.00  0.00     0.028 C 
ATOM      5  C   LIG d   1      -6.927  92.994 118.047  0.00  0.00    -0.047 C 
ATOM      6  C   LIG d   1      -5.512  93.617 118.059  0.00  0.00     0.091 C 
ENDROOT
BRANCH   1   7
ATOM      7  O   LIG d   1      -3.165  93.111 117.569  0.00  0.00    -0.368 OA
BRANCH   7   8
ATOM      8  C   LIG d   1      -2.149  93.268 118.590  0.00  0.00     0.119 C 
BRANCH   8   9
ATOM      9  C   LIG d   1      -0.964  94.019 117.952  0.00  0.00     0.028 C 
ATOM     10  C   LIG d   1      -0.887  95.487 118.407  0.00  0.00     0.006 C 
ENDBRANCH   8   9
BRANCH   8  11
ATOM     11  C   LIG d   1      -1.583  91.913 119.026  0.00  0.00     0.028 C 
ATOM     12  C   LIG d   1      -0.837  91.188 117.895  0.00  0.00     0.006 C 
ENDBRANCH   8  11
ENDBRANCH   7   8
ENDBRANCH   1   7
BRANCH   6  13
ATOM     13  N   LIG d   1      -5.266  94.441 119.271  0.00  0.00    -0.311 N 
ATOM     14  C   LIG d   1      -5.558  95.738 119.347  0.00  0.00     0.210 C 
ATOM     15  C   LIG d   1      -5.205  96.404 120.681  0.00  0.00     0.109 C 
ATOM     16  O   LIG d   1      -6.105  96.394 118.448  0.00  0.00    -0.276 OA
ATOM     17  H   LIG d   1      -4.853  93.982 120.060  0.00  0.00     0.149 HD
ENDBRANCH   6  13
BRANCH   5  18
ATOM     18  N   LIG d   1      -8.002  94.003 117.984  0.00  0.00     0.381 N 
ATOM     19  H   LIG d   1      -8.238  94.186 117.029  0.00  0.00    -0.090 HD
ATOM     20  H   LIG d   1      -7.670  94.857 118.396  0.00  0.00    -0.090 HD
ATOM     21  H   LIG d   1      -8.804  93.677 118.476  0.00  0.00    -0.090 HD
ENDBRANCH   5  18
BRANCH   3  22
ATOM     22  C   LIG d   1      -6.291  89.957 116.075  0.00  0.00     0.382 C 
ATOM     23  O   LIG d   1      -5.643  89.611 115.058  0.00  0.00    -0.241 OA
ATOM     24  O   LIG d   1      -7.206  89.224 116.498  0.00  0.00    -0.241 OA
ENDBRANCH   3  22
TORSDOF 7
ENDMDL
MODEL 6
REMARK VINA RESULT:      -4.7      2.489      4.452
REMARK  7 active torsions:
REMARK  status: ('A' for Active; 'I' for Inactive)
REMARK    1  A    between atoms: C_2  and  C_3 
REMARK    2  A    between atoms: C_3  and  O_6 
REMARK    3  A    between atoms: C_3  and  C_4 
REMARK    4  A    between atoms: C_7  and  O_6 
REMARK    5  A    between atoms: C_9  and  C_10 
REMARK    6  A    between atoms: N_15  and  C_14 
REMARK    7  A    between atoms: N_20  and  C_19 
REMARK       I    between atoms: C_22  and  N_20 
ROOT
ATOM      1  C   LIG d   1      -5.337  91.478 118.908  0.00  0.00     0.161 C 
ATOM      2  C   LIG d   1      -4.617  90.581 118.102  0.00  0.00     0.016 C 
ATOM      3  C   LIG d   1      -4.906  90.358 116.736  0.00  0.00     0.038 C 
ATOM      4  C   LIG d   1      -5.845  91.134 116.040  0.00  0.00     0.028 C 
ATOM      5  C   LIG d   1      -6.944  91.699 116.934  0.00  0.00    -0.047 C 
ATOM      6  C   LIG d   1      -6.293  92.414 118.139  0.00  0.00     0.091 C 
ENDROOT
BRANCH   1   7
ATOM      7  O   LIG d   1      -4.426  92.247 119.718  0.00  0.00    -0.368 OA
BRANCH   7   8
ATOM      8  C   LIG d   1      -3.108  92.469 119.159  0.00  0.00     0.119 C 
BRANCH   8   9
ATOM      9  C   LIG d   1      -2.083  92.248 120.287  0.00  0.00     0.028 C 
ATOM     10  C   LIG d   1      -2.208  90.856 120.930  0.00  0.00     0.006 C 
ENDBRANCH   8   9
BRANCH   8  11
ATOM     11  C   LIG d   1      -2.926  93.927 118.725  0.00  0.00     0.028 C 
ATOM     12  C   LIG d   1      -3.831  94.897 119.500  0.00  0.00     0.006 C 
ENDBRANCH   8  11
ENDBRANCH   7   8
ENDBRANCH   1   7
BRANCH   6  13
ATOM     13  N   LIG d   1      -7.299  92.923 119.108  0.00  0.00    -0.311 N 
ATOM     14  C   LIG d   1      -7.710  94.190 119.140  0.00  0.00     0.210 C 
ATOM     15  C   LIG d   1      -8.738  94.508 120.230  0.00  0.00     0.109 C 
ATOM     16  O   LIG d   1      -7.346  95.072 118.348  0.00  0.00    -0.276 OA
ATOM     17  H   LIG d   1      -7.671  92.267 119.767  0.00  0.00     0.149 HD
ENDBRANCH   6  13
BRANCH   5  18
ATOM     18  N   LIG d   1      -7.773  92.597 116.107  0.00  0.00     0.381 N 
ATOM     19  H   LIG d   1      -8.723  92.284 116.115  0.00  0.00    -0.090 HD
ATOM     20  H   LIG d   1      -7.439  92.567 115.160  0.00  0.00    -0.090 HD
ATOM     21  H   LIG d   1      -7.719  93.528 116.457  0.00  0.00    -0.090 HD
ENDBRANCH   5  18
BRANCH   3  22
ATOM     22  C   LIG d   1      -4.279  89.322 116.061  0.00  0.00     0.382 C 
ATOM     23  O   LIG d   1      -4.673  88.989 114.917  0.00  0.00    -0.241 OA
ATOM     24  O   LIG d   1      -3.353  88.686 116.600  0.00  0.00    -0.241 OA
ENDBRANCH   3  22
TORSDOF 7
ENDMDL
MODEL 7
REMARK VINA RESULT:      -4.7      2.091      3.729
REMARK  7 active torsions:
REMARK  status: ('A' for Active; 'I' for Inactive)
REMARK    1  A    between atoms: C_2  and  C_3 
REMARK    2  A    between atoms: C_3  and  O_6 
REMARK    3  A    between atoms: C_3  and  C_4 
REMARK    4  A    between atoms: C_7  and  O_6 
REMARK    5  A    between atoms: C_9  and  C_10 
REMARK    6  A    between atoms: N_15  and  C_14 
REMARK    7  A    between atoms: N_20  and  C_19 
REMARK       I    between atoms: C_22  and  N_20 
ROOT
ATOM      1  C   LIG d   1      -3.564  92.334 117.803  0.00  0.00     0.161 C 
ATOM      2  C   LIG d   1      -4.910  92.722 117.688  0.00  0.00     0.016 C 
ATOM      3  C   LIG d   1      -5.894  91.934 117.049  0.00  0.00     0.038 C 
ATOM      4  C   LIG d   1      -5.630  90.628 116.612  0.00  0.00     0.028 C 
ATOM      5  C   LIG d   1      -4.166  90.393 116.255  0.00  0.00    -0.047 C 
ATOM      6  C   LIG d   1      -3.281  90.864 117.431  0.00  0.00     0.091 C 
ENDROOT
BRANCH   1   7
ATOM      7  O   LIG d   1      -3.087  92.615 119.134  0.00  0.00    -0.368 OA
BRANCH   7   8
ATOM      8  C   LIG d   1      -2.189  93.745 119.264  0.00  0.00     0.119 C 
BRANCH   8   9
ATOM      9  C   LIG d   1      -3.029  94.953 119.721  0.00  0.00     0.028 C 
ATOM     10  C   LIG d   1      -2.311  96.292 119.480  0.00  0.00     0.006 C 
ENDBRANCH   8   9
BRANCH   8  11
ATOM     11  C   LIG d   1      -1.601  94.148 117.909  0.00  0.00     0.028 C 
ATOM     12  C   LIG d   1      -0.122  93.757 117.761  0.00  0.00     0.006 C 
ENDBRANCH   8  11
ENDBRANCH   7   8
ENDBRANCH   1   7
BRANCH   6  13
ATOM     13  N   LIG d   1      -1.830  90.748 117.130  0.00  0.00    -0.311 N 
ATOM     14  C   LIG d   1      -1.078  89.723 117.528  0.00  0.00     0.210 C 
ATOM     15  C   LIG d   1       0.398  89.810 117.128  0.00  0.00     0.109 C 
ATOM     16  O   LIG d   1      -1.501  88.734 118.145  0.00  0.00    -0.276 OA
ATOM     17  H   LIG d   1      -1.412  91.492 116.606  0.00  0.00     0.149 HD
ENDBRANCH   6  13
BRANCH   5  18
ATOM     18  N   LIG d   1      -4.006  88.959 115.948  0.00  0.00     0.381 N 
ATOM     19  H   LIG d   1      -4.474  88.410 116.642  0.00  0.00    -0.090 HD
ATOM     20  H   LIG d   1      -3.028  88.729 115.971  0.00  0.00    -0.090 HD
ATOM     21  H   LIG d   1      -4.381  88.759 115.047  0.00  0.00    -0.090 HD
ENDBRANCH   5  18
BRANCH   3  22
ATOM     22  C   LIG d   1      -7.151  92.468 116.807  0.00  0.00     0.382 C 
ATOM     23  O   LIG d   1      -7.601  93.374 117.549  0.00  0.00    -0.241 OA
ATOM     24  O   LIG d   1      -7.858  92.024 115.882  0.00  0.00    -0.241 OA
ENDBRANCH   3  22
TORSDOF 7
ENDMDL
MODEL 8
REMARK VINA RESULT:      -4.5      1.985      2.529
REMARK  7 active torsions:
REMARK  status: ('A' for Active; 'I' for Inactive)
REMARK    1  A    between atoms: C_2  and  C_3 
REMARK    2  A    between atoms: C_3  and  O_6 
REMARK    3  A    between atoms: C_3  and  C_4 
REMARK    4  A    between atoms: C_7  and  O_6 
REMARK    5  A    between atoms: C_9  and  C_10 
REMARK    6  A    between atoms: N_15  and  C_14 
REMARK    7  A    between atoms: N_20  and  C_19 
REMARK       I    between atoms: C_22  and  N_20 
ROOT
ATOM      1  C   LIG d   1      -4.088  92.430 117.839  0.00  0.00     0.161 C 
ATOM      2  C   LIG d   1      -5.095  92.431 116.859  0.00  0.00     0.016 C 
ATOM      3  C   LIG d   1      -5.350  91.333 116.005  0.00  0.00     0.038 C 
ATOM      4  C   LIG d   1      -4.710  90.096 116.176  0.00  0.00     0.028 C 
ATOM      5  C   LIG d   1      -3.334  90.211 116.822  0.00  0.00    -0.047 C 
ATOM      6  C   LIG d   1      -3.455  91.050 118.114  0.00  0.00     0.091 C 
ENDROOT
BRANCH   1   7
ATOM      7  O   LIG d   1      -4.596  93.001 119.061  0.00  0.00    -0.368 OA
BRANCH   7   8
ATOM      8  C   LIG d   1      -4.487  94.441 119.185  0.00  0.00     0.119 C 
BRANCH   8   9
ATOM      9  C   LIG d   1      -3.372  94.733 120.208  0.00  0.00     0.028 C 
ATOM     10  C   LIG d   1      -3.379  96.197 120.682  0.00  0.00     0.006 C 
ENDBRANCH   8   9
BRANCH   8  11
ATOM     11  C   LIG d   1      -5.758  95.046 119.787  0.00  0.00     0.028 C 
ATOM     12  C   LIG d   1      -6.787  95.453 118.720  0.00  0.00     0.006 C 
ENDBRANCH   8  11
ENDBRANCH   7   8
ENDBRANCH   1   7
BRANCH   6  13
ATOM     13  N   LIG d   1      -2.139  91.282 118.765  0.00  0.00    -0.311 N 
ATOM     14  C   LIG d   1      -1.656  90.511 119.737  0.00  0.00     0.210 C 
ATOM     15  C   LIG d   1      -0.290  90.937 120.283  0.00  0.00     0.109 C 
ATOM     16  O   LIG d   1      -2.215  89.495 120.178  0.00  0.00    -0.276 OA
ATOM     17  H   LIG d   1      -1.604  92.067 118.447  0.00  0.00     0.149 HD
ENDBRANCH   6  13
BRANCH   5  18
ATOM     18  N   LIG d   1      -2.841  88.842 117.066  0.00  0.00     0.381 N 
ATOM     19  H   LIG d   1      -1.884  88.771 116.784  0.00  0.00    -0.090 HD
ATOM     20  H   LIG d   1      -3.381  88.199 116.515  0.00  0.00    -0.090 HD
ATOM     21  H   LIG d   1      -2.927  88.616 118.033  0.00  0.00    -0.090 HD
ENDBRANCH   5  18
BRANCH   3  22
ATOM     22  C   LIG d   1      -6.226  91.480 114.940  0.00  0.00     0.382 C 
ATOM     23  O   LIG d   1      -6.171  92.506 114.220  0.00  0.00    -0.241 OA
ATOM     24  O   LIG d   1      -7.099  90.620 114.717  0.00  0.00    -0.241 OA
ENDBRANCH   3  22
TORSDOF 7
ENDMDL
MODEL 9
REMARK VINA RESULT:      -4.5      2.901      5.323
REMARK  7 active torsions:
REMARK  status: ('A' for Active; 'I' for Inactive)
REMARK    1  A    between atoms: C_2  and  C_3 
REMARK    2  A    between atoms: C_3  and  O_6 
REMARK    3  A    between atoms: C_3  and  C_4 
REMARK    4  A    between atoms: C_7  and  O_6 
REMARK    5  A    between atoms: C_9  and  C_10 
REMARK    6  A    between atoms: N_15  and  C_14 
REMARK    7  A    between atoms: N_20  and  C_19 
REMARK       I    between atoms: C_22  and  N_20 
ROOT
ATOM      1  C   LIG d   1      -2.907  90.554 117.769  0.00  0.00     0.161 C 
ATOM      2  C   LIG d   1      -3.921  89.943 117.013  0.00  0.00     0.016 C 
ATOM      3  C   LIG d   1      -5.124  90.593 116.654  0.00  0.00     0.038 C 
ATOM      4  C   LIG d   1      -5.331  91.959 116.900  0.00  0.00     0.028 C 
ATOM      5  C   LIG d   1      -4.551  92.483 118.101  0.00  0.00    -0.047 C 
ATOM      6  C   LIG d   1      -3.067  92.078 117.951  0.00  0.00     0.091 C 
ENDROOT
BRANCH   1   7
ATOM      7  O   LIG d   1      -1.620  90.250 117.196  0.00  0.00    -0.368 OA
BRANCH   7   8
ATOM      8  C   LIG d   1      -0.751  89.409 117.994  0.00  0.00     0.119 C 
BRANCH   8   9
ATOM      9  C   LIG d   1       0.702  89.803 117.666  0.00  0.00     0.028 C 
ATOM     10  C   LIG d   1       1.257  89.041 116.450  0.00  0.00     0.006 C 
ENDBRANCH   8   9
BRANCH   8  11
ATOM     11  C   LIG d   1      -0.873  87.937 117.588  0.00  0.00     0.028 C 
ATOM     12  C   LIG d   1      -1.235  87.022 118.768  0.00  0.00     0.006 C 
ENDBRANCH   8  11
ENDBRANCH   7   8
ENDBRANCH   1   7
BRANCH   6  13
ATOM     13  N   LIG d   1      -2.248  92.479 119.125  0.00  0.00    -0.311 N 
ATOM     14  C   LIG d   1      -1.083  93.116 119.023  0.00  0.00     0.210 C 
ATOM     15  C   LIG d   1      -0.392  93.418 120.357  0.00  0.00     0.109 C 
ATOM     16  O   LIG d   1      -0.571  93.488 117.956  0.00  0.00    -0.276 OA
ATOM     17  H   LIG d   1      -2.604  92.244 120.030  0.00  0.00     0.149 HD
ENDBRANCH   6  13
BRANCH   5  18
ATOM     18  N   LIG d   1      -4.750  93.943 118.159  0.00  0.00     0.381 N 
ATOM     19  H   LIG d   1      -5.240  94.185 118.997  0.00  0.00    -0.090 HD
ATOM     20  H   LIG d   1      -5.308  94.226 117.373  0.00  0.00    -0.090 HD
ATOM     21  H   LIG d   1      -3.869  94.408 118.134  0.00  0.00    -0.090 HD
ENDBRANCH   5  18
BRANCH   3  22
ATOM     22  C   LIG d   1      -6.154  89.865 116.077  0.00  0.00     0.382 C 
ATOM     23  O   LIG d   1      -7.040  89.350 116.801  0.00  0.00    -0.241 OA
ATOM     24  O   LIG d   1      -6.183  89.679 114.846  0.00  0.00    -0.241 OA
ENDBRANCH   3  22
TORSDOF 7
ENDMDL
