MODEL 1
REMARK VINA RESULT:      -5.7      0.000      0.000
REMARK  7 active torsions:
REMARK  status: ('A' for Active; 'I' for Inactive)
REMARK    1  A    between atoms: C_2  and  C_3 
REMARK    2  A    between atoms: C_3  and  O_6 
REMARK    3  A    between atoms: C_3  and  C_4 
REMARK    4  A    between atoms: C_7  and  O_6 
REMARK    5  A    between atoms: C_9  and  C_10 
REMARK    6  A    between atoms: N_15  and  C_14 
REMARK    7  A    between atoms: N_20  and  C_19 
REMARK       I    between atoms: C_22  and  N_20 
ROOT
ATOM      1  C   LIG d   1      -4.639  91.477 117.783  0.00  0.00     0.161 C 
ATOM      2  C   LIG d   1      -5.351  90.654 116.894  0.00  0.00     0.016 C 
ATOM      3  C   LIG d   1      -6.513  91.073 116.207  0.00  0.00     0.038 C 
ATOM      4  C   LIG d   1      -6.961  92.402 116.248  0.00  0.00     0.028 C 
ATOM      5  C   LIG d   1      -6.567  93.134 117.527  0.00  0.00    -0.047 C 
ATOM      6  C   LIG d   1      -5.048  92.965 117.755  0.00  0.00     0.091 C 
ENDROOT
BRANCH   1   7
ATOM      7  O   LIG d   1      -3.224  91.342 117.548  0.00  0.00    -0.368 OA
BRANCH   7   8
ATOM      8  C   LIG d   1      -2.454  90.741 118.618  0.00  0.00     0.119 C 
BRANCH   8   9
ATOM      9  C   LIG d   1      -1.018  91.293 118.522  0.00  0.00     0.028 C 
ATOM     10  C   LIG d   1      -0.564  91.976 119.823  0.00  0.00     0.006 C 
ENDBRANCH   8   9
BRANCH   8  11
ATOM     11  C   LIG d   1      -2.321  89.228 118.427  0.00  0.00     0.028 C 
ATOM     12  C   LIG d   1      -2.868  88.426 119.619  0.00  0.00     0.006 C 
ENDBRANCH   8  11
ENDBRANCH   7   8
ENDBRANCH   1   7
BRANCH   6  13
ATOM     13  N   LIG d   1      -4.594  93.580 119.030  0.00  0.00    -0.311 N 
ATOM     14  C   LIG d   1      -3.460  94.268 119.149  0.00  0.00     0.210 C 
ATOM     15  C   LIG d   1      -3.171  94.800 120.556  0.00  0.00     0.109 C 
ATOM     16  O   LIG d   1      -2.681  94.515 118.215  0.00  0.00    -0.276 OA
ATOM     17  H   LIG d   1      -5.181  93.455 119.831  0.00  0.00     0.149 HD
ENDBRANCH   6  13
BRANCH   5  18
ATOM     18  N   LIG d   1      -6.976  94.544 117.377  0.00  0.00     0.381 N 
ATOM     19  H   LIG d   1      -7.018  94.783 116.406  0.00  0.00    -0.090 HD
ATOM     20  H   LIG d   1      -6.288  95.130 117.816  0.00  0.00    -0.090 HD
ATOM     21  H   LIG d   1      -7.866  94.688 117.801  0.00  0.00    -0.090 HD
ENDBRANCH   5  18
BRANCH   3  22
ATOM     22  C   LIG d   1      -7.265  90.147 115.501  0.00  0.00     0.382 C 
ATOM     23  O   LIG d   1      -8.198  89.530 116.070  0.00  0.00    -0.241 OA
ATOM     24  O   LIG d   1      -6.994  89.887 114.313  0.00  0.00    -0.241 OA
ENDBRANCH   3  22
TORSDOF 7
ENDMDL
MODEL 2
REMARK VINA RESULT:      -5.4      1.768      2.370
REMARK  7 active torsions:
REMARK  status: ('A' for Active; 'I' for Inactive)
REMARK    1  A    between atoms: C_2  and  C_3 
REMARK    2  A    between atoms: C_3  and  O_6 
REMARK    3  A    between atoms: C_3  and  C_4 
REMARK    4  A    between atoms: C_7  and  O_6 
REMARK    5  A    between atoms: C_9  and  C_10 
REMARK    6  A    between atoms: N_15  and  C_14 
REMARK    7  A    between atoms: N_20  and  C_19 
REMARK       I    between atoms: C_22  and  N_20 
ROOT
ATOM      1  C   LIG d   1      -4.807  92.406 117.871  0.00  0.00     0.161 C 
ATOM      2  C   LIG d   1      -4.969  91.440 116.864  0.00  0.00     0.016 C 
ATOM      3  C   LIG d   1      -6.143  91.317 116.085  0.00  0.00     0.038 C 
ATOM      4  C   LIG d   1      -7.183  92.254 116.160  0.00  0.00     0.028 C 
ATOM      5  C   LIG d   1      -7.279  92.947 117.515  0.00  0.00    -0.047 C 
ATOM      6  C   LIG d   1      -5.888  93.507 117.891  0.00  0.00     0.091 C 
ENDROOT
BRANCH   1   7
ATOM      7  O   LIG d   1      -3.494  92.993 117.779  0.00  0.00    -0.368 OA
BRANCH   7   8
ATOM      8  C   LIG d   1      -2.546  92.600 118.801  0.00  0.00     0.119 C 
BRANCH   8   9
ATOM      9  C   LIG d   1      -1.745  93.855 119.197  0.00  0.00     0.028 C 
ATOM     10  C   LIG d   1      -2.429  95.156 118.742  0.00  0.00     0.006 C 
ENDBRANCH   8   9
BRANCH   8  11
ATOM     11  C   LIG d   1      -1.510  91.615 118.251  0.00  0.00     0.028 C 
ATOM     12  C   LIG d   1      -0.190  92.296 117.859  0.00  0.00     0.006 C 
ENDBRANCH   8  11
ENDBRANCH   7   8
ENDBRANCH   1   7
BRANCH   6  13
ATOM     13  N   LIG d   1      -5.873  94.128 119.241  0.00  0.00    -0.311 N 
ATOM     14  C   LIG d   1      -6.198  95.400 119.467  0.00  0.00     0.210 C 
ATOM     15  C   LIG d   1      -6.096  95.843 120.930  0.00  0.00     0.109 C 
ATOM     16  O   LIG d   1      -6.592  96.193 118.599  0.00  0.00    -0.276 OA
ATOM     17  H   LIG d   1      -5.595  93.546 120.007  0.00  0.00     0.149 HD
ENDBRANCH   6  13
BRANCH   5  18
ATOM     18  N   LIG d   1      -8.313  93.994 117.408  0.00  0.00     0.381 N 
ATOM     19  H   LIG d   1      -7.913  94.888 117.610  0.00  0.00    -0.090 HD
ATOM     20  H   LIG d   1      -9.032  93.810 118.086  0.00  0.00    -0.090 HD
ATOM     21  H   LIG d   1      -8.704  93.995 116.492  0.00  0.00    -0.090 HD
ENDBRANCH   5  18
BRANCH   3  22
ATOM     22  C   LIG d   1      -6.300  90.222 115.248  0.00  0.00     0.382 C 
ATOM     23  O   LIG d   1      -7.374  90.064 114.619  0.00  0.00    -0.241 OA
ATOM     24  O   LIG d   1      -5.400  89.368 115.150  0.00  0.00    -0.241 OA
ENDBRANCH   3  22
TORSDOF 7
ENDMDL
MODEL 3
REMARK VINA RESULT:      -5.3      2.334      4.747
REMARK  7 active torsions:
REMARK  status: ('A' for Active; 'I' for Inactive)
REMARK    1  A    between atoms: C_2  and  C_3 
REMARK    2  A    between atoms: C_3  and  O_6 
REMARK    3  A    between atoms: C_3  and  C_4 
REMARK    4  A    between atoms: C_7  and  O_6 
REMARK    5  A    between atoms: C_9  and  C_10 
REMARK    6  A    between atoms: N_15  and  C_14 
REMARK    7  A    between atoms: N_20  and  C_19 
REMARK       I    between atoms: C_22  and  N_20 
ROOT
ATOM      1  C   LIG d   1      -6.174  93.214 117.915  0.00  0.00     0.161 C 
ATOM      2  C   LIG d   1      -6.942  92.301 117.174  0.00  0.00     0.016 C 
ATOM      3  C   LIG d   1      -6.408  91.129 116.591  0.00  0.00     0.038 C 
ATOM      4  C   LIG d   1      -5.093  90.710 116.838  0.00  0.00     0.028 C 
ATOM      5  C   LIG d   1      -4.143  91.858 117.164  0.00  0.00    -0.047 C 
ATOM      6  C   LIG d   1      -4.762  92.717 118.290  0.00  0.00     0.091 C 
ENDROOT
BRANCH   1   7
ATOM      7  O   LIG d   1      -6.895  93.612 119.098  0.00  0.00    -0.368 OA
BRANCH   7   8
ATOM      8  C   LIG d   1      -6.944  95.035 119.367  0.00  0.00     0.119 C 
BRANCH   8   9
ATOM      9  C   LIG d   1      -7.882  95.247 120.570  0.00  0.00     0.028 C 
ATOM     10  C   LIG d   1      -9.207  94.480 120.424  0.00  0.00     0.006 C 
ENDBRANCH   8   9
BRANCH   8  11
ATOM     11  C   LIG d   1      -7.592  95.799 118.208  0.00  0.00     0.028 C 
ATOM     12  C   LIG d   1      -7.153  97.270 118.145  0.00  0.00     0.006 C 
ENDBRANCH   8  11
ENDBRANCH   7   8
ENDBRANCH   1   7
BRANCH   6  13
ATOM     13  N   LIG d   1      -3.936  93.910 118.611  0.00  0.00    -0.311 N 
ATOM     14  C   LIG d   1      -3.014  93.926 119.572  0.00  0.00     0.210 C 
ATOM     15  C   LIG d   1      -2.290  95.264 119.751  0.00  0.00     0.109 C 
ATOM     16  O   LIG d   1      -2.704  92.950 120.272  0.00  0.00    -0.276 OA
ATOM     17  H   LIG d   1      -4.100  94.737 118.071  0.00  0.00     0.149 HD
ENDBRANCH   6  13
BRANCH   5  18
ATOM     18  N   LIG d   1      -2.842  91.269 117.535  0.00  0.00     0.381 N 
ATOM     19  H   LIG d   1      -2.100  91.843 117.189  0.00  0.00    -0.090 HD
ATOM     20  H   LIG d   1      -2.764  90.361 117.110  0.00  0.00    -0.090 HD
ATOM     21  H   LIG d   1      -2.775  91.187 118.525  0.00  0.00    -0.090 HD
ENDBRANCH   5  18
BRANCH   3  22
ATOM     22  C   LIG d   1      -7.184  90.382 115.716  0.00  0.00     0.382 C 
ATOM     23  O   LIG d   1      -7.072  90.552 114.478  0.00  0.00    -0.241 OA
ATOM     24  O   LIG d   1      -8.025  89.573 116.151  0.00  0.00    -0.241 OA
ENDBRANCH   3  22
TORSDOF 7
ENDMDL
MODEL 4
REMARK VINA RESULT:      -5.2      2.524      4.911
REMARK  7 active torsions:
REMARK  status: ('A' for Active; 'I' for Inactive)
REMARK    1  A    between atoms: C_2  and  C_3 
REMARK    2  A    between atoms: C_3  and  O_6 
REMARK    3  A    between atoms: C_3  and  C_4 
REMARK    4  A    between atoms: C_7  and  O_6 
REMARK    5  A    between atoms: C_9  and  C_10 
REMARK    6  A    between atoms: N_15  and  C_14 
REMARK    7  A    between atoms: N_20  and  C_19 
REMARK       I    between atoms: C_22  and  N_20 
ROOT
ATOM      1  C   LIG d   1      -5.089  93.493 118.699  0.00  0.00     0.161 C 
ATOM      2  C   LIG d   1      -5.261  94.642 119.488  0.00  0.00     0.016 C 
ATOM      3  C   LIG d   1      -6.421  95.449 119.445  0.00  0.00     0.038 C 
ATOM      4  C   LIG d   1      -7.558  95.074 118.714  0.00  0.00     0.028 C 
ATOM      5  C   LIG d   1      -7.242  94.190 117.513  0.00  0.00    -0.047 C 
ATOM      6  C   LIG d   1      -6.364  93.007 117.978  0.00  0.00     0.091 C 
ENDROOT
BRANCH   1   7
ATOM      7  O   LIG d   1      -4.529  92.431 119.497  0.00  0.00    -0.368 OA
BRANCH   7   8
ATOM      8  C   LIG d   1      -3.096  92.244 119.393  0.00  0.00     0.119 C 
BRANCH   8   9
ATOM      9  C   LIG d   1      -2.658  92.779 118.016  0.00  0.00     0.028 C 
ATOM     10  C   LIG d   1      -1.412  93.676 118.104  0.00  0.00     0.006 C 
ENDBRANCH   8   9
BRANCH   8  11
ATOM     11  C   LIG d   1      -2.727  90.758 119.387  0.00  0.00     0.028 C 
ATOM     12  C   LIG d   1      -3.400  89.981 118.244  0.00  0.00     0.006 C 
ENDBRANCH   8  11
ENDBRANCH   7   8
ENDBRANCH   1   7
BRANCH   6  13
ATOM     13  N   LIG d   1      -5.938  92.138 116.849  0.00  0.00    -0.311 N 
ATOM     14  C   LIG d   1      -6.590  91.034 116.488  0.00  0.00     0.210 C 
ATOM     15  C   LIG d   1      -5.971  90.275 115.310  0.00  0.00     0.109 C 
ATOM     16  O   LIG d   1      -7.640  90.630 117.010  0.00  0.00    -0.276 OA
ATOM     17  H   LIG d   1      -5.114  92.410 116.350  0.00  0.00     0.149 HD
ENDBRANCH   6  13
BRANCH   5  18
ATOM     18  N   LIG d   1      -8.525  93.762 116.924  0.00  0.00     0.381 N 
ATOM     19  H   LIG d   1      -9.062  93.267 117.608  0.00  0.00    -0.090 HD
ATOM     20  H   LIG d   1      -8.340  93.140 116.157  0.00  0.00    -0.090 HD
ATOM     21  H   LIG d   1      -9.034  94.556 116.602  0.00  0.00    -0.090 HD
ENDBRANCH   5  18
BRANCH   3  22
ATOM     22  C   LIG d   1      -6.436  96.667 120.108  0.00  0.00     0.382 C 
ATOM     23  O   LIG d   1      -5.364  97.292 120.295  0.00  0.00    -0.241 OA
ATOM     24  O   LIG d   1      -7.501  97.127 120.560  0.00  0.00    -0.241 OA
ENDBRANCH   3  22
TORSDOF 7
ENDMDL
MODEL 5
REMARK VINA RESULT:      -5.2      2.005      5.015
REMARK  7 active torsions:
REMARK  status: ('A' for Active; 'I' for Inactive)
REMARK    1  A    between atoms: C_2  and  C_3 
REMARK    2  A    between atoms: C_3  and  O_6 
REMARK    3  A    between atoms: C_3  and  C_4 
REMARK    4  A    between atoms: C_7  and  O_6 
REMARK    5  A    between atoms: C_9  and  C_10 
REMARK    6  A    between atoms: N_15  and  C_14 
REMARK    7  A    between atoms: N_20  and  C_19 
REMARK       I    between atoms: C_22  and  N_20 
ROOT
ATOM      1  C   LIG d   1      -4.879  93.026 118.207  0.00  0.00     0.161 C 
ATOM      2  C   LIG d   1      -4.743  94.053 119.155  0.00  0.00     0.016 C 
ATOM      3  C   LIG d   1      -5.766  94.986 119.443  0.00  0.00     0.038 C 
ATOM      4  C   LIG d   1      -7.056  94.861 118.908  0.00  0.00     0.028 C 
ATOM      5  C   LIG d   1      -7.087  94.140 117.564  0.00  0.00    -0.047 C 
ATOM      6  C   LIG d   1      -6.317  92.805 117.693  0.00  0.00     0.091 C 
ENDROOT
BRANCH   1   7
ATOM      7  O   LIG d   1      -4.342  91.797 118.737  0.00  0.00    -0.368 OA
BRANCH   7   8
ATOM      8  C   LIG d   1      -3.147  91.293 118.092  0.00  0.00     0.119 C 
BRANCH   8   9
ATOM      9  C   LIG d   1      -3.206  89.754 118.145  0.00  0.00     0.028 C 
ATOM     10  C   LIG d   1      -1.820  89.120 118.347  0.00  0.00     0.006 C 
ENDBRANCH   8   9
BRANCH   8  11
ATOM     11  C   LIG d   1      -1.888  91.678 118.874  0.00  0.00     0.028 C 
ATOM     12  C   LIG d   1      -1.124  92.848 118.236  0.00  0.00     0.006 C 
ENDBRANCH   8  11
ENDBRANCH   7   8
ENDBRANCH   1   7
BRANCH   6  13
ATOM     13  N   LIG d   1      -6.227  92.076 116.401  0.00  0.00    -0.311 N 
ATOM     14  C   LIG d   1      -6.905  90.960 116.141  0.00  0.00     0.210 C 
ATOM     15  C   LIG d   1      -6.651  90.358 114.755  0.00  0.00     0.109 C 
ATOM     16  O   LIG d   1      -7.716  90.428 116.914  0.00  0.00    -0.276 OA
ATOM     17  H   LIG d   1      -5.615  92.455 115.705  0.00  0.00     0.149 HD
ENDBRANCH   6  13
BRANCH   5  18
ATOM     18  N   LIG d   1      -8.502  93.957 117.189  0.00  0.00     0.381 N 
ATOM     19  H   LIG d   1      -9.015  93.595 117.968  0.00  0.00    -0.090 HD
ATOM     20  H   LIG d   1      -8.556  93.291 116.439  0.00  0.00    -0.090 HD
ATOM     21  H   LIG d   1      -8.893  94.827 116.899  0.00  0.00    -0.090 HD
ENDBRANCH   5  18
BRANCH   3  22
ATOM     22  C   LIG d   1      -5.489  96.082 120.246  0.00  0.00     0.382 C 
ATOM     23  O   LIG d   1      -4.308  96.321 120.597  0.00  0.00    -0.241 OA
ATOM     24  O   LIG d   1      -6.411  96.810 120.661  0.00  0.00    -0.241 OA
ENDBRANCH   3  22
TORSDOF 7
ENDMDL
MODEL 6
REMARK VINA RESULT:      -4.9      1.758      4.470
REMARK  7 active torsions:
REMARK  status: ('A' for Active; 'I' for Inactive)
REMARK    1  A    between atoms: C_2  and  C_3 
REMARK    2  A    between atoms: C_3  and  O_6 
REMARK    3  A    between atoms: C_3  and  C_4 
REMARK    4  A    between atoms: C_7  and  O_6 
REMARK    5  A    between atoms: C_9  and  C_10 
REMARK    6  A    between atoms: N_15  and  C_14 
REMARK    7  A    between atoms: N_20  and  C_19 
REMARK       I    between atoms: C_22  and  N_20 
ROOT
ATOM      1  C   LIG d   1      -4.312  92.078 117.411  0.00  0.00     0.161 C 
ATOM      2  C   LIG d   1      -3.773  93.148 118.144  0.00  0.00     0.016 C 
ATOM      3  C   LIG d   1      -4.552  94.008 118.952  0.00  0.00     0.038 C 
ATOM      4  C   LIG d   1      -5.910  93.761 119.204  0.00  0.00     0.028 C 
ATOM      5  C   LIG d   1      -6.602  92.989 118.086  0.00  0.00    -0.047 C 
ATOM      6  C   LIG d   1      -5.773  91.725 117.761  0.00  0.00     0.091 C 
ENDROOT
BRANCH   1   7
ATOM      7  O   LIG d   1      -3.469  90.917 117.551  0.00  0.00    -0.368 OA
BRANCH   7   8
ATOM      8  C   LIG d   1      -2.398  91.020 118.521  0.00  0.00     0.119 C 
BRANCH   8   9
ATOM      9  C   LIG d   1      -1.101  90.558 117.829  0.00  0.00     0.028 C 
ATOM     10  C   LIG d   1      -0.039  91.669 117.773  0.00  0.00     0.006 C 
ENDBRANCH   8   9
BRANCH   8  11
ATOM     11  C   LIG d   1      -2.605  90.046 119.685  0.00  0.00     0.028 C 
ATOM     12  C   LIG d   1      -2.683  88.581 119.230  0.00  0.00     0.006 C 
ENDBRANCH   8  11
ENDBRANCH   7   8
ENDBRANCH   1   7
BRANCH   6  13
ATOM     13  N   LIG d   1      -6.336  90.956 116.621  0.00  0.00    -0.311 N 
ATOM     14  C   LIG d   1      -6.588  91.492 115.428  0.00  0.00     0.210 C 
ATOM     15  C   LIG d   1      -7.185  90.528 114.398  0.00  0.00     0.109 C 
ATOM     16  O   LIG d   1      -6.343  92.667 115.115  0.00  0.00    -0.276 OA
ATOM     17  H   LIG d   1      -6.535  89.987 116.778  0.00  0.00     0.149 HD
ENDBRANCH   6  13
BRANCH   5  18
ATOM     18  N   LIG d   1      -7.972  92.681 118.539  0.00  0.00     0.381 N 
ATOM     19  H   LIG d   1      -7.941  91.995 119.268  0.00  0.00    -0.090 HD
ATOM     20  H   LIG d   1      -8.491  92.299 117.769  0.00  0.00    -0.090 HD
ATOM     21  H   LIG d   1      -8.415  93.509 118.871  0.00  0.00    -0.090 HD
ENDBRANCH   5  18
BRANCH   3  22
ATOM     22  C   LIG d   1      -3.981  95.153 119.487  0.00  0.00     0.382 C 
ATOM     23  O   LIG d   1      -4.653  95.895 120.242  0.00  0.00    -0.241 OA
ATOM     24  O   LIG d   1      -2.815  95.476 119.189  0.00  0.00    -0.241 OA
ENDBRANCH   3  22
TORSDOF 7
ENDMDL
MODEL 7
REMARK VINA RESULT:      -4.7      1.761      2.566
REMARK  7 active torsions:
REMARK  status: ('A' for Active; 'I' for Inactive)
REMARK    1  A    between atoms: C_2  and  C_3 
REMARK    2  A    between atoms: C_3  and  O_6 
REMARK    3  A    between atoms: C_3  and  C_4 
REMARK    4  A    between atoms: C_7  and  O_6 
REMARK    5  A    between atoms: C_9  and  C_10 
REMARK    6  A    between atoms: N_15  and  C_14 
REMARK    7  A    between atoms: N_20  and  C_19 
REMARK       I    between atoms: C_22  and  N_20 
ROOT
ATOM      1  C   LIG d   1      -3.555  91.159 118.641  0.00  0.00     0.161 C 
ATOM      2  C   LIG d   1      -4.839  90.937 118.117  0.00  0.00     0.016 C 
ATOM      3  C   LIG d   1      -5.762  91.975 117.852  0.00  0.00     0.038 C 
ATOM      4  C   LIG d   1      -5.405  93.328 117.952  0.00  0.00     0.028 C 
ATOM      5  C   LIG d   1      -4.288  93.587 118.957  0.00  0.00    -0.047 C 
ATOM      6  C   LIG d   1      -3.108  92.636 118.652  0.00  0.00     0.091 C 
ENDROOT
BRANCH   1   7
ATOM      7  O   LIG d   1      -2.593  90.349 117.936  0.00  0.00    -0.368 OA
BRANCH   7   8
ATOM      8  C   LIG d   1      -1.752  89.501 118.756  0.00  0.00     0.119 C 
BRANCH   8   9
ATOM      9  C   LIG d   1      -0.640  88.938 117.850  0.00  0.00     0.028 C 
ATOM     10  C   LIG d   1       0.760  89.115 118.461  0.00  0.00     0.006 C 
ENDBRANCH   8   9
BRANCH   8  11
ATOM     11  C   LIG d   1      -2.521  88.277 119.263  0.00  0.00     0.028 C 
ATOM     12  C   LIG d   1      -2.573  88.200 120.797  0.00  0.00     0.006 C 
ENDBRANCH   8  11
ENDBRANCH   7   8
ENDBRANCH   1   7
BRANCH   6  13
ATOM     13  N   LIG d   1      -2.006  92.765 119.641  0.00  0.00    -0.311 N 
ATOM     14  C   LIG d   1      -0.723  92.875 119.299  0.00  0.00     0.210 C 
ATOM     15  C   LIG d   1       0.253  92.976 120.475  0.00  0.00     0.109 C 
ATOM     16  O   LIG d   1      -0.304  92.931 118.133  0.00  0.00    -0.276 OA
ATOM     17  H   LIG d   1      -2.259  92.760 120.609  0.00  0.00     0.149 HD
ENDBRANCH   6  13
BRANCH   5  18
ATOM     18  N   LIG d   1      -3.922  95.012 118.860  0.00  0.00     0.381 N 
ATOM     19  H   LIG d   1      -2.959  95.133 119.106  0.00  0.00    -0.090 HD
ATOM     20  H   LIG d   1      -4.481  95.537 119.509  0.00  0.00    -0.090 HD
ATOM     21  H   LIG d   1      -4.078  95.342 117.933  0.00  0.00    -0.090 HD
ENDBRANCH   5  18
BRANCH   3  22
ATOM     22  C   LIG d   1      -7.071  91.663 117.519  0.00  0.00     0.382 C 
ATOM     23  O   LIG d   1      -7.327  90.592 116.918  0.00  0.00    -0.241 OA
ATOM     24  O   LIG d   1      -7.995  92.459 117.774  0.00  0.00    -0.241 OA
ENDBRANCH   3  22
TORSDOF 7
ENDMDL
MODEL 8
REMARK VINA RESULT:      -4.6      2.272      4.488
REMARK  7 active torsions:
REMARK  status: ('A' for Active; 'I' for Inactive)
REMARK    1  A    between atoms: C_2  and  C_3 
REMARK    2  A    between atoms: C_3  and  O_6 
REMARK    3  A    between atoms: C_3  and  C_4 
REMARK    4  A    between atoms: C_7  and  O_6 
REMARK    5  A    between atoms: C_9  and  C_10 
REMARK    6  A    between atoms: N_15  and  C_14 
REMARK    7  A    between atoms: N_20  and  C_19 
REMARK       I    between atoms: C_22  and  N_20 
ROOT
ATOM      1  C   LIG d   1      -4.107  92.987 118.655  0.00  0.00     0.161 C 
ATOM      2  C   LIG d   1      -5.201  92.949 117.775  0.00  0.00     0.016 C 
ATOM      3  C   LIG d   1      -5.505  91.836 116.958  0.00  0.00     0.038 C 
ATOM      4  C   LIG d   1      -4.818  90.620 117.077  0.00  0.00     0.028 C 
ATOM      5  C   LIG d   1      -3.390  90.778 117.589  0.00  0.00    -0.047 C 
ATOM      6  C   LIG d   1      -3.411  91.628 118.880  0.00  0.00     0.091 C 
ENDROOT
BRANCH   1   7
ATOM      7  O   LIG d   1      -4.512  93.557 119.915  0.00  0.00    -0.368 OA
BRANCH   7   8
ATOM      8  C   LIG d   1      -4.003  94.881 120.209  0.00  0.00     0.119 C 
BRANCH   8   9
ATOM      9  C   LIG d   1      -5.152  95.881 119.974  0.00  0.00     0.028 C 
ATOM     10  C   LIG d   1      -6.508  95.342 120.460  0.00  0.00     0.006 C 
ENDBRANCH   8   9
BRANCH   8  11
ATOM     11  C   LIG d   1      -2.904  95.287 119.223  0.00  0.00     0.028 C 
ATOM     12  C   LIG d   1      -2.717  96.810 119.133  0.00  0.00     0.006 C 
ENDBRANCH   8  11
ENDBRANCH   7   8
ENDBRANCH   1   7
BRANCH   6  13
ATOM     13  N   LIG d   1      -2.046  91.902 119.401  0.00  0.00    -0.311 N 
ATOM     14  C   LIG d   1      -1.451  91.152 120.326  0.00  0.00     0.210 C 
ATOM     15  C   LIG d   1      -0.052  91.622 120.737  0.00  0.00     0.109 C 
ATOM     16  O   LIG d   1      -1.935  90.124 120.823  0.00  0.00    -0.276 OA
ATOM     17  H   LIG d   1      -1.568  92.699 119.029  0.00  0.00     0.149 HD
ENDBRANCH   6  13
BRANCH   5  18
ATOM     18  N   LIG d   1      -2.838  89.426 117.796  0.00  0.00     0.381 N 
ATOM     19  H   LIG d   1      -1.933  89.361 117.373  0.00  0.00    -0.090 HD
ATOM     20  H   LIG d   1      -3.442  88.757 117.352  0.00  0.00    -0.090 HD
ATOM     21  H   LIG d   1      -2.772  89.230 118.771  0.00  0.00    -0.090 HD
ENDBRANCH   5  18
BRANCH   3  22
ATOM     22  C   LIG d   1      -6.482  91.948 115.980  0.00  0.00     0.382 C 
ATOM     23  O   LIG d   1      -7.401  91.097 115.913  0.00  0.00    -0.241 OA
ATOM     24  O   LIG d   1      -6.430  92.864 115.138  0.00  0.00    -0.241 OA
ENDBRANCH   3  22
TORSDOF 7
ENDMDL
MODEL 9
REMARK VINA RESULT:      -4.4      2.641      4.771
REMARK  7 active torsions:
REMARK  status: ('A' for Active; 'I' for Inactive)
REMARK    1  A    between atoms: C_2  and  C_3 
REMARK    2  A    between atoms: C_3  and  O_6 
REMARK    3  A    between atoms: C_3  and  C_4 
REMARK    4  A    between atoms: C_7  and  O_6 
REMARK    5  A    between atoms: C_9  and  C_10 
REMARK    6  A    between atoms: N_15  and  C_14 
REMARK    7  A    between atoms: N_20  and  C_19 
REMARK       I    between atoms: C_22  and  N_20 
ROOT
ATOM      1  C   LIG d   1      -5.042  92.602 120.070  0.00  0.00     0.161 C 
ATOM      2  C   LIG d   1      -3.995  91.787 119.608  0.00  0.00     0.016 C 
ATOM      3  C   LIG d   1      -4.056  91.050 118.403  0.00  0.00     0.038 C 
ATOM      4  C   LIG d   1      -5.116  91.197 117.497  0.00  0.00     0.028 C 
ATOM      5  C   LIG d   1      -6.424  91.620 118.158  0.00  0.00    -0.047 C 
ATOM      6  C   LIG d   1      -6.162  92.861 119.040  0.00  0.00     0.091 C 
ENDROOT
BRANCH   1   7
ATOM      7  O   LIG d   1      -4.512  93.850 120.559  0.00  0.00    -0.368 OA
BRANCH   7   8
ATOM      8  C   LIG d   1      -4.342  94.899 119.575  0.00  0.00     0.119 C 
BRANCH   8   9
ATOM      9  C   LIG d   1      -2.840  95.237 119.513  0.00  0.00     0.028 C 
ATOM     10  C   LIG d   1      -2.143  94.591 118.303  0.00  0.00     0.006 C 
ENDBRANCH   8   9
BRANCH   8  11
ATOM     11  C   LIG d   1      -5.031  96.194 120.016  0.00  0.00     0.028 C 
ATOM     12  C   LIG d   1      -4.111  97.421 119.920  0.00  0.00     0.006 C 
ENDBRANCH   8  11
ENDBRANCH   7   8
ENDBRANCH   1   7
BRANCH   6  13
ATOM     13  N   LIG d   1      -7.371  93.290 119.790  0.00  0.00    -0.311 N 
ATOM     14  C   LIG d   1      -8.209  94.229 119.354  0.00  0.00     0.210 C 
ATOM     15  C   LIG d   1      -9.383  94.533 120.290  0.00  0.00     0.109 C 
ATOM     16  O   LIG d   1      -8.110  94.816 118.266  0.00  0.00    -0.276 OA
ATOM     17  H   LIG d   1      -7.546  92.843 120.668  0.00  0.00     0.149 HD
ENDBRANCH   6  13
BRANCH   5  18
ATOM     18  N   LIG d   1      -7.405  91.869 117.085  0.00  0.00     0.381 N 
ATOM     19  H   LIG d   1      -8.055  91.110 117.037  0.00  0.00    -0.090 HD
ATOM     20  H   LIG d   1      -6.920  91.925 116.207  0.00  0.00    -0.090 HD
ATOM     21  H   LIG d   1      -7.891  92.721 117.259  0.00  0.00    -0.090 HD
ENDBRANCH   5  18
BRANCH   3  22
ATOM     22  C   LIG d   1      -3.065  90.124 118.114  0.00  0.00     0.382 C 
ATOM     23  O   LIG d   1      -1.964  90.507 117.651  0.00  0.00    -0.241 OA
ATOM     24  O   LIG d   1      -3.275  88.906 118.268  0.00  0.00    -0.241 OA
ENDBRANCH   3  22
TORSDOF 7
ENDMDL
