MODEL 1
REMARK VINA RESULT:      -5.6      0.000      0.000
REMARK  7 active torsions:
REMARK  status: ('A' for Active; 'I' for Inactive)
REMARK    1  A    between atoms: C_2  and  C_3 
REMARK    2  A    between atoms: C_3  and  O_6 
REMARK    3  A    between atoms: C_3  and  C_4 
REMARK    4  A    between atoms: C_7  and  O_6 
REMARK    5  A    between atoms: C_9  and  C_10 
REMARK    6  A    between atoms: N_15  and  C_14 
REMARK    7  A    between atoms: N_20  and  C_19 
REMARK       I    between atoms: C_22  and  N_20 
ROOT
ATOM      1  C   LIG d   1      -5.718  92.605 117.594  0.00  0.00     0.161 C 
ATOM      2  C   LIG d   1      -6.584  91.621 117.089  0.00  0.00     0.016 C 
ATOM      3  C   LIG d   1      -6.153  90.331 116.701  0.00  0.00     0.038 C 
ATOM      4  C   LIG d   1      -4.844  89.885 116.936  0.00  0.00     0.028 C 
ATOM      5  C   LIG d   1      -3.818  91.012 116.977  0.00  0.00    -0.047 C 
ATOM      6  C   LIG d   1      -4.307  92.100 117.960  0.00  0.00     0.091 C 
ENDROOT
BRANCH   1   7
ATOM      7  O   LIG d   1      -6.327  93.257 118.726  0.00  0.00    -0.368 OA
BRANCH   7   8
ATOM      8  C   LIG d   1      -7.175  94.393 118.428  0.00  0.00     0.119 C 
BRANCH   8   9
ATOM      9  C   LIG d   1      -6.581  95.617 119.152  0.00  0.00     0.028 C 
ATOM     10  C   LIG d   1      -5.524  95.224 120.198  0.00  0.00     0.006 C 
ENDBRANCH   8   9
BRANCH   8  11
ATOM     11  C   LIG d   1      -8.577  94.213 119.019  0.00  0.00     0.028 C 
ATOM     12  C   LIG d   1      -8.658  93.043 120.012  0.00  0.00     0.006 C 
ENDBRANCH   8  11
ENDBRANCH   7   8
ENDBRANCH   1   7
BRANCH   6  13
ATOM     13  N   LIG d   1      -3.403  93.279 117.998  0.00  0.00    -0.311 N 
ATOM     14  C   LIG d   1      -2.420  93.421 118.885  0.00  0.00     0.210 C 
ATOM     15  C   LIG d   1      -1.619  94.721 118.760  0.00  0.00     0.109 C 
ATOM     16  O   LIG d   1      -2.115  92.579 119.744  0.00  0.00    -0.276 OA
ATOM     17  H   LIG d   1      -3.560  93.996 117.317  0.00  0.00     0.149 HD
ENDBRANCH   6  13
BRANCH   5  18
ATOM     18  N   LIG d   1      -2.523  90.422 117.365  0.00  0.00     0.381 N 
ATOM     19  H   LIG d   1      -2.664  89.496 117.716  0.00  0.00    -0.090 HD
ATOM     20  H   LIG d   1      -2.119  90.979 118.098  0.00  0.00    -0.090 HD
ATOM     21  H   LIG d   1      -1.910  90.398 116.580  0.00  0.00    -0.090 HD
ENDBRANCH   5  18
BRANCH   3  22
ATOM     22  C   LIG d   1      -7.027  89.486 116.035  0.00  0.00     0.382 C 
ATOM     23  O   LIG d   1      -7.851  88.797 116.684  0.00  0.00    -0.241 OA
ATOM     24  O   LIG d   1      -6.973  89.370 114.796  0.00  0.00    -0.241 OA
ENDBRANCH   3  22
TORSDOF 7
ENDMDL
MODEL 2
REMARK VINA RESULT:      -5.1      0.814      1.705
REMARK  7 active torsions:
REMARK  status: ('A' for Active; 'I' for Inactive)
REMARK    1  A    between atoms: C_2  and  C_3 
REMARK    2  A    between atoms: C_3  and  O_6 
REMARK    3  A    between atoms: C_3  and  C_4 
REMARK    4  A    between atoms: C_7  and  O_6 
REMARK    5  A    between atoms: C_9  and  C_10 
REMARK    6  A    between atoms: N_15  and  C_14 
REMARK    7  A    between atoms: N_20  and  C_19 
REMARK       I    between atoms: C_22  and  N_20 
ROOT
ATOM      1  C   LIG d   1      -5.930  92.338 118.350  0.00  0.00     0.161 C 
ATOM      2  C   LIG d   1      -6.676  91.352 117.683  0.00  0.00     0.016 C 
ATOM      3  C   LIG d   1      -6.089  90.300 116.943  0.00  0.00     0.038 C 
ATOM      4  C   LIG d   1      -4.704  90.075 116.945  0.00  0.00     0.028 C 
ATOM      5  C   LIG d   1      -3.885  91.338 117.189  0.00  0.00    -0.047 C 
ATOM      6  C   LIG d   1      -4.419  92.045 118.456  0.00  0.00     0.091 C 
ENDROOT
BRANCH   1   7
ATOM      7  O   LIG d   1      -6.488  92.572 119.658  0.00  0.00    -0.368 OA
BRANCH   7   8
ATOM      8  C   LIG d   1      -7.012  93.900 119.900  0.00  0.00     0.119 C 
BRANCH   8   9
ATOM      9  C   LIG d   1      -7.048  94.637 118.547  0.00  0.00     0.028 C 
ATOM     10  C   LIG d   1      -8.483  94.924 118.073  0.00  0.00     0.006 C 
ENDBRANCH   8   9
BRANCH   8  11
ATOM     11  C   LIG d   1      -6.067  94.720 120.784  0.00  0.00     0.028 C 
ATOM     12  C   LIG d   1      -6.346  96.230 120.714  0.00  0.00     0.006 C 
ENDBRANCH   8  11
ENDBRANCH   7   8
ENDBRANCH   1   7
BRANCH   6  13
ATOM     13  N   LIG d   1      -3.728  93.334 118.719  0.00  0.00    -0.311 N 
ATOM     14  C   LIG d   1      -2.686  93.454 119.541  0.00  0.00     0.210 C 
ATOM     15  C   LIG d   1      -2.136  94.876 119.685  0.00  0.00     0.109 C 
ATOM     16  O   LIG d   1      -2.145  92.511 120.138  0.00  0.00    -0.276 OA
ATOM     17  H   LIG d   1      -4.082  94.146 118.251  0.00  0.00     0.149 HD
ENDBRANCH   6  13
BRANCH   5  18
ATOM     18  N   LIG d   1      -2.470  90.937 117.303  0.00  0.00     0.381 N 
ATOM     19  H   LIG d   1      -2.402  89.939 117.326  0.00  0.00    -0.090 HD
ATOM     20  H   LIG d   1      -2.098  91.298 118.164  0.00  0.00    -0.090 HD
ATOM     21  H   LIG d   1      -1.951  91.296 116.532  0.00  0.00    -0.090 HD
ENDBRANCH   5  18
BRANCH   3  22
ATOM     22  C   LIG d   1      -6.888  89.484 116.157  0.00  0.00     0.382 C 
ATOM     23  O   LIG d   1      -6.690  89.416 114.920  0.00  0.00    -0.241 OA
ATOM     24  O   LIG d   1      -7.831  88.848 116.663  0.00  0.00    -0.241 OA
ENDBRANCH   3  22
TORSDOF 7
ENDMDL
MODEL 3
REMARK VINA RESULT:      -5.1      2.200      4.568
REMARK  7 active torsions:
REMARK  status: ('A' for Active; 'I' for Inactive)
REMARK    1  A    between atoms: C_2  and  C_3 
REMARK    2  A    between atoms: C_3  and  O_6 
REMARK    3  A    between atoms: C_3  and  C_4 
REMARK    4  A    between atoms: C_7  and  O_6 
REMARK    5  A    between atoms: C_9  and  C_10 
REMARK    6  A    between atoms: N_15  and  C_14 
REMARK    7  A    between atoms: N_20  and  C_19 
REMARK       I    between atoms: C_22  and  N_20 
ROOT
ATOM      1  C   LIG d   1      -3.993  90.660 117.925  0.00  0.00     0.161 C 
ATOM      2  C   LIG d   1      -4.855  89.909 117.109  0.00  0.00     0.016 C 
ATOM      3  C   LIG d   1      -6.068  90.414 116.587  0.00  0.00     0.038 C 
ATOM      4  C   LIG d   1      -6.431  91.762 116.725  0.00  0.00     0.028 C 
ATOM      5  C   LIG d   1      -5.841  92.424 117.965  0.00  0.00    -0.047 C 
ATOM      6  C   LIG d   1      -4.317  92.167 117.995  0.00  0.00     0.091 C 
ENDROOT
BRANCH   1   7
ATOM      7  O   LIG d   1      -2.627  90.460 117.509  0.00  0.00    -0.368 OA
BRANCH   7   8
ATOM      8  C   LIG d   1      -1.798  89.673 118.401  0.00  0.00     0.119 C 
BRANCH   8   9
ATOM      9  C   LIG d   1      -0.332  90.061 118.130  0.00  0.00     0.028 C 
ATOM     10  C   LIG d   1       0.262  90.930 119.252  0.00  0.00     0.006 C 
ENDBRANCH   8   9
BRANCH   8  11
ATOM     11  C   LIG d   1      -1.890  88.180 118.074  0.00  0.00     0.028 C 
ATOM     12  C   LIG d   1      -2.151  87.313 119.316  0.00  0.00     0.006 C 
ENDBRANCH   8  11
ENDBRANCH   7   8
ENDBRANCH   1   7
BRANCH   6  13
ATOM     13  N   LIG d   1      -3.674  92.709 119.220  0.00  0.00    -0.311 N 
ATOM     14  C   LIG d   1      -2.556  93.434 119.202  0.00  0.00     0.210 C 
ATOM     15  C   LIG d   1      -2.051  93.878 120.578  0.00  0.00     0.109 C 
ATOM     16  O   LIG d   1      -1.953  93.779 118.175  0.00  0.00    -0.276 OA
ATOM     17  H   LIG d   1      -4.114  92.504 120.095  0.00  0.00     0.149 HD
ENDBRANCH   6  13
BRANCH   5  18
ATOM     18  N   LIG d   1      -6.184  93.858 117.911  0.00  0.00     0.381 N 
ATOM     19  H   LIG d   1      -7.111  93.998 118.260  0.00  0.00    -0.090 HD
ATOM     20  H   LIG d   1      -6.159  94.162 116.954  0.00  0.00    -0.090 HD
ATOM     21  H   LIG d   1      -5.534  94.385 118.452  0.00  0.00    -0.090 HD
ENDBRANCH   5  18
BRANCH   3  22
ATOM     22  C   LIG d   1      -6.953  89.555 115.953  0.00  0.00     0.382 C 
ATOM     23  O   LIG d   1      -7.752  88.865 116.631  0.00  0.00    -0.241 OA
ATOM     24  O   LIG d   1      -6.933  89.429 114.714  0.00  0.00    -0.241 OA
ENDBRANCH   3  22
TORSDOF 7
ENDMDL
MODEL 4
REMARK VINA RESULT:      -4.9      1.940      4.863
REMARK  7 active torsions:
REMARK  status: ('A' for Active; 'I' for Inactive)
REMARK    1  A    between atoms: C_2  and  C_3 
REMARK    2  A    between atoms: C_3  and  O_6 
REMARK    3  A    between atoms: C_3  and  C_4 
REMARK    4  A    between atoms: C_7  and  O_6 
REMARK    5  A    between atoms: C_9  and  C_10 
REMARK    6  A    between atoms: N_15  and  C_14 
REMARK    7  A    between atoms: N_20  and  C_19 
REMARK       I    between atoms: C_22  and  N_20 
ROOT
ATOM      1  C   LIG d   1      -6.266  92.315 119.034  0.00  0.00     0.161 C 
ATOM      2  C   LIG d   1      -7.518  92.952 119.002  0.00  0.00     0.016 C 
ATOM      3  C   LIG d   1      -7.684  94.349 119.144  0.00  0.00     0.038 C 
ATOM      4  C   LIG d   1      -6.590  95.226 119.177  0.00  0.00     0.028 C 
ATOM      5  C   LIG d   1      -5.317  94.586 119.719  0.00  0.00    -0.047 C 
ATOM      6  C   LIG d   1      -5.054  93.267 118.957  0.00  0.00     0.091 C 
ENDROOT
BRANCH   1   7
ATOM      7  O   LIG d   1      -6.193  91.327 117.987  0.00  0.00    -0.368 OA
BRANCH   7   8
ATOM      8  C   LIG d   1      -5.445  91.704 116.805  0.00  0.00     0.119 C 
BRANCH   8   9
ATOM      9  C   LIG d   1      -6.460  92.166 115.742  0.00  0.00     0.028 C 
ATOM     10  C   LIG d   1      -6.529  91.208 114.541  0.00  0.00     0.006 C 
ENDBRANCH   8   9
BRANCH   8  11
ATOM     11  C   LIG d   1      -4.732  90.497 116.188  0.00  0.00     0.028 C 
ATOM     12  C   LIG d   1      -3.965  89.663 117.226  0.00  0.00     0.006 C 
ENDBRANCH   8  11
ENDBRANCH   7   8
ENDBRANCH   1   7
BRANCH   6  13
ATOM     13  N   LIG d   1      -3.873  92.535 119.483  0.00  0.00    -0.311 N 
ATOM     14  C   LIG d   1      -2.652  92.641 118.960  0.00  0.00     0.210 C 
ATOM     15  C   LIG d   1      -1.580  91.784 119.641  0.00  0.00     0.109 C 
ATOM     16  O   LIG d   1      -2.349  93.388 118.018  0.00  0.00    -0.276 OA
ATOM     17  H   LIG d   1      -4.022  91.930 120.266  0.00  0.00     0.149 HD
ENDBRANCH   6  13
BRANCH   5  18
ATOM     18  N   LIG d   1      -4.226  95.568 119.569  0.00  0.00     0.381 N 
ATOM     19  H   LIG d   1      -4.465  96.415 120.044  0.00  0.00    -0.090 HD
ATOM     20  H   LIG d   1      -4.108  95.776 118.593  0.00  0.00    -0.090 HD
ATOM     21  H   LIG d   1      -3.380  95.197 119.942  0.00  0.00    -0.090 HD
ENDBRANCH   5  18
BRANCH   3  22
ATOM     22  C   LIG d   1      -8.957  94.877 119.296  0.00  0.00     0.382 C 
ATOM     23  O   LIG d   1      -9.133  96.117 119.230  0.00  0.00    -0.241 OA
ATOM     24  O   LIG d   1      -9.925  94.132 119.541  0.00  0.00    -0.241 OA
ENDBRANCH   3  22
TORSDOF 7
ENDMDL
MODEL 5
REMARK VINA RESULT:      -4.8      1.635      4.887
REMARK  7 active torsions:
REMARK  status: ('A' for Active; 'I' for Inactive)
REMARK    1  A    between atoms: C_2  and  C_3 
REMARK    2  A    between atoms: C_3  and  O_6 
REMARK    3  A    between atoms: C_3  and  C_4 
REMARK    4  A    between atoms: C_7  and  O_6 
REMARK    5  A    between atoms: C_9  and  C_10 
REMARK    6  A    between atoms: N_15  and  C_14 
REMARK    7  A    between atoms: N_20  and  C_19 
REMARK       I    between atoms: C_22  and  N_20 
ROOT
ATOM      1  C   LIG d   1      -6.496  92.036 118.489  0.00  0.00     0.161 C 
ATOM      2  C   LIG d   1      -5.453  92.861 118.942  0.00  0.00     0.016 C 
ATOM      3  C   LIG d   1      -4.110  92.718 118.523  0.00  0.00     0.038 C 
ATOM      4  C   LIG d   1      -3.743  91.830 117.500  0.00  0.00     0.028 C 
ATOM      5  C   LIG d   1      -4.676  90.630 117.377  0.00  0.00    -0.047 C 
ATOM      6  C   LIG d   1      -6.134  91.134 117.291  0.00  0.00     0.091 C 
ENDROOT
BRANCH   1   7
ATOM      7  O   LIG d   1      -7.654  92.837 118.182  0.00  0.00    -0.368 OA
BRANCH   7   8
ATOM      8  C   LIG d   1      -7.984  93.874 119.139  0.00  0.00     0.119 C 
BRANCH   8   9
ATOM      9  C   LIG d   1      -9.117  93.334 120.034  0.00  0.00     0.028 C 
ATOM     10  C   LIG d   1      -9.949  94.460 120.670  0.00  0.00     0.006 C 
ENDBRANCH   8   9
BRANCH   8  11
ATOM     11  C   LIG d   1      -8.569  95.107 118.445  0.00  0.00     0.028 C 
ATOM     12  C   LIG d   1      -7.696  96.360 118.621  0.00  0.00     0.006 C 
ENDBRANCH   8  11
ENDBRANCH   7   8
ENDBRANCH   1   7
BRANCH   6  13
ATOM     13  N   LIG d   1      -7.118  90.021 117.252  0.00  0.00    -0.311 N 
ATOM     14  C   LIG d   1      -7.595  89.503 116.122  0.00  0.00     0.210 C 
ATOM     15  C   LIG d   1      -8.615  88.375 116.307  0.00  0.00     0.109 C 
ATOM     16  O   LIG d   1      -7.246  89.849 114.983  0.00  0.00    -0.276 OA
ATOM     17  H   LIG d   1      -7.432  89.659 118.131  0.00  0.00     0.149 HD
ENDBRANCH   6  13
BRANCH   5  18
ATOM     18  N   LIG d   1      -4.258  89.862 116.189  0.00  0.00     0.381 N 
ATOM     19  H   LIG d   1      -4.949  89.948 115.470  0.00  0.00    -0.090 HD
ATOM     20  H   LIG d   1      -4.183  88.891 116.439  0.00  0.00    -0.090 HD
ATOM     21  H   LIG d   1      -3.380  90.196 115.858  0.00  0.00    -0.090 HD
ENDBRANCH   5  18
BRANCH   3  22
ATOM     22  C   LIG d   1      -3.111  93.441 119.157  0.00  0.00     0.382 C 
ATOM     23  O   LIG d   1      -1.975  92.933 119.318  0.00  0.00    -0.241 OA
ATOM     24  O   LIG d   1      -3.345  94.577 119.611  0.00  0.00    -0.241 OA
ENDBRANCH   3  22
TORSDOF 7
ENDMDL
MODEL 6
REMARK VINA RESULT:      -4.6      2.502      6.169
REMARK  7 active torsions:
REMARK  status: ('A' for Active; 'I' for Inactive)
REMARK    1  A    between atoms: C_2  and  C_3 
REMARK    2  A    between atoms: C_3  and  O_6 
REMARK    3  A    between atoms: C_3  and  C_4 
REMARK    4  A    between atoms: C_7  and  O_6 
REMARK    5  A    between atoms: C_9  and  C_10 
REMARK    6  A    between atoms: N_15  and  C_14 
REMARK    7  A    between atoms: N_20  and  C_19 
REMARK       I    between atoms: C_22  and  N_20 
ROOT
ATOM      1  C   LIG d   1      -4.048  92.022 117.426  0.00  0.00     0.161 C 
ATOM      2  C   LIG d   1      -3.534  92.806 118.472  0.00  0.00     0.016 C 
ATOM      3  C   LIG d   1      -4.344  93.408 119.463  0.00  0.00     0.038 C 
ATOM      4  C   LIG d   1      -5.717  93.141 119.562  0.00  0.00     0.028 C 
ATOM      5  C   LIG d   1      -6.358  92.762 118.231  0.00  0.00    -0.047 C 
ATOM      6  C   LIG d   1      -5.532  91.628 117.582  0.00  0.00     0.091 C 
ENDROOT
BRANCH   1   7
ATOM      7  O   LIG d   1      -3.233  90.847 117.251  0.00  0.00    -0.368 OA
BRANCH   7   8
ATOM      8  C   LIG d   1      -2.488  90.409 118.413  0.00  0.00     0.119 C 
BRANCH   8   9
ATOM      9  C   LIG d   1      -1.043  90.126 117.957  0.00  0.00     0.028 C 
ATOM     10  C   LIG d   1      -0.083  91.277 118.303  0.00  0.00     0.006 C 
ENDBRANCH   8   9
BRANCH   8  11
ATOM     11  C   LIG d   1      -3.015  89.071 118.942  0.00  0.00     0.028 C 
ATOM     12  C   LIG d   1      -2.249  87.864 118.379  0.00  0.00     0.006 C 
ENDBRANCH   8  11
ENDBRANCH   7   8
ENDBRANCH   1   7
BRANCH   6  13
ATOM     13  N   LIG d   1      -6.042  91.255 116.236  0.00  0.00    -0.311 N 
ATOM     14  C   LIG d   1      -6.576  90.067 115.958  0.00  0.00     0.210 C 
ATOM     15  C   LIG d   1      -7.020  89.882 114.504  0.00  0.00     0.109 C 
ATOM     16  O   LIG d   1      -6.753  89.160 116.786  0.00  0.00    -0.276 OA
ATOM     17  H   LIG d   1      -5.966  91.943 115.513  0.00  0.00     0.149 HD
ENDBRANCH   6  13
BRANCH   5  18
ATOM     18  N   LIG d   1      -7.755  92.376 118.503  0.00  0.00     0.381 N 
ATOM     19  H   LIG d   1      -8.210  93.097 119.028  0.00  0.00    -0.090 HD
ATOM     20  H   LIG d   1      -7.759  91.536 119.054  0.00  0.00    -0.090 HD
ATOM     21  H   LIG d   1      -8.240  92.223 117.646  0.00  0.00    -0.090 HD
ENDBRANCH   5  18
BRANCH   3  22
ATOM     22  C   LIG d   1      -3.785  94.321 120.345  0.00  0.00     0.382 C 
ATOM     23  O   LIG d   1      -2.556  94.281 120.594  0.00  0.00    -0.241 OA
ATOM     24  O   LIG d   1      -4.502  95.156 120.929  0.00  0.00    -0.241 OA
ENDBRANCH   3  22
TORSDOF 7
ENDMDL
MODEL 7
REMARK VINA RESULT:      -4.5      1.573      4.661
REMARK  7 active torsions:
REMARK  status: ('A' for Active; 'I' for Inactive)
REMARK    1  A    between atoms: C_2  and  C_3 
REMARK    2  A    between atoms: C_3  and  O_6 
REMARK    3  A    between atoms: C_3  and  C_4 
REMARK    4  A    between atoms: C_7  and  O_6 
REMARK    5  A    between atoms: C_9  and  C_10 
REMARK    6  A    between atoms: N_15  and  C_14 
REMARK    7  A    between atoms: N_20  and  C_19 
REMARK       I    between atoms: C_22  and  N_20 
ROOT
ATOM      1  C   LIG d   1      -5.426  92.306 118.337  0.00  0.00     0.161 C 
ATOM      2  C   LIG d   1      -4.257  92.929 118.804  0.00  0.00     0.016 C 
ATOM      3  C   LIG d   1      -2.965  92.376 118.647  0.00  0.00     0.038 C 
ATOM      4  C   LIG d   1      -2.739  91.228 117.874  0.00  0.00     0.028 C 
ATOM      5  C   LIG d   1      -3.942  90.294 117.810  0.00  0.00    -0.047 C 
ATOM      6  C   LIG d   1      -5.188  91.108 117.394  0.00  0.00     0.091 C 
ENDROOT
BRANCH   1   7
ATOM      7  O   LIG d   1      -6.279  93.280 117.704  0.00  0.00    -0.368 OA
BRANCH   7   8
ATOM      8  C   LIG d   1      -7.627  93.383 118.226  0.00  0.00     0.119 C 
BRANCH   8   9
ATOM      9  C   LIG d   1      -7.986  94.880 118.289  0.00  0.00     0.028 C 
ATOM     10  C   LIG d   1      -6.812  95.746 118.774  0.00  0.00     0.006 C 
ENDBRANCH   8   9
BRANCH   8  11
ATOM     11  C   LIG d   1      -7.703  92.887 119.673  0.00  0.00     0.028 C 
ATOM     12  C   LIG d   1      -9.090  93.093 120.302  0.00  0.00     0.006 C 
ENDBRANCH   8  11
ENDBRANCH   7   8
ENDBRANCH   1   7
BRANCH   6  13
ATOM     13  N   LIG d   1      -6.427  90.287 117.390  0.00  0.00    -0.311 N 
ATOM     14  C   LIG d   1      -6.828  89.571 116.340  0.00  0.00     0.210 C 
ATOM     15  C   LIG d   1      -8.144  88.812 116.540  0.00  0.00     0.109 C 
ATOM     16  O   LIG d   1      -6.203  89.467 115.274  0.00  0.00    -0.276 OA
ATOM     17  H   LIG d   1      -6.979  90.289 118.225  0.00  0.00     0.149 HD
ENDBRANCH   6  13
BRANCH   5  18
ATOM     18  N   LIG d   1      -3.616  89.211 116.863  0.00  0.00     0.381 N 
ATOM     19  H   LIG d   1      -2.625  89.087 116.818  0.00  0.00    -0.090 HD
ATOM     20  H   LIG d   1      -3.944  89.469 115.949  0.00  0.00    -0.090 HD
ATOM     21  H   LIG d   1      -4.051  88.362 117.153  0.00  0.00    -0.090 HD
ENDBRANCH   5  18
BRANCH   3  22
ATOM     22  C   LIG d   1      -1.887  92.953 119.301  0.00  0.00     0.382 C 
ATOM     23  O   LIG d   1      -0.765  92.392 119.275  0.00  0.00    -0.241 OA
ATOM     24  O   LIG d   1      -2.032  94.004 119.953  0.00  0.00    -0.241 OA
ENDBRANCH   3  22
TORSDOF 7
ENDMDL
MODEL 8
REMARK VINA RESULT:      -4.4      3.053      5.583
REMARK  7 active torsions:
REMARK  status: ('A' for Active; 'I' for Inactive)
REMARK    1  A    between atoms: C_2  and  C_3 
REMARK    2  A    between atoms: C_3  and  O_6 
REMARK    3  A    between atoms: C_3  and  C_4 
REMARK    4  A    between atoms: C_7  and  O_6 
REMARK    5  A    between atoms: C_9  and  C_10 
REMARK    6  A    between atoms: N_15  and  C_14 
REMARK    7  A    between atoms: N_20  and  C_19 
REMARK       I    between atoms: C_22  and  N_20 
ROOT
ATOM      1  C   LIG d   1      -3.008  89.798 118.148  0.00  0.00     0.161 C 
ATOM      2  C   LIG d   1      -4.142  89.582 117.347  0.00  0.00     0.016 C 
ATOM      3  C   LIG d   1      -5.001  90.619 116.918  0.00  0.00     0.038 C 
ATOM      4  C   LIG d   1      -4.698  91.972 117.137  0.00  0.00     0.028 C 
ATOM      5  C   LIG d   1      -3.834  92.206 118.372  0.00  0.00    -0.047 C 
ATOM      6  C   LIG d   1      -2.600  91.278 118.304  0.00  0.00     0.091 C 
ENDROOT
BRANCH   1   7
ATOM      7  O   LIG d   1      -1.901  89.023 117.647  0.00  0.00    -0.368 OA
BRANCH   7   8
ATOM      8  C   LIG d   1      -1.763  87.686 118.188  0.00  0.00     0.119 C 
BRANCH   8   9
ATOM      9  C   LIG d   1      -2.131  87.751 119.683  0.00  0.00     0.028 C 
ATOM     10  C   LIG d   1      -2.299  86.356 120.307  0.00  0.00     0.006 C 
ENDBRANCH   8   9
BRANCH   8  11
ATOM     11  C   LIG d   1      -0.305  87.217 118.149  0.00  0.00     0.028 C 
ATOM     12  C   LIG d   1       0.214  87.003 116.718  0.00  0.00     0.006 C 
ENDBRANCH   8  11
ENDBRANCH   7   8
ENDBRANCH   1   7
BRANCH   6  13
ATOM     13  N   LIG d   1      -1.744  91.383 119.515  0.00  0.00    -0.311 N 
ATOM     14  C   LIG d   1      -0.689  92.191 119.599  0.00  0.00     0.210 C 
ATOM     15  C   LIG d   1       0.067  92.131 120.930  0.00  0.00     0.109 C 
ATOM     16  O   LIG d   1      -0.326  92.976 118.710  0.00  0.00    -0.276 OA
ATOM     17  H   LIG d   1      -1.986  90.804 120.295  0.00  0.00     0.149 HD
ENDBRANCH   6  13
BRANCH   5  18
ATOM     18  N   LIG d   1      -3.480  93.638 118.403  0.00  0.00     0.381 N 
ATOM     19  H   LIG d   1      -2.708  93.809 117.790  0.00  0.00    -0.090 HD
ATOM     20  H   LIG d   1      -3.203  93.884 119.336  0.00  0.00    -0.090 HD
ATOM     21  H   LIG d   1      -4.263  94.188 118.125  0.00  0.00    -0.090 HD
ENDBRANCH   5  18
BRANCH   3  22
ATOM     22  C   LIG d   1      -6.200  90.306 116.296  0.00  0.00     0.382 C 
ATOM     23  O   LIG d   1      -6.839  91.194 115.682  0.00  0.00    -0.241 OA
ATOM     24  O   LIG d   1      -6.673  89.156 116.378  0.00  0.00    -0.241 OA
ENDBRANCH   3  22
TORSDOF 7
ENDMDL
MODEL 9
REMARK VINA RESULT:      -4.4      2.474      4.888
REMARK  7 active torsions:
REMARK  status: ('A' for Active; 'I' for Inactive)
REMARK    1  A    between atoms: C_2  and  C_3 
REMARK    2  A    between atoms: C_3  and  O_6 
REMARK    3  A    between atoms: C_3  and  C_4 
REMARK    4  A    between atoms: C_7  and  O_6 
REMARK    5  A    between atoms: C_9  and  C_10 
REMARK    6  A    between atoms: N_15  and  C_14 
REMARK    7  A    between atoms: N_20  and  C_19 
REMARK       I    between atoms: C_22  and  N_20 
ROOT
ATOM      1  C   LIG d   1      -4.331  92.454 119.178  0.00  0.00     0.161 C 
ATOM      2  C   LIG d   1      -3.342  91.465 119.051  0.00  0.00     0.016 C 
ATOM      3  C   LIG d   1      -3.552  90.234 118.388  0.00  0.00     0.038 C 
ATOM      4  C   LIG d   1      -4.728  89.970 117.671  0.00  0.00     0.028 C 
ATOM      5  C   LIG d   1      -5.942  90.731 118.196  0.00  0.00    -0.047 C 
ATOM      6  C   LIG d   1      -5.584  92.231 118.306  0.00  0.00     0.091 C 
ENDROOT
BRANCH   1   7
ATOM      7  O   LIG d   1      -3.762  93.751 118.913  0.00  0.00    -0.368 OA
BRANCH   7   8
ATOM      8  C   LIG d   1      -2.478  94.022 119.529  0.00  0.00     0.119 C 
BRANCH   8   9
ATOM      9  C   LIG d   1      -2.609  95.341 120.313  0.00  0.00     0.028 C 
ATOM     10  C   LIG d   1      -2.520  96.577 119.402  0.00  0.00     0.006 C 
ENDBRANCH   8   9
BRANCH   8  11
ATOM     11  C   LIG d   1      -1.399  94.283 118.474  0.00  0.00     0.028 C 
ATOM     12  C   LIG d   1      -0.152  93.405 118.668  0.00  0.00     0.006 C 
ENDBRANCH   8  11
ENDBRANCH   7   8
ENDBRANCH   1   7
BRANCH   6  13
ATOM     13  N   LIG d   1      -6.689  93.035 118.891  0.00  0.00    -0.311 N 
ATOM     14  C   LIG d   1      -7.677  93.558 118.168  0.00  0.00     0.210 C 
ATOM     15  C   LIG d   1      -8.703  94.369 118.967  0.00  0.00     0.109 C 
ATOM     16  O   LIG d   1      -7.820  93.401 116.947  0.00  0.00    -0.276 OA
ATOM     17  H   LIG d   1      -6.668  93.185 119.881  0.00  0.00     0.149 HD
ENDBRANCH   6  13
BRANCH   5  18
ATOM     18  N   LIG d   1      -7.064  90.470 117.274  0.00  0.00     0.381 N 
ATOM     19  H   LIG d   1      -6.728  90.008 116.453  0.00  0.00    -0.090 HD
ATOM     20  H   LIG d   1      -7.469  91.347 116.999  0.00  0.00    -0.090 HD
ATOM     21  H   LIG d   1      -7.750  89.905 117.724  0.00  0.00    -0.090 HD
ENDBRANCH   5  18
BRANCH   3  22
ATOM     22  C   LIG d   1      -2.594  89.235 118.473  0.00  0.00     0.382 C 
ATOM     23  O   LIG d   1      -1.393  89.496 118.220  0.00  0.00    -0.241 OA
ATOM     24  O   LIG d   1      -2.922  88.067 118.756  0.00  0.00    -0.241 OA
ENDBRANCH   3  22
TORSDOF 7
ENDMDL
