MODEL 1
REMARK VINA RESULT:      -5.6      0.000      0.000
REMARK  7 active torsions:
REMARK  status: ('A' for Active; 'I' for Inactive)
REMARK    1  A    between atoms: C_2  and  C_3 
REMARK    2  A    between atoms: C_3  and  O_6 
REMARK    3  A    between atoms: C_3  and  C_4 
REMARK    4  A    between atoms: C_7  and  O_6 
REMARK    5  A    between atoms: C_9  and  C_10 
REMARK    6  A    between atoms: N_15  and  C_14 
REMARK    7  A    between atoms: N_20  and  C_19 
REMARK       I    between atoms: C_22  and  N_20 
ROOT
ATOM      1  C   LIG d   1      -5.627  92.291 117.527  0.00  0.00     0.161 C 
ATOM      2  C   LIG d   1      -6.600  91.322 117.232  0.00  0.00     0.016 C 
ATOM      3  C   LIG d   1      -6.291  89.972 116.947  0.00  0.00     0.038 C 
ATOM      4  C   LIG d   1      -4.991  89.463 117.088  0.00  0.00     0.028 C 
ATOM      5  C   LIG d   1      -3.905  90.515 116.892  0.00  0.00    -0.047 C 
ATOM      6  C   LIG d   1      -4.215  91.731 117.794  0.00  0.00     0.091 C 
ENDROOT
BRANCH   1   7
ATOM      7  O   LIG d   1      -6.064  93.099 118.638  0.00  0.00    -0.368 OA
BRANCH   7   8
ATOM      8  C   LIG d   1      -6.480  94.450 118.320  0.00  0.00     0.119 C 
BRANCH   8   9
ATOM      9  C   LIG d   1      -5.984  95.366 119.455  0.00  0.00     0.028 C 
ATOM     10  C   LIG d   1      -4.880  94.708 120.300  0.00  0.00     0.006 C 
ENDBRANCH   8   9
BRANCH   8  11
ATOM     11  C   LIG d   1      -8.006  94.580 118.332  0.00  0.00     0.028 C 
ATOM     12  C   LIG d   1      -8.565  94.914 119.724  0.00  0.00     0.006 C 
ENDBRANCH   8  11
ENDBRANCH   7   8
ENDBRANCH   1   7
BRANCH   6  13
ATOM     13  N   LIG d   1      -3.246  92.841 117.601  0.00  0.00    -0.311 N 
ATOM     14  C   LIG d   1      -2.173  93.020 118.370  0.00  0.00     0.210 C 
ATOM     15  C   LIG d   1      -1.317  94.239 118.012  0.00  0.00     0.109 C 
ATOM     16  O   LIG d   1      -1.832  92.267 119.294  0.00  0.00    -0.276 OA
ATOM     17  H   LIG d   1      -3.430  93.482 116.854  0.00  0.00     0.149 HD
ENDBRANCH   6  13
BRANCH   5  18
ATOM     18  N   LIG d   1      -2.609  89.880 117.201  0.00  0.00     0.381 N 
ATOM     19  H   LIG d   1      -2.743  89.145 117.866  0.00  0.00    -0.090 HD
ATOM     20  H   LIG d   1      -2.000  90.567 117.610  0.00  0.00    -0.090 HD
ATOM     21  H   LIG d   1      -2.201  89.516 116.369  0.00  0.00    -0.090 HD
ENDBRANCH   5  18
BRANCH   3  22
ATOM     22  C   LIG d   1      -7.283  89.124 116.478  0.00  0.00     0.382 C 
ATOM     23  O   LIG d   1      -7.549  89.088 115.252  0.00  0.00    -0.241 OA
ATOM     24  O   LIG d   1      -7.945  88.427 117.270  0.00  0.00    -0.241 OA
ENDBRANCH   3  22
TORSDOF 7
ENDMDL
MODEL 2
REMARK VINA RESULT:      -5.1      2.166      5.037
REMARK  7 active torsions:
REMARK  status: ('A' for Active; 'I' for Inactive)
REMARK    1  A    between atoms: C_2  and  C_3 
REMARK    2  A    between atoms: C_3  and  O_6 
REMARK    3  A    between atoms: C_3  and  C_4 
REMARK    4  A    between atoms: C_7  and  O_6 
REMARK    5  A    between atoms: C_9  and  C_10 
REMARK    6  A    between atoms: N_15  and  C_14 
REMARK    7  A    between atoms: N_20  and  C_19 
REMARK       I    between atoms: C_22  and  N_20 
ROOT
ATOM      1  C   LIG d   1      -5.881  90.385 118.649  0.00  0.00     0.161 C 
ATOM      2  C   LIG d   1      -6.461  91.652 118.474  0.00  0.00     0.016 C 
ATOM      3  C   LIG d   1      -5.735  92.861 118.577  0.00  0.00     0.038 C 
ATOM      4  C   LIG d   1      -4.339  92.878 118.713  0.00  0.00     0.028 C 
ATOM      5  C   LIG d   1      -3.783  91.635 119.398  0.00  0.00    -0.047 C 
ATOM      6  C   LIG d   1      -4.339  90.379 118.689  0.00  0.00     0.091 C 
ENDROOT
BRANCH   1   7
ATOM      7  O   LIG d   1      -6.360  89.484 117.630  0.00  0.00    -0.368 OA
BRANCH   7   8
ATOM      8  C   LIG d   1      -6.978  90.099 116.474  0.00  0.00     0.119 C 
BRANCH   8   9
ATOM      9  C   LIG d   1      -8.018  89.106 115.921  0.00  0.00     0.028 C 
ATOM     10  C   LIG d   1      -8.786  88.379 117.038  0.00  0.00     0.006 C 
ENDBRANCH   8   9
BRANCH   8  11
ATOM     11  C   LIG d   1      -5.966  90.298 115.341  0.00  0.00     0.028 C 
ATOM     12  C   LIG d   1      -6.048  91.697 114.708  0.00  0.00     0.006 C 
ENDBRANCH   8  11
ENDBRANCH   7   8
ENDBRANCH   1   7
BRANCH   6  13
ATOM     13  N   LIG d   1      -3.910  89.118 119.348  0.00  0.00    -0.311 N 
ATOM     14  C   LIG d   1      -2.867  88.397 118.943  0.00  0.00     0.210 C 
ATOM     15  C   LIG d   1      -2.610  87.121 119.751  0.00  0.00     0.109 C 
ATOM     16  O   LIG d   1      -2.110  88.709 118.012  0.00  0.00    -0.276 OA
ATOM     17  H   LIG d   1      -4.450  88.808 120.132  0.00  0.00     0.149 HD
ENDBRANCH   6  13
BRANCH   5  18
ATOM     18  N   LIG d   1      -2.311  91.721 119.351  0.00  0.00     0.381 N 
ATOM     19  H   LIG d   1      -2.023  92.669 119.487  0.00  0.00    -0.090 HD
ATOM     20  H   LIG d   1      -1.997  91.423 118.445  0.00  0.00    -0.090 HD
ATOM     21  H   LIG d   1      -1.912  91.141 120.056  0.00  0.00    -0.090 HD
ENDBRANCH   5  18
BRANCH   3  22
ATOM     22  C   LIG d   1      -6.413  94.071 118.583  0.00  0.00     0.382 C 
ATOM     23  O   LIG d   1      -7.578  94.140 118.121  0.00  0.00    -0.241 OA
ATOM     24  O   LIG d   1      -5.857  95.104 119.003  0.00  0.00    -0.241 OA
ENDBRANCH   3  22
TORSDOF 7
ENDMDL
MODEL 3
REMARK VINA RESULT:      -5.1      2.624      5.156
REMARK  7 active torsions:
REMARK  status: ('A' for Active; 'I' for Inactive)
REMARK    1  A    between atoms: C_2  and  C_3 
REMARK    2  A    between atoms: C_3  and  O_6 
REMARK    3  A    between atoms: C_3  and  C_4 
REMARK    4  A    between atoms: C_7  and  O_6 
REMARK    5  A    between atoms: C_9  and  C_10 
REMARK    6  A    between atoms: N_15  and  C_14 
REMARK    7  A    between atoms: N_20  and  C_19 
REMARK       I    between atoms: C_22  and  N_20 
ROOT
ATOM      1  C   LIG d   1      -4.305  89.783 117.515  0.00  0.00     0.161 C 
ATOM      2  C   LIG d   1      -3.367  88.743 117.626  0.00  0.00     0.016 C 
ATOM      3  C   LIG d   1      -2.324  88.735 118.580  0.00  0.00     0.038 C 
ATOM      4  C   LIG d   1      -2.240  89.701 119.594  0.00  0.00     0.028 C 
ATOM      5  C   LIG d   1      -2.864  91.038 119.211  0.00  0.00    -0.047 C 
ATOM      6  C   LIG d   1      -4.296  90.790 118.683  0.00  0.00     0.091 C 
ENDROOT
BRANCH   1   7
ATOM      7  O   LIG d   1      -5.626  89.233 117.338  0.00  0.00    -0.368 OA
BRANCH   7   8
ATOM      8  C   LIG d   1      -6.153  89.261 115.989  0.00  0.00     0.119 C 
BRANCH   8   9
ATOM      9  C   LIG d   1      -5.525  90.472 115.272  0.00  0.00     0.028 C 
ATOM     10  C   LIG d   1      -6.582  91.477 114.782  0.00  0.00     0.006 C 
ENDBRANCH   8   9
BRANCH   8  11
ATOM     11  C   LIG d   1      -7.661  89.525 115.985  0.00  0.00     0.028 C 
ATOM     12  C   LIG d   1      -8.430  88.601 116.943  0.00  0.00     0.006 C 
ENDBRANCH   8  11
ENDBRANCH   7   8
ENDBRANCH   1   7
BRANCH   6  13
ATOM     13  N   LIG d   1      -4.948  92.038 118.207  0.00  0.00    -0.311 N 
ATOM     14  C   LIG d   1      -6.219  92.345 118.464  0.00  0.00     0.210 C 
ATOM     15  C   LIG d   1      -6.698  93.670 117.863  0.00  0.00     0.109 C 
ATOM     16  O   LIG d   1      -6.985  91.662 119.161  0.00  0.00    -0.276 OA
ATOM     17  H   LIG d   1      -4.390  92.665 117.661  0.00  0.00     0.149 HD
ENDBRANCH   6  13
BRANCH   5  18
ATOM     18  N   LIG d   1      -2.829  91.905 120.404  0.00  0.00     0.381 N 
ATOM     19  H   LIG d   1      -2.443  91.401 121.177  0.00  0.00    -0.090 HD
ATOM     20  H   LIG d   1      -3.769  92.172 120.639  0.00  0.00    -0.090 HD
ATOM     21  H   LIG d   1      -2.282  92.717 120.220  0.00  0.00    -0.090 HD
ENDBRANCH   5  18
BRANCH   3  22
ATOM     22  C   LIG d   1      -1.328  87.774 118.502  0.00  0.00     0.382 C 
ATOM     23  O   LIG d   1      -1.095  87.031 119.485  0.00  0.00    -0.241 OA
ATOM     24  O   LIG d   1      -0.630  87.670 117.475  0.00  0.00    -0.241 OA
ENDBRANCH   3  22
TORSDOF 7
ENDMDL
MODEL 4
REMARK VINA RESULT:      -5.0      2.220      4.729
REMARK  7 active torsions:
REMARK  status: ('A' for Active; 'I' for Inactive)
REMARK    1  A    between atoms: C_2  and  C_3 
REMARK    2  A    between atoms: C_3  and  O_6 
REMARK    3  A    between atoms: C_3  and  C_4 
REMARK    4  A    between atoms: C_7  and  O_6 
REMARK    5  A    between atoms: C_9  and  C_10 
REMARK    6  A    between atoms: N_15  and  C_14 
REMARK    7  A    between atoms: N_20  and  C_19 
REMARK       I    between atoms: C_22  and  N_20 
ROOT
ATOM      1  C   LIG d   1      -4.353  90.372 117.742  0.00  0.00     0.161 C 
ATOM      2  C   LIG d   1      -5.385  89.879 116.926  0.00  0.00     0.016 C 
ATOM      3  C   LIG d   1      -6.466  90.670 116.474  0.00  0.00     0.038 C 
ATOM      4  C   LIG d   1      -6.509  92.056 116.686  0.00  0.00     0.028 C 
ATOM      5  C   LIG d   1      -5.751  92.502 117.932  0.00  0.00    -0.047 C 
ATOM      6  C   LIG d   1      -4.325  91.907 117.891  0.00  0.00     0.091 C 
ENDROOT
BRANCH   1   7
ATOM      7  O   LIG d   1      -3.081  89.891 117.265  0.00  0.00    -0.368 OA
BRANCH   7   8
ATOM      8  C   LIG d   1      -2.621  88.639 117.829  0.00  0.00     0.119 C 
BRANCH   8   9
ATOM      9  C   LIG d   1      -2.947  88.661 119.335  0.00  0.00     0.028 C 
ATOM     10  C   LIG d   1      -2.905  87.259 119.965  0.00  0.00     0.006 C 
ENDBRANCH   8   9
BRANCH   8  11
ATOM     11  C   LIG d   1      -1.096  88.517 117.746  0.00  0.00     0.028 C 
ATOM     12  C   LIG d   1      -0.416  89.827 117.320  0.00  0.00     0.006 C 
ENDBRANCH   8  11
ENDBRANCH   7   8
ENDBRANCH   1   7
BRANCH   6  13
ATOM     13  N   LIG d   1      -3.543  92.226 119.114  0.00  0.00    -0.311 N 
ATOM     14  C   LIG d   1      -2.345  92.809 119.087  0.00  0.00     0.210 C 
ATOM     15  C   LIG d   1      -1.703  93.030 120.460  0.00  0.00     0.109 C 
ATOM     16  O   LIG d   1      -1.769  93.193 118.059  0.00  0.00    -0.276 OA
ATOM     17  H   LIG d   1      -3.950  91.977 119.994  0.00  0.00     0.149 HD
ENDBRANCH   6  13
BRANCH   5  18
ATOM     18  N   LIG d   1      -5.762  93.977 117.955  0.00  0.00     0.381 N 
ATOM     19  H   LIG d   1      -5.047  94.331 117.352  0.00  0.00    -0.090 HD
ATOM     20  H   LIG d   1      -5.568  94.289 118.891  0.00  0.00    -0.090 HD
ATOM     21  H   LIG d   1      -6.652  94.317 117.662  0.00  0.00    -0.090 HD
ENDBRANCH   5  18
BRANCH   3  22
ATOM     22  C   LIG d   1      -7.540  90.067 115.837  0.00  0.00     0.382 C 
ATOM     23  O   LIG d   1      -7.815  88.866 116.072  0.00  0.00    -0.241 OA
ATOM     24  O   LIG d   1      -8.209  90.696 114.996  0.00  0.00    -0.241 OA
ENDBRANCH   3  22
TORSDOF 7
ENDMDL
MODEL 5
REMARK VINA RESULT:      -5.0      1.753      4.886
REMARK  7 active torsions:
REMARK  status: ('A' for Active; 'I' for Inactive)
REMARK    1  A    between atoms: C_2  and  C_3 
REMARK    2  A    between atoms: C_3  and  O_6 
REMARK    3  A    between atoms: C_3  and  C_4 
REMARK    4  A    between atoms: C_7  and  O_6 
REMARK    5  A    between atoms: C_9  and  C_10 
REMARK    6  A    between atoms: N_15  and  C_14 
REMARK    7  A    between atoms: N_20  and  C_19 
REMARK       I    between atoms: C_22  and  N_20 
ROOT
ATOM      1  C   LIG d   1      -6.197  91.411 119.383  0.00  0.00     0.161 C 
ATOM      2  C   LIG d   1      -5.072  92.072 119.902  0.00  0.00     0.016 C 
ATOM      3  C   LIG d   1      -3.807  92.070 119.270  0.00  0.00     0.038 C 
ATOM      4  C   LIG d   1      -3.620  91.529 117.989  0.00  0.00     0.028 C 
ATOM      5  C   LIG d   1      -4.603  90.413 117.654  0.00  0.00    -0.047 C 
ATOM      6  C   LIG d   1      -6.040  90.909 117.932  0.00  0.00     0.091 C 
ENDROOT
BRANCH   1   7
ATOM      7  O   LIG d   1      -7.358  92.258 119.497  0.00  0.00    -0.368 OA
BRANCH   7   8
ATOM      8  C   LIG d   1      -7.123  93.596 119.998  0.00  0.00     0.119 C 
BRANCH   8   9
ATOM      9  C   LIG d   1      -8.394  94.039 120.749  0.00  0.00     0.028 C 
ATOM     10  C   LIG d   1      -9.357  94.835 119.853  0.00  0.00     0.006 C 
ENDBRANCH   8   9
BRANCH   8  11
ATOM     11  C   LIG d   1      -6.958  94.600 118.853  0.00  0.00     0.028 C 
ATOM     12  C   LIG d   1      -5.756  95.536 119.050  0.00  0.00     0.006 C 
ENDBRANCH   8  11
ENDBRANCH   7   8
ENDBRANCH   1   7
BRANCH   6  13
ATOM     13  N   LIG d   1      -7.058  89.849 117.710  0.00  0.00    -0.311 N 
ATOM     14  C   LIG d   1      -7.669  89.653 116.542  0.00  0.00     0.210 C 
ATOM     15  C   LIG d   1      -8.700  88.520 116.535  0.00  0.00     0.109 C 
ATOM     16  O   LIG d   1      -7.431  90.288 115.504  0.00  0.00    -0.276 OA
ATOM     17  H   LIG d   1      -7.289  89.267 118.491  0.00  0.00     0.149 HD
ENDBRANCH   6  13
BRANCH   5  18
ATOM     18  N   LIG d   1      -4.384  90.035 116.244  0.00  0.00     0.381 N 
ATOM     19  H   LIG d   1      -3.887  89.168 116.199  0.00  0.00    -0.090 HD
ATOM     20  H   LIG d   1      -3.825  90.743 115.801  0.00  0.00    -0.090 HD
ATOM     21  H   LIG d   1      -5.259  89.950 115.775  0.00  0.00    -0.090 HD
ENDBRANCH   5  18
BRANCH   3  22
ATOM     22  C   LIG d   1      -2.704  92.580 119.938  0.00  0.00     0.382 C 
ATOM     23  O   LIG d   1      -2.813  93.629 120.618  0.00  0.00    -0.241 OA
ATOM     24  O   LIG d   1      -1.592  92.029 119.833  0.00  0.00    -0.241 OA
ENDBRANCH   3  22
TORSDOF 7
ENDMDL
MODEL 6
REMARK VINA RESULT:      -5.0      1.921      4.847
REMARK  7 active torsions:
REMARK  status: ('A' for Active; 'I' for Inactive)
REMARK    1  A    between atoms: C_2  and  C_3 
REMARK    2  A    between atoms: C_3  and  O_6 
REMARK    3  A    between atoms: C_3  and  C_4 
REMARK    4  A    between atoms: C_7  and  O_6 
REMARK    5  A    between atoms: C_9  and  C_10 
REMARK    6  A    between atoms: N_15  and  C_14 
REMARK    7  A    between atoms: N_20  and  C_19 
REMARK       I    between atoms: C_22  and  N_20 
ROOT
ATOM      1  C   LIG d   1      -5.582  92.221 118.651  0.00  0.00     0.161 C 
ATOM      2  C   LIG d   1      -6.816  92.887 118.737  0.00  0.00     0.016 C 
ATOM      3  C   LIG d   1      -6.936  94.278 118.961  0.00  0.00     0.038 C 
ATOM      4  C   LIG d   1      -5.819  95.128 118.962  0.00  0.00     0.028 C 
ATOM      5  C   LIG d   1      -4.529  94.432 119.383  0.00  0.00    -0.047 C 
ATOM      6  C   LIG d   1      -4.353  93.149 118.539  0.00  0.00     0.091 C 
ENDROOT
BRANCH   1   7
ATOM      7  O   LIG d   1      -5.606  91.288 117.553  0.00  0.00    -0.368 OA
BRANCH   7   8
ATOM      8  C   LIG d   1      -6.915  90.835 117.131  0.00  0.00     0.119 C 
BRANCH   8   9
ATOM      9  C   LIG d   1      -6.937  89.299 117.258  0.00  0.00     0.028 C 
ATOM     10  C   LIG d   1      -8.299  88.697 116.872  0.00  0.00     0.006 C 
ENDBRANCH   8   9
BRANCH   8  11
ATOM     11  C   LIG d   1      -7.152  91.121 115.645  0.00  0.00     0.028 C 
ATOM     12  C   LIG d   1      -5.920  91.723 114.951  0.00  0.00     0.006 C 
ENDBRANCH   8  11
ENDBRANCH   7   8
ENDBRANCH   1   7
BRANCH   6  13
ATOM     13  N   LIG d   1      -3.159  92.363 118.945  0.00  0.00    -0.311 N 
ATOM     14  C   LIG d   1      -1.949  92.543 118.417  0.00  0.00     0.210 C 
ATOM     15  C   LIG d   1      -0.860  91.614 118.963  0.00  0.00     0.109 C 
ATOM     16  O   LIG d   1      -1.667  93.406 117.572  0.00  0.00    -0.276 OA
ATOM     17  H   LIG d   1      -3.290  91.662 119.648  0.00  0.00     0.149 HD
ENDBRANCH   6  13
BRANCH   5  18
ATOM     18  N   LIG d   1      -3.426  95.395 119.208  0.00  0.00     0.381 N 
ATOM     19  H   LIG d   1      -2.854  95.118 118.435  0.00  0.00    -0.090 HD
ATOM     20  H   LIG d   1      -2.858  95.393 120.037  0.00  0.00    -0.090 HD
ATOM     21  H   LIG d   1      -3.792  96.308 119.049  0.00  0.00    -0.090 HD
ENDBRANCH   5  18
BRANCH   3  22
ATOM     22  C   LIG d   1      -8.181  94.826 119.225  0.00  0.00     0.382 C 
ATOM     23  O   LIG d   1      -8.365  95.487 120.276  0.00  0.00    -0.241 OA
ATOM     24  O   LIG d   1      -9.135  94.632 118.449  0.00  0.00    -0.241 OA
ENDBRANCH   3  22
TORSDOF 7
ENDMDL
MODEL 7
REMARK VINA RESULT:      -4.9      2.563      5.996
REMARK  7 active torsions:
REMARK  status: ('A' for Active; 'I' for Inactive)
REMARK    1  A    between atoms: C_2  and  C_3 
REMARK    2  A    between atoms: C_3  and  O_6 
REMARK    3  A    between atoms: C_3  and  C_4 
REMARK    4  A    between atoms: C_7  and  O_6 
REMARK    5  A    between atoms: C_9  and  C_10 
REMARK    6  A    between atoms: N_15  and  C_14 
REMARK    7  A    between atoms: N_20  and  C_19 
REMARK       I    between atoms: C_22  and  N_20 
ROOT
ATOM      1  C   LIG d   1      -4.887  92.435 117.931  0.00  0.00     0.161 C 
ATOM      2  C   LIG d   1      -4.266  93.197 118.934  0.00  0.00     0.016 C 
ATOM      3  C   LIG d   1      -4.885  94.299 119.569  0.00  0.00     0.038 C 
ATOM      4  C   LIG d   1      -6.232  94.621 119.349  0.00  0.00     0.028 C 
ATOM      5  C   LIG d   1      -6.740  94.193 117.976  0.00  0.00    -0.047 C 
ATOM      6  C   LIG d   1      -6.396  92.702 117.756  0.00  0.00     0.091 C 
ENDROOT
BRANCH   1   7
ATOM      7  O   LIG d   1      -4.650  91.033 118.166  0.00  0.00    -0.368 OA
BRANCH   7   8
ATOM      8  C   LIG d   1      -3.824  90.709 119.312  0.00  0.00     0.119 C 
BRANCH   8   9
ATOM      9  C   LIG d   1      -2.629  89.881 118.802  0.00  0.00     0.028 C 
ATOM     10  C   LIG d   1      -3.070  88.585 118.100  0.00  0.00     0.006 C 
ENDBRANCH   8   9
BRANCH   8  11
ATOM     11  C   LIG d   1      -4.565  89.793 120.291  0.00  0.00     0.028 C 
ATOM     12  C   LIG d   1      -5.788  90.469 120.930  0.00  0.00     0.006 C 
ENDBRANCH   8  11
ENDBRANCH   7   8
ENDBRANCH   1   7
BRANCH   6  13
ATOM     13  N   LIG d   1      -6.784  92.225 116.403  0.00  0.00    -0.311 N 
ATOM     14  C   LIG d   1      -7.269  91.007 116.166  0.00  0.00     0.210 C 
ATOM     15  C   LIG d   1      -7.585  90.712 114.696  0.00  0.00     0.109 C 
ATOM     16  O   LIG d   1      -7.497  90.155 117.037  0.00  0.00    -0.276 OA
ATOM     17  H   LIG d   1      -6.661  92.863 115.641  0.00  0.00     0.149 HD
ENDBRANCH   6  13
BRANCH   5  18
ATOM     18  N   LIG d   1      -8.190  94.464 117.933  0.00  0.00     0.381 N 
ATOM     19  H   LIG d   1      -8.618  93.903 117.224  0.00  0.00    -0.090 HD
ATOM     20  H   LIG d   1      -8.333  95.431 117.699  0.00  0.00    -0.090 HD
ATOM     21  H   LIG d   1      -8.600  94.265 118.818  0.00  0.00    -0.090 HD
ENDBRANCH   5  18
BRANCH   3  22
ATOM     22  C   LIG d   1      -4.141  95.116 120.407  0.00  0.00     0.382 C 
ATOM     23  O   LIG d   1      -4.502  96.300 120.611  0.00  0.00    -0.241 OA
ATOM     24  O   LIG d   1      -3.089  94.697 120.927  0.00  0.00    -0.241 OA
ENDBRANCH   3  22
TORSDOF 7
ENDMDL
MODEL 8
REMARK VINA RESULT:      -4.7      2.777      6.901
REMARK  7 active torsions:
REMARK  status: ('A' for Active; 'I' for Inactive)
REMARK    1  A    between atoms: C_2  and  C_3 
REMARK    2  A    between atoms: C_3  and  O_6 
REMARK    3  A    between atoms: C_3  and  C_4 
REMARK    4  A    between atoms: C_7  and  O_6 
REMARK    5  A    between atoms: C_9  and  C_10 
REMARK    6  A    between atoms: N_15  and  C_14 
REMARK    7  A    between atoms: N_20  and  C_19 
REMARK       I    between atoms: C_22  and  N_20 
ROOT
ATOM      1  C   LIG d   1      -1.490  91.451 117.995  0.00  0.00     0.161 C 
ATOM      2  C   LIG d   1      -0.105  91.530 118.211  0.00  0.00     0.016 C 
ATOM      3  C   LIG d   1       0.584  92.749 118.412  0.00  0.00     0.038 C 
ATOM      4  C   LIG d   1      -0.095  93.967 118.562  0.00  0.00     0.028 C 
ATOM      5  C   LIG d   1      -1.443  94.001 117.849  0.00  0.00    -0.047 C 
ATOM      6  C   LIG d   1      -2.263  92.759 118.266  0.00  0.00     0.091 C 
ENDROOT
BRANCH   1   7
ATOM      7  O   LIG d   1      -2.045  90.372 118.773  0.00  0.00    -0.368 OA
BRANCH   7   8
ATOM      8  C   LIG d   1      -2.425  89.184 118.035  0.00  0.00     0.119 C 
BRANCH   8   9
ATOM      9  C   LIG d   1      -3.947  89.007 118.194  0.00  0.00     0.028 C 
ATOM     10  C   LIG d   1      -4.693  89.099 116.852  0.00  0.00     0.006 C 
ENDBRANCH   8   9
BRANCH   8  11
ATOM     11  C   LIG d   1      -1.804  87.925 118.648  0.00  0.00     0.028 C 
ATOM     12  C   LIG d   1      -2.710  87.265 119.699  0.00  0.00     0.006 C 
ENDBRANCH   8  11
ENDBRANCH   7   8
ENDBRANCH   1   7
BRANCH   6  13
ATOM     13  N   LIG d   1      -3.562  92.671 117.549  0.00  0.00    -0.311 N 
ATOM     14  C   LIG d   1      -4.740  92.643 118.169  0.00  0.00     0.210 C 
ATOM     15  C   LIG d   1      -5.955  92.529 117.243  0.00  0.00     0.109 C 
ATOM     16  O   LIG d   1      -4.897  92.734 119.396  0.00  0.00    -0.276 OA
ATOM     17  H   LIG d   1      -3.529  92.624 116.550  0.00  0.00     0.149 HD
ENDBRANCH   6  13
BRANCH   5  18
ATOM     18  N   LIG d   1      -2.101  95.274 118.201  0.00  0.00     0.381 N 
ATOM     19  H   LIG d   1      -2.975  95.089 118.653  0.00  0.00    -0.090 HD
ATOM     20  H   LIG d   1      -2.285  95.789 117.358  0.00  0.00    -0.090 HD
ATOM     21  H   LIG d   1      -1.513  95.806 118.804  0.00  0.00    -0.090 HD
ENDBRANCH   5  18
BRANCH   3  22
ATOM     22  C   LIG d   1       1.970  92.761 118.425  0.00  0.00     0.382 C 
ATOM     23  O   LIG d   1       2.609  92.563 117.364  0.00  0.00    -0.241 OA
ATOM     24  O   LIG d   1       2.590  92.924 119.493  0.00  0.00    -0.241 OA
ENDBRANCH   3  22
TORSDOF 7
ENDMDL
MODEL 9
REMARK VINA RESULT:      -4.5      2.041      4.568
REMARK  7 active torsions:
REMARK  status: ('A' for Active; 'I' for Inactive)
REMARK    1  A    between atoms: C_2  and  C_3 
REMARK    2  A    between atoms: C_3  and  O_6 
REMARK    3  A    between atoms: C_3  and  C_4 
REMARK    4  A    between atoms: C_7  and  O_6 
REMARK    5  A    between atoms: C_9  and  C_10 
REMARK    6  A    between atoms: N_15  and  C_14 
REMARK    7  A    between atoms: N_20  and  C_19 
REMARK       I    between atoms: C_22  and  N_20 
ROOT
ATOM      1  C   LIG d   1      -4.227  91.521 117.959  0.00  0.00     0.161 C 
ATOM      2  C   LIG d   1      -4.566  90.564 116.987  0.00  0.00     0.016 C 
ATOM      3  C   LIG d   1      -5.764  90.606 116.239  0.00  0.00     0.038 C 
ATOM      4  C   LIG d   1      -6.642  91.699 116.305  0.00  0.00     0.028 C 
ATOM      5  C   LIG d   1      -6.591  92.437 117.638  0.00  0.00    -0.047 C 
ATOM      6  C   LIG d   1      -5.119  92.780 117.965  0.00  0.00     0.091 C 
ENDROOT
BRANCH   1   7
ATOM      7  O   LIG d   1      -2.841  91.890 117.818  0.00  0.00    -0.368 OA
BRANCH   7   8
ATOM      8  C   LIG d   1      -1.883  91.036 118.490  0.00  0.00     0.119 C 
BRANCH   8   9
ATOM      9  C   LIG d   1      -1.098  91.913 119.485  0.00  0.00     0.028 C 
ATOM     10  C   LIG d   1      -1.283  93.416 119.215  0.00  0.00     0.006 C 
ENDBRANCH   8   9
BRANCH   8  11
ATOM     11  C   LIG d   1      -0.835  90.496 117.512  0.00  0.00     0.028 C 
ATOM     12  C   LIG d   1      -0.623  88.980 117.643  0.00  0.00     0.006 C 
ENDBRANCH   8  11
ENDBRANCH   7   8
ENDBRANCH   1   7
BRANCH   6  13
ATOM     13  N   LIG d   1      -4.971  93.429 119.294  0.00  0.00    -0.311 N 
ATOM     14  C   LIG d   1      -5.087  94.742 119.485  0.00  0.00     0.210 C 
ATOM     15  C   LIG d   1      -4.877  95.206 120.930  0.00  0.00     0.109 C 
ATOM     16  O   LIG d   1      -5.375  95.563 118.601  0.00  0.00    -0.276 OA
ATOM     17  H   LIG d   1      -4.767  92.834 120.073  0.00  0.00     0.149 HD
ENDBRANCH   6  13
BRANCH   5  18
ATOM     18  N   LIG d   1      -7.450  93.631 117.520  0.00  0.00     0.381 N 
ATOM     19  H   LIG d   1      -6.982  94.424 117.910  0.00  0.00    -0.090 HD
ATOM     20  H   LIG d   1      -8.295  93.475 118.040  0.00  0.00    -0.090 HD
ATOM     21  H   LIG d   1      -7.666  93.801 116.562  0.00  0.00    -0.090 HD
ENDBRANCH   5  18
BRANCH   3  22
ATOM     22  C   LIG d   1      -6.115  89.527 115.442  0.00  0.00     0.382 C 
ATOM     23  O   LIG d   1      -5.374  88.516 115.394  0.00  0.00    -0.241 OA
ATOM     24  O   LIG d   1      -7.140  89.570 114.736  0.00  0.00    -0.241 OA
ENDBRANCH   3  22
TORSDOF 7
ENDMDL
