MODEL 1
REMARK VINA RESULT:      -5.5      0.000      0.000
REMARK  7 active torsions:
REMARK  status: ('A' for Active; 'I' for Inactive)
REMARK    1  A    between atoms: C_2  and  C_3 
REMARK    2  A    between atoms: C_3  and  O_6 
REMARK    3  A    between atoms: C_3  and  C_4 
REMARK    4  A    between atoms: C_7  and  O_6 
REMARK    5  A    between atoms: C_9  and  C_10 
REMARK    6  A    between atoms: N_15  and  C_14 
REMARK    7  A    between atoms: N_20  and  C_19 
REMARK       I    between atoms: C_22  and  N_20 
ROOT
ATOM      1  C   LIG d   1      -6.801  92.563 118.598  0.00  0.00     0.161 C 
ATOM      2  C   LIG d   1      -5.714  93.308 119.086  0.00  0.00     0.016 C 
ATOM      3  C   LIG d   1      -4.379  93.103 118.668  0.00  0.00     0.038 C 
ATOM      4  C   LIG d   1      -4.058  92.235 117.613  0.00  0.00     0.028 C 
ATOM      5  C   LIG d   1      -5.058  91.097 117.440  0.00  0.00    -0.047 C 
ATOM      6  C   LIG d   1      -6.484  91.688 117.367  0.00  0.00     0.091 C 
ENDROOT
BRANCH   1   7
ATOM      7  O   LIG d   1      -7.908  93.441 118.317  0.00  0.00    -0.368 OA
BRANCH   7   8
ATOM      8  C   LIG d   1      -7.675  94.853 118.541  0.00  0.00     0.119 C 
BRANCH   8   9
ATOM      9  C   LIG d   1      -8.821  95.378 119.427  0.00  0.00     0.028 C 
ATOM     10  C   LIG d   1      -9.480  94.262 120.255  0.00  0.00     0.006 C 
ENDBRANCH   8   9
BRANCH   8  11
ATOM     11  C   LIG d   1      -7.775  95.648 117.235  0.00  0.00     0.028 C 
ATOM     12  C   LIG d   1      -8.106  97.132 117.465  0.00  0.00     0.006 C 
ENDBRANCH   8  11
ENDBRANCH   7   8
ENDBRANCH   1   7
BRANCH   6  13
ATOM     13  N   LIG d   1      -7.530  90.636 117.281  0.00  0.00    -0.311 N 
ATOM     14  C   LIG d   1      -8.049  90.211 116.131  0.00  0.00     0.210 C 
ATOM     15  C   LIG d   1      -9.130  89.134 116.268  0.00  0.00     0.109 C 
ATOM     16  O   LIG d   1      -7.694  90.599 115.008  0.00  0.00    -0.276 OA
ATOM     17  H   LIG d   1      -7.854  90.244 118.143  0.00  0.00     0.149 HD
ENDBRANCH   6  13
BRANCH   5  18
ATOM     18  N   LIG d   1      -4.678  90.352 116.224  0.00  0.00     0.381 N 
ATOM     19  H   LIG d   1      -4.141  89.546 116.475  0.00  0.00    -0.090 HD
ATOM     20  H   LIG d   1      -4.108  90.943 115.645  0.00  0.00    -0.090 HD
ATOM     21  H   LIG d   1      -5.494  90.074 115.726  0.00  0.00    -0.090 HD
ENDBRANCH   5  18
BRANCH   3  22
ATOM     22  C   LIG d   1      -3.345  93.742 119.334  0.00  0.00     0.382 C 
ATOM     23  O   LIG d   1      -2.354  93.083 119.733  0.00  0.00    -0.241 OA
ATOM     24  O   LIG d   1      -3.409  94.961 119.580  0.00  0.00    -0.241 OA
ENDBRANCH   3  22
TORSDOF 7
ENDMDL
MODEL 2
REMARK VINA RESULT:      -5.4      2.062      4.820
REMARK  7 active torsions:
REMARK  status: ('A' for Active; 'I' for Inactive)
REMARK    1  A    between atoms: C_2  and  C_3 
REMARK    2  A    between atoms: C_3  and  O_6 
REMARK    3  A    between atoms: C_3  and  C_4 
REMARK    4  A    between atoms: C_7  and  O_6 
REMARK    5  A    between atoms: C_9  and  C_10 
REMARK    6  A    between atoms: N_15  and  C_14 
REMARK    7  A    between atoms: N_20  and  C_19 
REMARK       I    between atoms: C_22  and  N_20 
ROOT
ATOM      1  C   LIG d   1      -5.495  92.860 117.268  0.00  0.00     0.161 C 
ATOM      2  C   LIG d   1      -6.362  92.483 116.229  0.00  0.00     0.016 C 
ATOM      3  C   LIG d   1      -6.282  91.239 115.561  0.00  0.00     0.038 C 
ATOM      4  C   LIG d   1      -5.420  90.220 115.993  0.00  0.00     0.028 C 
ATOM      5  C   LIG d   1      -4.181  90.740 116.713  0.00  0.00    -0.047 C 
ATOM      6  C   LIG d   1      -4.621  91.718 117.827  0.00  0.00     0.091 C 
ENDROOT
BRANCH   1   7
ATOM      7  O   LIG d   1      -6.246  93.481 118.329  0.00  0.00    -0.368 OA
BRANCH   7   8
ATOM      8  C   LIG d   1      -6.324  94.928 118.294  0.00  0.00     0.119 C 
BRANCH   8   9
ATOM      9  C   LIG d   1      -5.635  95.459 119.565  0.00  0.00     0.028 C 
ATOM     10  C   LIG d   1      -4.248  96.058 119.274  0.00  0.00     0.006 C 
ENDBRANCH   8   9
BRANCH   8  11
ATOM     11  C   LIG d   1      -7.774  95.411 118.386  0.00  0.00     0.028 C 
ATOM     12  C   LIG d   1      -8.087  96.550 117.404  0.00  0.00     0.006 C 
ENDBRANCH   8  11
ENDBRANCH   7   8
ENDBRANCH   1   7
BRANCH   6  13
ATOM     13  N   LIG d   1      -3.465  92.338 118.526  0.00  0.00    -0.311 N 
ATOM     14  C   LIG d   1      -3.352  92.389 119.852  0.00  0.00     0.210 C 
ATOM     15  C   LIG d   1      -2.091  93.090 120.367  0.00  0.00     0.109 C 
ATOM     16  O   LIG d   1      -4.159  91.891 120.650  0.00  0.00    -0.276 OA
ATOM     17  H   LIG d   1      -2.747  92.739 117.954  0.00  0.00     0.149 HD
ENDBRANCH   6  13
BRANCH   5  18
ATOM     18  N   LIG d   1      -3.442  89.572 117.229  0.00  0.00     0.381 N 
ATOM     19  H   LIG d   1      -4.080  88.828 117.428  0.00  0.00    -0.090 HD
ATOM     20  H   LIG d   1      -2.981  89.830 118.084  0.00  0.00    -0.090 HD
ATOM     21  H   LIG d   1      -2.768  89.272 116.559  0.00  0.00    -0.090 HD
ENDBRANCH   5  18
BRANCH   3  22
ATOM     22  C   LIG d   1      -7.043  91.019 114.424  0.00  0.00     0.382 C 
ATOM     23  O   LIG d   1      -7.738  91.948 113.945  0.00  0.00    -0.241 OA
ATOM     24  O   LIG d   1      -7.079  89.892 113.895  0.00  0.00    -0.241 OA
ENDBRANCH   3  22
TORSDOF 7
ENDMDL
MODEL 3
REMARK VINA RESULT:      -5.3      2.351      5.095
REMARK  7 active torsions:
REMARK  status: ('A' for Active; 'I' for Inactive)
REMARK    1  A    between atoms: C_2  and  C_3 
REMARK    2  A    between atoms: C_3  and  O_6 
REMARK    3  A    between atoms: C_3  and  C_4 
REMARK    4  A    between atoms: C_7  and  O_6 
REMARK    5  A    between atoms: C_9  and  C_10 
REMARK    6  A    between atoms: N_15  and  C_14 
REMARK    7  A    between atoms: N_20  and  C_19 
REMARK       I    between atoms: C_22  and  N_20 
ROOT
ATOM      1  C   LIG d   1      -4.326  92.157 117.445  0.00  0.00     0.161 C 
ATOM      2  C   LIG d   1      -3.697  92.906 118.453  0.00  0.00     0.016 C 
ATOM      3  C   LIG d   1      -4.310  93.998 119.109  0.00  0.00     0.038 C 
ATOM      4  C   LIG d   1      -5.659  94.323 118.905  0.00  0.00     0.028 C 
ATOM      5  C   LIG d   1      -6.179  93.914 117.530  0.00  0.00    -0.047 C 
ATOM      6  C   LIG d   1      -5.837  92.427 117.286  0.00  0.00     0.091 C 
ENDROOT
BRANCH   1   7
ATOM      7  O   LIG d   1      -4.087  90.752 117.658  0.00  0.00    -0.368 OA
BRANCH   7   8
ATOM      8  C   LIG d   1      -2.946  90.418 118.486  0.00  0.00     0.119 C 
BRANCH   8   9
ATOM      9  C   LIG d   1      -1.839  89.887 117.555  0.00  0.00     0.028 C 
ATOM     10  C   LIG d   1      -0.616  90.819 117.505  0.00  0.00     0.006 C 
ENDBRANCH   8   9
BRANCH   8  11
ATOM     11  C   LIG d   1      -3.267  89.261 119.436  0.00  0.00     0.028 C 
ATOM     12  C   LIG d   1      -2.484  87.981 119.102  0.00  0.00     0.006 C 
ENDBRANCH   8  11
ENDBRANCH   7   8
ENDBRANCH   1   7
BRANCH   6  13
ATOM     13  N   LIG d   1      -6.236  91.969 115.930  0.00  0.00    -0.311 N 
ATOM     14  C   LIG d   1      -6.969  90.879 115.711  0.00  0.00     0.210 C 
ATOM     15  C   LIG d   1      -7.251  90.574 114.236  0.00  0.00     0.109 C 
ATOM     16  O   LIG d   1      -7.440  90.153 116.599  0.00  0.00    -0.276 OA
ATOM     17  H   LIG d   1      -5.923  92.517 115.153  0.00  0.00     0.149 HD
ENDBRANCH   6  13
BRANCH   5  18
ATOM     18  N   LIG d   1      -7.629  94.186 117.504  0.00  0.00     0.381 N 
ATOM     19  H   LIG d   1      -8.028  93.984 118.398  0.00  0.00    -0.090 HD
ATOM     20  H   LIG d   1      -8.059  93.586 116.823  0.00  0.00    -0.090 HD
ATOM     21  H   LIG d   1      -7.792  95.140 117.267  0.00  0.00    -0.090 HD
ENDBRANCH   5  18
BRANCH   3  22
ATOM     22  C   LIG d   1      -3.559  94.803 119.952  0.00  0.00     0.382 C 
ATOM     23  O   LIG d   1      -3.465  96.034 119.724  0.00  0.00    -0.241 OA
ATOM     24  O   LIG d   1      -2.938  94.308 120.911  0.00  0.00    -0.241 OA
ENDBRANCH   3  22
TORSDOF 7
ENDMDL
MODEL 4
REMARK VINA RESULT:      -5.3      2.263      4.910
REMARK  7 active torsions:
REMARK  status: ('A' for Active; 'I' for Inactive)
REMARK    1  A    between atoms: C_2  and  C_3 
REMARK    2  A    between atoms: C_3  and  O_6 
REMARK    3  A    between atoms: C_3  and  C_4 
REMARK    4  A    between atoms: C_7  and  O_6 
REMARK    5  A    between atoms: C_9  and  C_10 
REMARK    6  A    between atoms: N_15  and  C_14 
REMARK    7  A    between atoms: N_20  and  C_19 
REMARK       I    between atoms: C_22  and  N_20 
ROOT
ATOM      1  C   LIG d   1      -5.480  92.548 117.029  0.00  0.00     0.161 C 
ATOM      2  C   LIG d   1      -4.665  91.477 117.429  0.00  0.00     0.016 C 
ATOM      3  C   LIG d   1      -4.422  91.147 118.783  0.00  0.00     0.038 C 
ATOM      4  C   LIG d   1      -5.104  91.778 119.834  0.00  0.00     0.028 C 
ATOM      5  C   LIG d   1      -5.551  93.197 119.500  0.00  0.00    -0.047 C 
ATOM      6  C   LIG d   1      -6.321  93.179 118.160  0.00  0.00     0.091 C 
ENDROOT
BRANCH   1   7
ATOM      7  O   LIG d   1      -6.332  92.135 115.942  0.00  0.00    -0.368 OA
BRANCH   7   8
ATOM      8  C   LIG d   1      -6.576  90.712 115.830  0.00  0.00     0.119 C 
BRANCH   8   9
ATOM      9  C   LIG d   1      -7.101  90.443 114.406  0.00  0.00     0.028 C 
ATOM     10  C   LIG d   1      -7.441  91.740 113.652  0.00  0.00     0.006 C 
ENDBRANCH   8   9
BRANCH   8  11
ATOM     11  C   LIG d   1      -7.700  90.263 116.768  0.00  0.00     0.028 C 
ATOM     12  C   LIG d   1      -8.784  89.444 116.050  0.00  0.00     0.006 C 
ENDBRANCH   8  11
ENDBRANCH   7   8
ENDBRANCH   1   7
BRANCH   6  13
ATOM     13  N   LIG d   1      -6.721  94.540 117.717  0.00  0.00    -0.311 N 
ATOM     14  C   LIG d   1      -7.933  95.051 117.924  0.00  0.00     0.210 C 
ATOM     15  C   LIG d   1      -8.142  96.463 117.369  0.00  0.00     0.109 C 
ATOM     16  O   LIG d   1      -8.845  94.481 118.543  0.00  0.00    -0.276 OA
ATOM     17  H   LIG d   1      -6.032  95.083 117.234  0.00  0.00     0.149 HD
ENDBRANCH   6  13
BRANCH   5  18
ATOM     18  N   LIG d   1      -6.366  93.684 120.628  0.00  0.00     0.381 N 
ATOM     19  H   LIG d   1      -5.769  93.993 121.369  0.00  0.00    -0.090 HD
ATOM     20  H   LIG d   1      -6.931  92.927 120.973  0.00  0.00    -0.090 HD
ATOM     21  H   LIG d   1      -6.950  94.434 120.328  0.00  0.00    -0.090 HD
ENDBRANCH   5  18
BRANCH   3  22
ATOM     22  C   LIG d   1      -3.457  90.201 119.097  0.00  0.00     0.382 C 
ATOM     23  O   LIG d   1      -2.278  90.562 119.326  0.00  0.00    -0.241 OA
ATOM     24  O   LIG d   1      -3.742  88.989 119.111  0.00  0.00    -0.241 OA
ENDBRANCH   3  22
TORSDOF 7
ENDMDL
MODEL 5
REMARK VINA RESULT:      -5.2      2.763      6.520
REMARK  7 active torsions:
REMARK  status: ('A' for Active; 'I' for Inactive)
REMARK    1  A    between atoms: C_2  and  C_3 
REMARK    2  A    between atoms: C_3  and  O_6 
REMARK    3  A    between atoms: C_3  and  C_4 
REMARK    4  A    between atoms: C_7  and  O_6 
REMARK    5  A    between atoms: C_9  and  C_10 
REMARK    6  A    between atoms: N_15  and  C_14 
REMARK    7  A    between atoms: N_20  and  C_19 
REMARK       I    between atoms: C_22  and  N_20 
ROOT
ATOM      1  C   LIG d   1      -4.221  91.931 118.200  0.00  0.00     0.161 C 
ATOM      2  C   LIG d   1      -4.724  91.029 117.248  0.00  0.00     0.016 C 
ATOM      3  C   LIG d   1      -5.815  91.323 116.397  0.00  0.00     0.038 C 
ATOM      4  C   LIG d   1      -6.383  92.604 116.337  0.00  0.00     0.028 C 
ATOM      5  C   LIG d   1      -6.239  93.393 117.634  0.00  0.00    -0.047 C 
ATOM      6  C   LIG d   1      -4.756  93.373 118.071  0.00  0.00     0.091 C 
ENDROOT
BRANCH   1   7
ATOM      7  O   LIG d   1      -2.780  91.927 118.163  0.00  0.00    -0.368 OA
BRANCH   7   8
ATOM      8  C   LIG d   1      -2.127  90.841 118.865  0.00  0.00     0.119 C 
BRANCH   8   9
ATOM      9  C   LIG d   1      -1.049  91.459 119.775  0.00  0.00     0.028 C 
ATOM     10  C   LIG d   1      -0.891  92.973 119.553  0.00  0.00     0.006 C 
ENDBRANCH   8   9
BRANCH   8  11
ATOM     11  C   LIG d   1      -1.367  89.929 117.897  0.00  0.00     0.028 C 
ATOM     12  C   LIG d   1      -1.992  88.530 117.782  0.00  0.00     0.006 C 
ENDBRANCH   8  11
ENDBRANCH   7   8
ENDBRANCH   1   7
BRANCH   6  13
ATOM     13  N   LIG d   1      -4.541  94.050 119.376  0.00  0.00    -0.311 N 
ATOM     14  C   LIG d   1      -4.214  95.337 119.489  0.00  0.00     0.210 C 
ATOM     15  C   LIG d   1      -4.019  95.830 120.926  0.00  0.00     0.109 C 
ATOM     16  O   LIG d   1      -4.098  96.123 118.538  0.00  0.00    -0.276 OA
ATOM     17  H   LIG d   1      -4.645  93.494 120.202  0.00  0.00     0.149 HD
ENDBRANCH   6  13
BRANCH   5  18
ATOM     18  N   LIG d   1      -6.751  94.754 117.387  0.00  0.00     0.381 N 
ATOM     19  H   LIG d   1      -6.026  95.424 117.553  0.00  0.00    -0.090 HD
ATOM     20  H   LIG d   1      -7.503  94.939 118.027  0.00  0.00    -0.090 HD
ATOM     21  H   LIG d   1      -7.076  94.831 116.449  0.00  0.00    -0.090 HD
ENDBRANCH   5  18
BRANCH   3  22
ATOM     22  C   LIG d   1      -6.373  90.317 115.624  0.00  0.00     0.382 C 
ATOM     23  O   LIG d   1      -5.758  89.884 114.620  0.00  0.00    -0.241 OA
ATOM     24  O   LIG d   1      -7.504  89.869 115.891  0.00  0.00    -0.241 OA
ENDBRANCH   3  22
TORSDOF 7
ENDMDL
MODEL 6
REMARK VINA RESULT:      -5.0      1.370      2.209
REMARK  7 active torsions:
REMARK  status: ('A' for Active; 'I' for Inactive)
REMARK    1  A    between atoms: C_2  and  C_3 
REMARK    2  A    between atoms: C_3  and  O_6 
REMARK    3  A    between atoms: C_3  and  C_4 
REMARK    4  A    between atoms: C_7  and  O_6 
REMARK    5  A    between atoms: C_9  and  C_10 
REMARK    6  A    between atoms: N_15  and  C_14 
REMARK    7  A    between atoms: N_20  and  C_19 
REMARK       I    between atoms: C_22  and  N_20 
ROOT
ATOM      1  C   LIG d   1      -5.308  93.069 118.193  0.00  0.00     0.161 C 
ATOM      2  C   LIG d   1      -4.327  93.659 119.006  0.00  0.00     0.016 C 
ATOM      3  C   LIG d   1      -3.022  93.135 119.156  0.00  0.00     0.038 C 
ATOM      4  C   LIG d   1      -2.560  92.063 118.378  0.00  0.00     0.028 C 
ATOM      5  C   LIG d   1      -3.672  91.126 117.917  0.00  0.00    -0.047 C 
ATOM      6  C   LIG d   1      -4.788  91.962 117.251  0.00  0.00     0.091 C 
ENDROOT
BRANCH   1   7
ATOM      7  O   LIG d   1      -5.994  94.087 117.438  0.00  0.00    -0.368 OA
BRANCH   7   8
ATOM      8  C   LIG d   1      -7.354  94.377 117.847  0.00  0.00     0.119 C 
BRANCH   8   9
ATOM      9  C   LIG d   1      -7.369  95.804 118.427  0.00  0.00     0.028 C 
ATOM     10  C   LIG d   1      -7.918  96.837 117.429  0.00  0.00     0.006 C 
ENDBRANCH   8   9
BRANCH   8  11
ATOM     11  C   LIG d   1      -7.795  93.467 118.997  0.00  0.00     0.028 C 
ATOM     12  C   LIG d   1      -8.338  94.252 120.202  0.00  0.00     0.006 C 
ENDBRANCH   8  11
ENDBRANCH   7   8
ENDBRANCH   1   7
BRANCH   6  13
ATOM     13  N   LIG d   1      -5.953  91.132 116.846  0.00  0.00    -0.311 N 
ATOM     14  C   LIG d   1      -6.580  91.269 115.679  0.00  0.00     0.210 C 
ATOM     15  C   LIG d   1      -7.769  90.326 115.470  0.00  0.00     0.109 C 
ATOM     16  O   LIG d   1      -6.244  92.058 114.784  0.00  0.00    -0.276 OA
ATOM     17  H   LIG d   1      -6.273  90.445 117.500  0.00  0.00     0.149 HD
ENDBRANCH   6  13
BRANCH   5  18
ATOM     18  N   LIG d   1      -3.070  90.135 117.005  0.00  0.00     0.381 N 
ATOM     19  H   LIG d   1      -2.926  90.547 116.105  0.00  0.00    -0.090 HD
ATOM     20  H   LIG d   1      -3.703  89.362 116.901  0.00  0.00    -0.090 HD
ATOM     21  H   LIG d   1      -2.201  89.815 117.374  0.00  0.00    -0.090 HD
ENDBRANCH   5  18
BRANCH   3  22
ATOM     22  C   LIG d   1      -2.177  93.661 120.121  0.00  0.00     0.382 C 
ATOM     23  O   LIG d   1      -2.157  94.898 120.330  0.00  0.00    -0.241 OA
ATOM     24  O   LIG d   1      -1.402  92.919 120.754  0.00  0.00    -0.241 OA
ENDBRANCH   3  22
TORSDOF 7
ENDMDL
MODEL 7
REMARK VINA RESULT:      -4.9      2.406      5.359
REMARK  7 active torsions:
REMARK  status: ('A' for Active; 'I' for Inactive)
REMARK    1  A    between atoms: C_2  and  C_3 
REMARK    2  A    between atoms: C_3  and  O_6 
REMARK    3  A    between atoms: C_3  and  C_4 
REMARK    4  A    between atoms: C_7  and  O_6 
REMARK    5  A    between atoms: C_9  and  C_10 
REMARK    6  A    between atoms: N_15  and  C_14 
REMARK    7  A    between atoms: N_20  and  C_19 
REMARK       I    between atoms: C_22  and  N_20 
ROOT
ATOM      1  C   LIG d   1      -3.949  92.126 118.299  0.00  0.00     0.161 C 
ATOM      2  C   LIG d   1      -4.863  93.193 118.300  0.00  0.00     0.016 C 
ATOM      3  C   LIG d   1      -6.008  93.238 117.472  0.00  0.00     0.038 C 
ATOM      4  C   LIG d   1      -6.400  92.141 116.689  0.00  0.00     0.028 C 
ATOM      5  C   LIG d   1      -5.237  91.246 116.276  0.00  0.00    -0.047 C 
ATOM      6  C   LIG d   1      -4.420  90.872 117.533  0.00  0.00     0.091 C 
ENDROOT
BRANCH   1   7
ATOM      7  O   LIG d   1      -3.597  91.783 119.654  0.00  0.00    -0.368 OA
BRANCH   7   8
ATOM      8  C   LIG d   1      -2.256  92.136 120.073  0.00  0.00     0.119 C 
BRANCH   8   9
ATOM      9  C   LIG d   1      -2.359  93.415 120.927  0.00  0.00     0.028 C 
ATOM     10  C   LIG d   1      -1.074  94.259 120.878  0.00  0.00     0.006 C 
ENDBRANCH   8   9
BRANCH   8  11
ATOM     11  C   LIG d   1      -1.381  92.518 118.875  0.00  0.00     0.028 C 
ATOM     12  C   LIG d   1      -0.193  91.563 118.677  0.00  0.00     0.006 C 
ENDBRANCH   8  11
ENDBRANCH   7   8
ENDBRANCH   1   7
BRANCH   6  13
ATOM     13  N   LIG d   1      -3.215  90.066 117.207  0.00  0.00    -0.311 N 
ATOM     14  C   LIG d   1      -2.821  89.014 117.923  0.00  0.00     0.210 C 
ATOM     15  C   LIG d   1      -1.540  88.336 117.425  0.00  0.00     0.109 C 
ATOM     16  O   LIG d   1      -3.428  88.559 118.904  0.00  0.00    -0.276 OA
ATOM     17  H   LIG d   1      -2.681  90.346 116.408  0.00  0.00     0.149 HD
ENDBRANCH   6  13
BRANCH   5  18
ATOM     18  N   LIG d   1      -5.803  90.072 115.584  0.00  0.00     0.381 N 
ATOM     19  H   LIG d   1      -6.776  90.221 115.404  0.00  0.00    -0.090 HD
ATOM     20  H   LIG d   1      -5.712  89.268 116.180  0.00  0.00    -0.090 HD
ATOM     21  H   LIG d   1      -5.320  89.916 114.727  0.00  0.00    -0.090 HD
ENDBRANCH   5  18
BRANCH   3  22
ATOM     22  C   LIG d   1      -6.753  94.405 117.391  0.00  0.00     0.382 C 
ATOM     23  O   LIG d   1      -6.593  95.311 118.243  0.00  0.00    -0.241 OA
ATOM     24  O   LIG d   1      -7.614  94.544 116.501  0.00  0.00    -0.241 OA
ENDBRANCH   3  22
TORSDOF 7
ENDMDL
MODEL 8
REMARK VINA RESULT:      -4.8      2.227      4.647
REMARK  7 active torsions:
REMARK  status: ('A' for Active; 'I' for Inactive)
REMARK    1  A    between atoms: C_2  and  C_3 
REMARK    2  A    between atoms: C_3  and  O_6 
REMARK    3  A    between atoms: C_3  and  C_4 
REMARK    4  A    between atoms: C_7  and  O_6 
REMARK    5  A    between atoms: C_9  and  C_10 
REMARK    6  A    between atoms: N_15  and  C_14 
REMARK    7  A    between atoms: N_20  and  C_19 
REMARK       I    between atoms: C_22  and  N_20 
ROOT
ATOM      1  C   LIG d   1      -5.538  91.984 118.485  0.00  0.00     0.161 C 
ATOM      2  C   LIG d   1      -6.266  92.187 117.302  0.00  0.00     0.016 C 
ATOM      3  C   LIG d   1      -6.028  91.468 116.108  0.00  0.00     0.038 C 
ATOM      4  C   LIG d   1      -5.141  90.382 116.061  0.00  0.00     0.028 C 
ATOM      5  C   LIG d   1      -4.021  90.470 117.093  0.00  0.00    -0.047 C 
ATOM      6  C   LIG d   1      -4.641  90.728 118.485  0.00  0.00     0.091 C 
ENDROOT
BRANCH   1   7
ATOM      7  O   LIG d   1      -6.435  91.959 119.613  0.00  0.00    -0.368 OA
BRANCH   7   8
ATOM      8  C   LIG d   1      -6.347  93.084 120.522  0.00  0.00     0.119 C 
BRANCH   8   9
ATOM      9  C   LIG d   1      -7.767  93.661 120.683  0.00  0.00     0.028 C 
ATOM     10  C   LIG d   1      -8.203  94.493 119.465  0.00  0.00     0.006 C 
ENDBRANCH   8   9
BRANCH   8  11
ATOM     11  C   LIG d   1      -5.513  94.220 119.924  0.00  0.00     0.028 C 
ATOM     12  C   LIG d   1      -4.502  94.806 120.922  0.00  0.00     0.006 C 
ENDBRANCH   8  11
ENDBRANCH   7   8
ENDBRANCH   1   7
BRANCH   6  13
ATOM     13  N   LIG d   1      -3.610  90.911 119.540  0.00  0.00    -0.311 N 
ATOM     14  C   LIG d   1      -2.631  91.810 119.459  0.00  0.00     0.210 C 
ATOM     15  C   LIG d   1      -1.663  91.820 120.646  0.00  0.00     0.109 C 
ATOM     16  O   LIG d   1      -2.491  92.623 118.533  0.00  0.00    -0.276 OA
ATOM     17  H   LIG d   1      -3.667  90.314 120.342  0.00  0.00     0.149 HD
ENDBRANCH   6  13
BRANCH   5  18
ATOM     18  N   LIG d   1      -3.254  89.212 117.026  0.00  0.00     0.381 N 
ATOM     19  H   LIG d   1      -3.077  88.873 117.950  0.00  0.00    -0.090 HD
ATOM     20  H   LIG d   1      -2.370  89.394 116.582  0.00  0.00    -0.090 HD
ATOM     21  H   LIG d   1      -3.761  88.531 116.505  0.00  0.00    -0.090 HD
ENDBRANCH   5  18
BRANCH   3  22
ATOM     22  C   LIG d   1      -6.654  91.858 114.934  0.00  0.00     0.382 C 
ATOM     23  O   LIG d   1      -6.970  93.060 114.762  0.00  0.00    -0.241 OA
ATOM     24  O   LIG d   1      -6.946  91.016 114.064  0.00  0.00    -0.241 OA
ENDBRANCH   3  22
TORSDOF 7
ENDMDL
MODEL 9
REMARK VINA RESULT:      -4.8      2.401      5.611
REMARK  7 active torsions:
REMARK  status: ('A' for Active; 'I' for Inactive)
REMARK    1  A    between atoms: C_2  and  C_3 
REMARK    2  A    between atoms: C_3  and  O_6 
REMARK    3  A    between atoms: C_3  and  C_4 
REMARK    4  A    between atoms: C_7  and  O_6 
REMARK    5  A    between atoms: C_9  and  C_10 
REMARK    6  A    between atoms: N_15  and  C_14 
REMARK    7  A    between atoms: N_20  and  C_19 
REMARK       I    between atoms: C_22  and  N_20 
ROOT
ATOM      1  C   LIG d   1      -6.218  92.282 118.922  0.00  0.00     0.161 C 
ATOM      2  C   LIG d   1      -7.252  93.120 118.473  0.00  0.00     0.016 C 
ATOM      3  C   LIG d   1      -7.150  94.529 118.433  0.00  0.00     0.038 C 
ATOM      4  C   LIG d   1      -5.942  95.193 118.697  0.00  0.00     0.028 C 
ATOM      5  C   LIG d   1      -5.022  94.423 119.638  0.00  0.00    -0.047 C 
ATOM      6  C   LIG d   1      -4.855  92.981 119.109  0.00  0.00     0.091 C 
ENDROOT
BRANCH   1   7
ATOM      7  O   LIG d   1      -6.084  91.153 118.035  0.00  0.00    -0.368 OA
BRANCH   7   8
ATOM      8  C   LIG d   1      -5.305  91.374 116.834  0.00  0.00     0.119 C 
BRANCH   8   9
ATOM      9  C   LIG d   1      -6.292  91.689 115.693  0.00  0.00     0.028 C 
ATOM     10  C   LIG d   1      -6.412  90.534 114.686  0.00  0.00     0.006 C 
ENDBRANCH   8   9
BRANCH   8  11
ATOM     11  C   LIG d   1      -4.577  90.099 116.399  0.00  0.00     0.028 C 
ATOM     12  C   LIG d   1      -3.447  89.700 117.363  0.00  0.00     0.006 C 
ENDBRANCH   8  11
ENDBRANCH   7   8
ENDBRANCH   1   7
BRANCH   6  13
ATOM     13  N   LIG d   1      -4.037  92.135 120.016  0.00  0.00    -0.311 N 
ATOM     14  C   LIG d   1      -2.716  92.002 119.903  0.00  0.00     0.210 C 
ATOM     15  C   LIG d   1      -2.070  91.066 120.929  0.00  0.00     0.109 C 
ATOM     16  O   LIG d   1      -2.015  92.595 119.069  0.00  0.00    -0.276 OA
ATOM     17  H   LIG d   1      -4.521  91.642 120.741  0.00  0.00     0.149 HD
ENDBRANCH   6  13
BRANCH   5  18
ATOM     18  N   LIG d   1      -3.747  95.161 119.718  0.00  0.00     0.381 N 
ATOM     19  H   LIG d   1      -3.921  96.108 119.990  0.00  0.00    -0.090 HD
ATOM     20  H   LIG d   1      -3.319  95.168 118.809  0.00  0.00    -0.090 HD
ATOM     21  H   LIG d   1      -3.140  94.724 120.376  0.00  0.00    -0.090 HD
ENDBRANCH   5  18
BRANCH   3  22
ATOM     22  C   LIG d   1      -8.275  95.293 118.163  0.00  0.00     0.382 C 
ATOM     23  O   LIG d   1      -8.786  95.273 117.017  0.00  0.00    -0.241 OA
ATOM     24  O   LIG d   1      -8.760  96.035 119.038  0.00  0.00    -0.241 OA
ENDBRANCH   3  22
TORSDOF 7
ENDMDL
