MODEL 1
REMARK VINA RESULT:      -4.6      0.000      0.000
REMARK  7 active torsions:
REMARK  status: ('A' for Active; 'I' for Inactive)
REMARK    1  A    between atoms: C_2  and  C_3 
REMARK    2  A    between atoms: C_3  and  O_6 
REMARK    3  A    between atoms: C_3  and  C_4 
REMARK    4  A    between atoms: C_7  and  O_6 
REMARK    5  A    between atoms: C_9  and  C_10 
REMARK    6  A    between atoms: N_15  and  C_14 
REMARK    7  A    between atoms: N_20  and  C_19 
REMARK       I    between atoms: C_22  and  N_20 
ROOT
ATOM      1  C   LIG d   1       3.565  90.053 116.830  0.00  0.00     0.161 C 
ATOM      2  C   LIG d   1       2.473  90.833 117.244  0.00  0.00     0.016 C 
ATOM      3  C   LIG d   1       2.524  91.726 118.339  0.00  0.00     0.038 C 
ATOM      4  C   LIG d   1       3.724  92.012 119.006  0.00  0.00     0.028 C 
ATOM      5  C   LIG d   1       4.737  90.874 118.948  0.00  0.00    -0.047 C 
ATOM      6  C   LIG d   1       4.914  90.435 117.477  0.00  0.00     0.091 C 
ENDROOT
BRANCH   1   7
ATOM      7  O   LIG d   1       3.672  90.084 115.393  0.00  0.00    -0.368 OA
BRANCH   7   8
ATOM      8  C   LIG d   1       3.299  88.867 114.701  0.00  0.00     0.119 C 
BRANCH   8   9
ATOM      9  C   LIG d   1       3.270  87.731 115.742  0.00  0.00     0.028 C 
ATOM     10  C   LIG d   1       4.255  86.600 115.404  0.00  0.00     0.006 C 
ENDBRANCH   8   9
BRANCH   8  11
ATOM     11  C   LIG d   1       4.367  88.456 113.682  0.00  0.00     0.028 C 
ATOM     12  C   LIG d   1       5.500  89.487 113.558  0.00  0.00     0.006 C 
ENDBRANCH   8  11
ENDBRANCH   7   8
ENDBRANCH   1   7
BRANCH   6  13
ATOM     13  N   LIG d   1       5.825  89.269 117.339  0.00  0.00    -0.311 N 
ATOM     14  C   LIG d   1       7.135  89.383 117.131  0.00  0.00     0.210 C 
ATOM     15  C   LIG d   1       7.887  88.054 116.998  0.00  0.00     0.109 C 
ATOM     16  O   LIG d   1       7.752  90.457 117.075  0.00  0.00    -0.276 OA
ATOM     17  H   LIG d   1       5.413  88.358 117.402  0.00  0.00     0.149 HD
ENDBRANCH   6  13
BRANCH   5  18
ATOM     18  N   LIG d   1       5.988  91.358 119.562  0.00  0.00     0.381 N 
ATOM     19  H   LIG d   1       6.235  92.245 119.171  0.00  0.00    -0.090 HD
ATOM     20  H   LIG d   1       6.724  90.706 119.356  0.00  0.00    -0.090 HD
ATOM     21  H   LIG d   1       5.874  91.441 120.548  0.00  0.00    -0.090 HD
ENDBRANCH   5  18
BRANCH   3  22
ATOM     22  C   LIG d   1       1.356  92.312 118.803  0.00  0.00     0.382 C 
ATOM     23  O   LIG d   1       0.243  91.905 118.390  0.00  0.00    -0.241 OA
ATOM     24  O   LIG d   1       1.403  93.273 119.594  0.00  0.00    -0.241 OA
ENDBRANCH   3  22
TORSDOF 7
ENDMDL
MODEL 2
REMARK VINA RESULT:      -4.2      1.723      2.103
REMARK  7 active torsions:
REMARK  status: ('A' for Active; 'I' for Inactive)
REMARK    1  A    between atoms: C_2  and  C_3 
REMARK    2  A    between atoms: C_3  and  O_6 
REMARK    3  A    between atoms: C_3  and  C_4 
REMARK    4  A    between atoms: C_7  and  O_6 
REMARK    5  A    between atoms: C_9  and  C_10 
REMARK    6  A    between atoms: N_15  and  C_14 
REMARK    7  A    between atoms: N_20  and  C_19 
REMARK       I    between atoms: C_22  and  N_20 
ROOT
ATOM      1  C   LIG d   1       4.789  88.206 116.956  0.00  0.00     0.161 C 
ATOM      2  C   LIG d   1       3.790  89.192 116.999  0.00  0.00     0.016 C 
ATOM      3  C   LIG d   1       4.011  90.503 117.482  0.00  0.00     0.038 C 
ATOM      4  C   LIG d   1       5.293  90.964 117.816  0.00  0.00     0.028 C 
ATOM      5  C   LIG d   1       6.238  89.854 118.265  0.00  0.00    -0.047 C 
ATOM      6  C   LIG d   1       6.221  88.723 117.212  0.00  0.00     0.091 C 
ENDROOT
BRANCH   1   7
ATOM      7  O   LIG d   1       4.728  87.503 115.699  0.00  0.00    -0.368 OA
BRANCH   7   8
ATOM      8  C   LIG d   1       3.640  87.870 114.816  0.00  0.00     0.119 C 
BRANCH   8   9
ATOM      9  C   LIG d   1       2.785  86.609 114.585  0.00  0.00     0.028 C 
ATOM     10  C   LIG d   1       1.573  86.541 115.529  0.00  0.00     0.006 C 
ENDBRANCH   8   9
BRANCH   8  11
ATOM     11  C   LIG d   1       4.156  88.269 113.431  0.00  0.00     0.028 C 
ATOM     12  C   LIG d   1       5.067  89.507 113.468  0.00  0.00     0.006 C 
ENDBRANCH   8  11
ENDBRANCH   7   8
ENDBRANCH   1   7
BRANCH   6  13
ATOM     13  N   LIG d   1       7.054  87.560 117.615  0.00  0.00    -0.311 N 
ATOM     14  C   LIG d   1       8.353  87.459 117.339  0.00  0.00     0.210 C 
ATOM     15  C   LIG d   1       9.019  86.169 117.828  0.00  0.00     0.109 C 
ATOM     16  O   LIG d   1       9.024  88.329 116.764  0.00  0.00    -0.276 OA
ATOM     17  H   LIG d   1       6.596  86.822 118.113  0.00  0.00     0.149 HD
ENDBRANCH   6  13
BRANCH   5  18
ATOM     18  N   LIG d   1       7.573  90.453 118.448  0.00  0.00     0.381 N 
ATOM     19  H   LIG d   1       7.507  91.252 119.048  0.00  0.00    -0.090 HD
ATOM     20  H   LIG d   1       7.919  90.757 117.555  0.00  0.00    -0.090 HD
ATOM     21  H   LIG d   1       8.196  89.783 118.843  0.00  0.00    -0.090 HD
ENDBRANCH   5  18
BRANCH   3  22
ATOM     22  C   LIG d   1       2.934  91.355 117.673  0.00  0.00     0.382 C 
ATOM     23  O   LIG d   1       1.790  90.883 117.879  0.00  0.00    -0.241 OA
ATOM     24  O   LIG d   1       3.084  92.589 117.597  0.00  0.00    -0.241 OA
ENDBRANCH   3  22
TORSDOF 7
ENDMDL
MODEL 3
REMARK VINA RESULT:      -4.0      2.076      5.009
REMARK  7 active torsions:
REMARK  status: ('A' for Active; 'I' for Inactive)
REMARK    1  A    between atoms: C_2  and  C_3 
REMARK    2  A    between atoms: C_3  and  O_6 
REMARK    3  A    between atoms: C_3  and  C_4 
REMARK    4  A    between atoms: C_7  and  O_6 
REMARK    5  A    between atoms: C_9  and  C_10 
REMARK    6  A    between atoms: N_15  and  C_14 
REMARK    7  A    between atoms: N_20  and  C_19 
REMARK       I    between atoms: C_22  and  N_20 
ROOT
ATOM      1  C   LIG d   1       4.840  90.480 117.390  0.00  0.00     0.161 C 
ATOM      2  C   LIG d   1       3.977  89.912 116.438  0.00  0.00     0.016 C 
ATOM      3  C   LIG d   1       4.365  88.879 115.554  0.00  0.00     0.038 C 
ATOM      4  C   LIG d   1       5.606  88.234 115.667  0.00  0.00     0.028 C 
ATOM      5  C   LIG d   1       6.692  89.112 116.280  0.00  0.00    -0.047 C 
ATOM      6  C   LIG d   1       6.163  89.714 117.602  0.00  0.00     0.091 C 
ENDROOT
BRANCH   1   7
ATOM      7  O   LIG d   1       4.147  90.639 118.644  0.00  0.00    -0.368 OA
BRANCH   7   8
ATOM      8  C   LIG d   1       3.754  91.991 118.987  0.00  0.00     0.119 C 
BRANCH   8   9
ATOM      9  C   LIG d   1       2.357  92.234 118.385  0.00  0.00     0.028 C 
ATOM     10  C   LIG d   1       1.322  92.639 119.448  0.00  0.00     0.006 C 
ENDBRANCH   8   9
BRANCH   8  11
ATOM     11  C   LIG d   1       4.668  93.023 118.321  0.00  0.00     0.028 C 
ATOM     12  C   LIG d   1       5.439  93.881 119.337  0.00  0.00     0.006 C 
ENDBRANCH   8  11
ENDBRANCH   7   8
ENDBRANCH   1   7
BRANCH   6  13
ATOM     13  N   LIG d   1       7.131  90.653 118.225  0.00  0.00    -0.311 N 
ATOM     14  C   LIG d   1       7.457  90.620 119.516  0.00  0.00     0.210 C 
ATOM     15  C   LIG d   1       8.461  91.691 119.957  0.00  0.00     0.109 C 
ATOM     16  O   LIG d   1       7.036  89.786 120.331  0.00  0.00    -0.276 OA
ATOM     17  H   LIG d   1       7.545  91.343 117.630  0.00  0.00     0.149 HD
ENDBRANCH   6  13
BRANCH   5  18
ATOM     18  N   LIG d   1       7.891  88.274 116.465  0.00  0.00     0.381 N 
ATOM     19  H   LIG d   1       8.292  88.451 117.365  0.00  0.00    -0.090 HD
ATOM     20  H   LIG d   1       8.569  88.518 115.764  0.00  0.00    -0.090 HD
ATOM     21  H   LIG d   1       7.650  87.311 116.384  0.00  0.00    -0.090 HD
ENDBRANCH   5  18
BRANCH   3  22
ATOM     22  C   LIG d   1       3.522  88.507 114.519  0.00  0.00     0.382 C 
ATOM     23  O   LIG d   1       3.553  89.130 113.430  0.00  0.00    -0.241 OA
ATOM     24  O   LIG d   1       2.698  87.585 114.674  0.00  0.00    -0.241 OA
ENDBRANCH   3  22
TORSDOF 7
ENDMDL
MODEL 4
REMARK VINA RESULT:      -3.9      2.298      4.908
REMARK  7 active torsions:
REMARK  status: ('A' for Active; 'I' for Inactive)
REMARK    1  A    between atoms: C_2  and  C_3 
REMARK    2  A    between atoms: C_3  and  O_6 
REMARK    3  A    between atoms: C_3  and  C_4 
REMARK    4  A    between atoms: C_7  and  O_6 
REMARK    5  A    between atoms: C_9  and  C_10 
REMARK    6  A    between atoms: N_15  and  C_14 
REMARK    7  A    between atoms: N_20  and  C_19 
REMARK       I    between atoms: C_22  and  N_20 
ROOT
ATOM      1  C   LIG d   1       4.944  88.833 116.837  0.00  0.00     0.161 C 
ATOM      2  C   LIG d   1       4.321  87.816 116.093  0.00  0.00     0.016 C 
ATOM      3  C   LIG d   1       2.943  87.815 115.778  0.00  0.00     0.038 C 
ATOM      4  C   LIG d   1       2.117  88.914 116.059  0.00  0.00     0.028 C 
ATOM      5  C   LIG d   1       2.591  89.738 117.252  0.00  0.00    -0.047 C 
ATOM      6  C   LIG d   1       4.082  90.094 117.056  0.00  0.00     0.091 C 
ENDROOT
BRANCH   1   7
ATOM      7  O   LIG d   1       6.201  89.185 116.226  0.00  0.00    -0.368 OA
BRANCH   7   8
ATOM      8  C   LIG d   1       7.392  88.696 116.891  0.00  0.00     0.119 C 
BRANCH   8   9
ATOM      9  C   LIG d   1       7.740  87.328 116.270  0.00  0.00     0.028 C 
ATOM     10  C   LIG d   1       9.246  87.024 116.328  0.00  0.00     0.006 C 
ENDBRANCH   8   9
BRANCH   8  11
ATOM     11  C   LIG d   1       7.126  88.413 118.372  0.00  0.00     0.028 C 
ATOM     12  C   LIG d   1       7.772  89.453 119.302  0.00  0.00     0.006 C 
ENDBRANCH   8  11
ENDBRANCH   7   8
ENDBRANCH   1   7
BRANCH   6  13
ATOM     13  N   LIG d   1       4.647  90.828 118.218  0.00  0.00    -0.311 N 
ATOM     14  C   LIG d   1       4.604  92.154 118.338  0.00  0.00     0.210 C 
ATOM     15  C   LIG d   1       5.263  92.709 119.605  0.00  0.00     0.109 C 
ATOM     16  O   LIG d   1       4.055  92.920 117.533  0.00  0.00    -0.276 OA
ATOM     17  H   LIG d   1       5.084  90.282 118.934  0.00  0.00     0.149 HD
ENDBRANCH   6  13
BRANCH   5  18
ATOM     18  N   LIG d   1       1.721  90.925 117.347  0.00  0.00     0.381 N 
ATOM     19  H   LIG d   1       1.143  90.988 116.532  0.00  0.00    -0.090 HD
ATOM     20  H   LIG d   1       2.296  91.748 117.389  0.00  0.00    -0.090 HD
ATOM     21  H   LIG d   1       1.152  90.867 118.163  0.00  0.00    -0.090 HD
ENDBRANCH   5  18
BRANCH   3  22
ATOM     22  C   LIG d   1       2.368  86.688 115.211  0.00  0.00     0.382 C 
ATOM     23  O   LIG d   1       3.087  85.708 114.898  0.00  0.00    -0.241 OA
ATOM     24  O   LIG d   1       1.147  86.655 114.968  0.00  0.00    -0.241 OA
ENDBRANCH   3  22
TORSDOF 7
ENDMDL
MODEL 5
REMARK VINA RESULT:      -3.8      2.638      3.939
REMARK  7 active torsions:
REMARK  status: ('A' for Active; 'I' for Inactive)
REMARK    1  A    between atoms: C_2  and  C_3 
REMARK    2  A    between atoms: C_3  and  O_6 
REMARK    3  A    between atoms: C_3  and  C_4 
REMARK    4  A    between atoms: C_7  and  O_6 
REMARK    5  A    between atoms: C_9  and  C_10 
REMARK    6  A    between atoms: N_15  and  C_14 
REMARK    7  A    between atoms: N_20  and  C_19 
REMARK       I    between atoms: C_22  and  N_20 
ROOT
ATOM      1  C   LIG d   1       6.011  89.122 118.180  0.00  0.00     0.161 C 
ATOM      2  C   LIG d   1       4.812  89.840 118.324  0.00  0.00     0.016 C 
ATOM      3  C   LIG d   1       4.064  90.332 117.231  0.00  0.00     0.038 C 
ATOM      4  C   LIG d   1       4.387  90.008 115.905  0.00  0.00     0.028 C 
ATOM      5  C   LIG d   1       5.868  89.712 115.698  0.00  0.00    -0.047 C 
ATOM      6  C   LIG d   1       6.321  88.663 116.740  0.00  0.00     0.091 C 
ENDROOT
BRANCH   1   7
ATOM      7  O   LIG d   1       6.017  87.995 119.077  0.00  0.00    -0.368 OA
BRANCH   7   8
ATOM      8  C   LIG d   1       5.243  86.843 118.659  0.00  0.00     0.119 C 
BRANCH   8   9
ATOM      9  C   LIG d   1       3.914  86.871 119.439  0.00  0.00     0.028 C 
ATOM     10  C   LIG d   1       2.688  86.830 118.511  0.00  0.00     0.006 C 
ENDBRANCH   8   9
BRANCH   8  11
ATOM     11  C   LIG d   1       5.926  85.535 119.067  0.00  0.00     0.028 C 
ATOM     12  C   LIG d   1       7.314  85.755 119.688  0.00  0.00     0.006 C 
ENDBRANCH   8  11
ENDBRANCH   7   8
ENDBRANCH   1   7
BRANCH   6  13
ATOM     13  N   LIG d   1       7.777  88.378 116.661  0.00  0.00    -0.311 N 
ATOM     14  C   LIG d   1       8.275  87.175 116.383  0.00  0.00     0.210 C 
ATOM     15  C   LIG d   1       9.805  87.095 116.371  0.00  0.00     0.109 C 
ATOM     16  O   LIG d   1       7.595  86.174 116.112  0.00  0.00    -0.276 OA
ATOM     17  H   LIG d   1       8.401  89.142 116.837  0.00  0.00     0.149 HD
ENDBRANCH   6  13
BRANCH   5  18
ATOM     18  N   LIG d   1       6.041  89.255 114.306  0.00  0.00     0.381 N 
ATOM     19  H   LIG d   1       5.334  88.585 114.079  0.00  0.00    -0.090 HD
ATOM     20  H   LIG d   1       6.937  88.810 114.218  0.00  0.00    -0.090 HD
ATOM     21  H   LIG d   1       5.986  90.031 113.683  0.00  0.00    -0.090 HD
ENDBRANCH   5  18
BRANCH   3  22
ATOM     22  C   LIG d   1       3.000  91.193 117.458  0.00  0.00     0.382 C 
ATOM     23  O   LIG d   1       1.841  90.733 117.600  0.00  0.00    -0.241 OA
ATOM     24  O   LIG d   1       3.178  92.425 117.478  0.00  0.00    -0.241 OA
ENDBRANCH   3  22
TORSDOF 7
ENDMDL
MODEL 6
REMARK VINA RESULT:      -3.8      2.229      5.600
REMARK  7 active torsions:
REMARK  status: ('A' for Active; 'I' for Inactive)
REMARK    1  A    between atoms: C_2  and  C_3 
REMARK    2  A    between atoms: C_3  and  O_6 
REMARK    3  A    between atoms: C_3  and  C_4 
REMARK    4  A    between atoms: C_7  and  O_6 
REMARK    5  A    between atoms: C_9  and  C_10 
REMARK    6  A    between atoms: N_15  and  C_14 
REMARK    7  A    between atoms: N_20  and  C_19 
REMARK       I    between atoms: C_22  and  N_20 
ROOT
ATOM      1  C   LIG d   1       4.870  89.512 118.647  0.00  0.00     0.161 C 
ATOM      2  C   LIG d   1       6.087  90.060 119.085  0.00  0.00     0.016 C 
ATOM      3  C   LIG d   1       7.230  90.173 118.261  0.00  0.00     0.038 C 
ATOM      4  C   LIG d   1       7.188  89.882 116.890  0.00  0.00     0.028 C 
ATOM      5  C   LIG d   1       6.126  88.852 116.521  0.00  0.00    -0.047 C 
ATOM      6  C   LIG d   1       4.771  89.291 117.123  0.00  0.00     0.091 C 
ENDROOT
BRANCH   1   7
ATOM      7  O   LIG d   1       3.773  90.326 119.107  0.00  0.00    -0.368 OA
BRANCH   7   8
ATOM      8  C   LIG d   1       3.548  91.561 118.383  0.00  0.00     0.119 C 
BRANCH   8   9
ATOM      9  C   LIG d   1       3.789  92.723 119.365  0.00  0.00     0.028 C 
ATOM     10  C   LIG d   1       5.057  93.525 119.027  0.00  0.00     0.006 C 
ENDBRANCH   8   9
BRANCH   8  11
ATOM     11  C   LIG d   1       2.086  91.693 117.948  0.00  0.00     0.028 C 
ATOM     12  C   LIG d   1       1.250  92.542 118.918  0.00  0.00     0.006 C 
ENDBRANCH   8  11
ENDBRANCH   7   8
ENDBRANCH   1   7
BRANCH   6  13
ATOM     13  N   LIG d   1       3.694  88.296 116.881  0.00  0.00    -0.311 N 
ATOM     14  C   LIG d   1       2.841  88.373 115.861  0.00  0.00     0.210 C 
ATOM     15  C   LIG d   1       1.795  87.255 115.808  0.00  0.00     0.109 C 
ATOM     16  O   LIG d   1       2.871  89.243 114.977  0.00  0.00    -0.276 OA
ATOM     17  H   LIG d   1       3.617  87.540 117.532  0.00  0.00     0.149 HD
ENDBRANCH   6  13
BRANCH   5  18
ATOM     18  N   LIG d   1       6.099  88.746 115.050  0.00  0.00     0.381 N 
ATOM     19  H   LIG d   1       7.002  88.481 114.713  0.00  0.00    -0.090 HD
ATOM     20  H   LIG d   1       5.869  89.645 114.664  0.00  0.00    -0.090 HD
ATOM     21  H   LIG d   1       5.421  88.072 114.769  0.00  0.00    -0.090 HD
ENDBRANCH   5  18
BRANCH   3  22
ATOM     22  C   LIG d   1       8.445  90.544 118.819  0.00  0.00     0.382 C 
ATOM     23  O   LIG d   1       9.396  90.890 118.077  0.00  0.00    -0.241 OA
ATOM     24  O   LIG d   1       8.615  90.495 120.052  0.00  0.00    -0.241 OA
ENDBRANCH   3  22
TORSDOF 7
ENDMDL
MODEL 7
REMARK VINA RESULT:      -3.7      1.912      5.320
REMARK  7 active torsions:
REMARK  status: ('A' for Active; 'I' for Inactive)
REMARK    1  A    between atoms: C_2  and  C_3 
REMARK    2  A    between atoms: C_3  and  O_6 
REMARK    3  A    between atoms: C_3  and  C_4 
REMARK    4  A    between atoms: C_7  and  O_6 
REMARK    5  A    between atoms: C_9  and  C_10 
REMARK    6  A    between atoms: N_15  and  C_14 
REMARK    7  A    between atoms: N_20  and  C_19 
REMARK       I    between atoms: C_22  and  N_20 
ROOT
ATOM      1  C   LIG d   1       5.405  89.232 116.012  0.00  0.00     0.161 C 
ATOM      2  C   LIG d   1       6.581  88.485 115.835  0.00  0.00     0.016 C 
ATOM      3  C   LIG d   1       7.520  88.254 116.867  0.00  0.00     0.038 C 
ATOM      4  C   LIG d   1       7.269  88.632 118.195  0.00  0.00     0.028 C 
ATOM      5  C   LIG d   1       6.331  89.828 118.318  0.00  0.00    -0.047 C 
ATOM      6  C   LIG d   1       5.060  89.557 117.480  0.00  0.00     0.091 C 
ENDROOT
BRANCH   1   7
ATOM      7  O   LIG d   1       4.300  88.562 115.374  0.00  0.00    -0.368 OA
BRANCH   7   8
ATOM      8  C   LIG d   1       3.777  87.399 116.062  0.00  0.00     0.119 C 
BRANCH   8   9
ATOM      9  C   LIG d   1       3.905  86.199 115.104  0.00  0.00     0.028 C 
ATOM     10  C   LIG d   1       3.423  86.529 113.681  0.00  0.00     0.006 C 
ENDBRANCH   8   9
BRANCH   8  11
ATOM     11  C   LIG d   1       2.277  87.541 116.335  0.00  0.00     0.028 C 
ATOM     12  C   LIG d   1       1.703  86.360 117.134  0.00  0.00     0.006 C 
ENDBRANCH   8  11
ENDBRANCH   7   8
ENDBRANCH   1   7
BRANCH   6  13
ATOM     13  N   LIG d   1       4.126  90.713 117.478  0.00  0.00    -0.311 N 
ATOM     14  C   LIG d   1       3.110  90.837 118.330  0.00  0.00     0.210 C 
ATOM     15  C   LIG d   1       2.258  92.096 118.142  0.00  0.00     0.109 C 
ATOM     16  O   LIG d   1       2.853  90.039 119.244  0.00  0.00    -0.276 OA
ATOM     17  H   LIG d   1       4.281  91.423 116.789  0.00  0.00     0.149 HD
ENDBRANCH   6  13
BRANCH   5  18
ATOM     18  N   LIG d   1       6.047  90.026 119.752  0.00  0.00     0.381 N 
ATOM     19  H   LIG d   1       5.733  89.167 120.157  0.00  0.00    -0.090 HD
ATOM     20  H   LIG d   1       5.314  90.707 119.847  0.00  0.00    -0.090 HD
ATOM     21  H   LIG d   1       6.867  90.342 120.221  0.00  0.00    -0.090 HD
ENDBRANCH   5  18
BRANCH   3  22
ATOM     22  C   LIG d   1       8.743  87.675 116.567  0.00  0.00     0.382 C 
ATOM     23  O   LIG d   1       9.807  88.287 116.826  0.00  0.00    -0.241 OA
ATOM     24  O   LIG d   1       8.795  86.567 115.999  0.00  0.00    -0.241 OA
ENDBRANCH   3  22
TORSDOF 7
ENDMDL
MODEL 8
REMARK VINA RESULT:      -3.6      1.893      5.165
REMARK  7 active torsions:
REMARK  status: ('A' for Active; 'I' for Inactive)
REMARK    1  A    between atoms: C_2  and  C_3 
REMARK    2  A    between atoms: C_3  and  O_6 
REMARK    3  A    between atoms: C_3  and  C_4 
REMARK    4  A    between atoms: C_7  and  O_6 
REMARK    5  A    between atoms: C_9  and  C_10 
REMARK    6  A    between atoms: N_15  and  C_14 
REMARK    7  A    between atoms: N_20  and  C_19 
REMARK       I    between atoms: C_22  and  N_20 
ROOT
ATOM      1  C   LIG d   1       3.548  89.897 117.512  0.00  0.00     0.161 C 
ATOM      2  C   LIG d   1       3.227  89.575 116.183  0.00  0.00     0.016 C 
ATOM      3  C   LIG d   1       3.566  88.344 115.577  0.00  0.00     0.038 C 
ATOM      4  C   LIG d   1       4.122  87.285 116.310  0.00  0.00     0.028 C 
ATOM      5  C   LIG d   1       4.922  87.743 117.524  0.00  0.00    -0.047 C 
ATOM      6  C   LIG d   1       4.055  88.712 118.360  0.00  0.00     0.091 C 
ENDROOT
BRANCH   1   7
ATOM      7  O   LIG d   1       2.417  90.523 118.151  0.00  0.00    -0.368 OA
BRANCH   7   8
ATOM      8  C   LIG d   1       2.291  91.954 117.965  0.00  0.00     0.119 C 
BRANCH   8   9
ATOM      9  C   LIG d   1       3.662  92.584 118.281  0.00  0.00     0.028 C 
ATOM     10  C   LIG d   1       3.807  92.959 119.766  0.00  0.00     0.006 C 
ENDBRANCH   8   9
BRANCH   8  11
ATOM     11  C   LIG d   1       1.321  92.564 118.980  0.00  0.00     0.028 C 
ATOM     12  C   LIG d   1      -0.151  92.283 118.641  0.00  0.00     0.006 C 
ENDBRANCH   8  11
ENDBRANCH   7   8
ENDBRANCH   1   7
BRANCH   6  13
ATOM     13  N   LIG d   1       4.792  89.273 119.522  0.00  0.00    -0.311 N 
ATOM     14  C   LIG d   1       5.934  89.950 119.409  0.00  0.00     0.210 C 
ATOM     15  C   LIG d   1       6.539  90.424 120.734  0.00  0.00     0.109 C 
ATOM     16  O   LIG d   1       6.486  90.230 118.334  0.00  0.00    -0.276 OA
ATOM     17  H   LIG d   1       4.398  89.119 120.430  0.00  0.00     0.149 HD
ENDBRANCH   6  13
BRANCH   5  18
ATOM     18  N   LIG d   1       5.326  86.537 118.272  0.00  0.00     0.381 N 
ATOM     19  H   LIG d   1       6.204  86.698 118.725  0.00  0.00    -0.090 HD
ATOM     20  H   LIG d   1       5.439  85.776 117.626  0.00  0.00    -0.090 HD
ATOM     21  H   LIG d   1       4.632  86.307 118.949  0.00  0.00    -0.090 HD
ENDBRANCH   5  18
BRANCH   3  22
ATOM     22  C   LIG d   1       3.387  88.178 114.212  0.00  0.00     0.382 C 
ATOM     23  O   LIG d   1       3.601  89.135 113.430  0.00  0.00    -0.241 OA
ATOM     24  O   LIG d   1       2.971  87.095 113.757  0.00  0.00    -0.241 OA
ENDBRANCH   3  22
TORSDOF 7
ENDMDL
MODEL 9
REMARK VINA RESULT:      -3.6      2.447      5.678
REMARK  7 active torsions:
REMARK  status: ('A' for Active; 'I' for Inactive)
REMARK    1  A    between atoms: C_2  and  C_3 
REMARK    2  A    between atoms: C_3  and  O_6 
REMARK    3  A    between atoms: C_3  and  C_4 
REMARK    4  A    between atoms: C_7  and  O_6 
REMARK    5  A    between atoms: C_9  and  C_10 
REMARK    6  A    between atoms: N_15  and  C_14 
REMARK    7  A    between atoms: N_20  and  C_19 
REMARK       I    between atoms: C_22  and  N_20 
ROOT
ATOM      1  C   LIG d   1       3.818  88.931 117.402  0.00  0.00     0.161 C 
ATOM      2  C   LIG d   1       5.152  89.276 117.673  0.00  0.00     0.016 C 
ATOM      3  C   LIG d   1       6.116  89.507 116.664  0.00  0.00     0.038 C 
ATOM      4  C   LIG d   1       5.770  89.558 115.306  0.00  0.00     0.028 C 
ATOM      5  C   LIG d   1       4.543  88.720 114.961  0.00  0.00    -0.047 C 
ATOM      6  C   LIG d   1       3.395  89.091 115.927  0.00  0.00     0.091 C 
ENDROOT
BRANCH   1   7
ATOM      7  O   LIG d   1       2.936  89.681 118.260  0.00  0.00    -0.368 OA
BRANCH   7   8
ATOM      8  C   LIG d   1       3.397  90.998 118.653  0.00  0.00     0.119 C 
BRANCH   8   9
ATOM      9  C   LIG d   1       3.128  91.151 120.163  0.00  0.00     0.028 C 
ATOM     10  C   LIG d   1       4.362  91.655 120.930  0.00  0.00     0.006 C 
ENDBRANCH   8   9
BRANCH   8  11
ATOM     11  C   LIG d   1       2.573  92.100 117.981  0.00  0.00     0.028 C 
ATOM     12  C   LIG d   1       1.068  91.788 117.956  0.00  0.00     0.006 C 
ENDBRANCH   8  11
ENDBRANCH   7   8
ENDBRANCH   1   7
BRANCH   6  13
ATOM     13  N   LIG d   1       2.183  88.257 115.713  0.00  0.00    -0.311 N 
ATOM     14  C   LIG d   1       2.189  86.926 115.773  0.00  0.00     0.210 C 
ATOM     15  C   LIG d   1       0.836  86.261 115.502  0.00  0.00     0.109 C 
ATOM     16  O   LIG d   1       3.180  86.235 116.056  0.00  0.00    -0.276 OA
ATOM     17  H   LIG d   1       1.329  88.737 115.509  0.00  0.00     0.149 HD
ENDBRANCH   6  13
BRANCH   5  18
ATOM     18  N   LIG d   1       4.213  88.973 113.546  0.00  0.00     0.381 N 
ATOM     19  H   LIG d   1       3.748  88.177 113.159  0.00  0.00    -0.090 HD
ATOM     20  H   LIG d   1       5.066  89.120 113.035  0.00  0.00    -0.090 HD
ATOM     21  H   LIG d   1       3.630  89.777 113.470  0.00  0.00    -0.090 HD
ENDBRANCH   5  18
BRANCH   3  22
ATOM     22  C   LIG d   1       7.451  89.652 117.009  0.00  0.00     0.382 C 
ATOM     23  O   LIG d   1       8.254  88.707 116.817  0.00  0.00    -0.241 OA
ATOM     24  O   LIG d   1       7.854  90.698 117.552  0.00  0.00    -0.241 OA
ENDBRANCH   3  22
TORSDOF 7
ENDMDL
