MODEL 1
REMARK VINA RESULT:      -5.4      0.000      0.000
REMARK  7 active torsions:
REMARK  status: ('A' for Active; 'I' for Inactive)
REMARK    1  A    between atoms: C_2  and  C_3 
REMARK    2  A    between atoms: C_3  and  O_6 
REMARK    3  A    between atoms: C_3  and  C_4 
REMARK    4  A    between atoms: C_7  and  O_6 
REMARK    5  A    between atoms: C_9  and  C_10 
REMARK    6  A    between atoms: N_15  and  C_14 
REMARK    7  A    between atoms: N_20  and  C_19 
REMARK       I    between atoms: C_22  and  N_20 
ROOT
ATOM      1  C   LIG d   1      -5.330  90.674 117.720  0.00  0.00     0.161 C 
ATOM      2  C   LIG d   1      -6.172  91.635 118.303  0.00  0.00     0.016 C 
ATOM      3  C   LIG d   1      -5.768  92.964 118.570  0.00  0.00     0.038 C 
ATOM      4  C   LIG d   1      -4.534  93.466 118.131  0.00  0.00     0.028 C 
ATOM      5  C   LIG d   1      -3.459  92.394 117.989  0.00  0.00    -0.047 C 
ATOM      6  C   LIG d   1      -4.017  91.234 117.133  0.00  0.00     0.091 C 
ENDROOT
BRANCH   1   7
ATOM      7  O   LIG d   1      -6.053  89.935 116.716  0.00  0.00    -0.368 OA
BRANCH   7   8
ATOM      8  C   LIG d   1      -7.158  90.629 116.087  0.00  0.00     0.119 C 
BRANCH   8   9
ATOM      9  C   LIG d   1      -8.225  89.575 115.732  0.00  0.00     0.028 C 
ATOM     10  C   LIG d   1      -8.858  88.937 116.980  0.00  0.00     0.006 C 
ENDBRANCH   8   9
BRANCH   8  11
ATOM     11  C   LIG d   1      -6.740  91.249 114.751  0.00  0.00     0.028 C 
ATOM     12  C   LIG d   1      -6.810  92.784 114.757  0.00  0.00     0.006 C 
ENDBRANCH   8  11
ENDBRANCH   7   8
ENDBRANCH   1   7
BRANCH   6  13
ATOM     13  N   LIG d   1      -3.059  90.104 117.016  0.00  0.00    -0.311 N 
ATOM     14  C   LIG d   1      -2.819  89.241 118.001  0.00  0.00     0.210 C 
ATOM     15  C   LIG d   1      -1.780  88.163 117.678  0.00  0.00     0.109 C 
ATOM     16  O   LIG d   1      -3.392  89.246 119.101  0.00  0.00    -0.276 OA
ATOM     17  H   LIG d   1      -2.572  90.007 116.146  0.00  0.00     0.149 HD
ENDBRANCH   6  13
BRANCH   5  18
ATOM     18  N   LIG d   1      -2.269  93.031 117.395  0.00  0.00     0.381 N 
ATOM     19  H   LIG d   1      -1.480  92.901 117.995  0.00  0.00    -0.090 HD
ATOM     20  H   LIG d   1      -2.439  94.018 117.306  0.00  0.00    -0.090 HD
ATOM     21  H   LIG d   1      -2.084  92.638 116.499  0.00  0.00    -0.090 HD
ENDBRANCH   5  18
BRANCH   3  22
ATOM     22  C   LIG d   1      -6.588  93.794 119.319  0.00  0.00     0.382 C 
ATOM     23  O   LIG d   1      -6.096  94.764 119.943  0.00  0.00    -0.241 OA
ATOM     24  O   LIG d   1      -7.808  93.558 119.414  0.00  0.00    -0.241 OA
ENDBRANCH   3  22
TORSDOF 7
ENDMDL
MODEL 2
REMARK VINA RESULT:      -5.4      1.868      4.528
REMARK  7 active torsions:
REMARK  status: ('A' for Active; 'I' for Inactive)
REMARK    1  A    between atoms: C_2  and  C_3 
REMARK    2  A    between atoms: C_3  and  O_6 
REMARK    3  A    between atoms: C_3  and  C_4 
REMARK    4  A    between atoms: C_7  and  O_6 
REMARK    5  A    between atoms: C_9  and  C_10 
REMARK    6  A    between atoms: N_15  and  C_14 
REMARK    7  A    between atoms: N_20  and  C_19 
REMARK       I    between atoms: C_22  and  N_20 
ROOT
ATOM      1  C   LIG d   1      -4.994  92.958 117.232  0.00  0.00     0.161 C 
ATOM      2  C   LIG d   1      -6.163  92.271 116.863  0.00  0.00     0.016 C 
ATOM      3  C   LIG d   1      -6.203  90.879 116.620  0.00  0.00     0.038 C 
ATOM      4  C   LIG d   1      -5.102  90.049 116.878  0.00  0.00     0.028 C 
ATOM      5  C   LIG d   1      -3.762  90.768 116.766  0.00  0.00    -0.047 C 
ATOM      6  C   LIG d   1      -3.809  92.052 117.626  0.00  0.00     0.091 C 
ENDROOT
BRANCH   1   7
ATOM      7  O   LIG d   1      -5.288  93.888 118.293  0.00  0.00    -0.368 OA
BRANCH   7   8
ATOM      8  C   LIG d   1      -6.552  93.699 118.975  0.00  0.00     0.119 C 
BRANCH   8   9
ATOM      9  C   LIG d   1      -7.276  95.059 118.995  0.00  0.00     0.028 C 
ATOM     10  C   LIG d   1      -7.972  95.373 117.660  0.00  0.00     0.006 C 
ENDBRANCH   8   9
BRANCH   8  11
ATOM     11  C   LIG d   1      -6.342  93.329 120.446  0.00  0.00     0.028 C 
ATOM     12  C   LIG d   1      -5.731  91.931 120.628  0.00  0.00     0.006 C 
ENDBRANCH   8  11
ENDBRANCH   7   8
ENDBRANCH   1   7
BRANCH   6  13
ATOM     13  N   LIG d   1      -2.566  92.859 117.507  0.00  0.00    -0.311 N 
ATOM     14  C   LIG d   1      -1.851  93.262 118.555  0.00  0.00     0.210 C 
ATOM     15  C   LIG d   1      -0.616  94.101 118.212  0.00  0.00     0.109 C 
ATOM     16  O   LIG d   1      -2.103  92.977 119.736  0.00  0.00    -0.276 OA
ATOM     17  H   LIG d   1      -2.271  93.108 116.583  0.00  0.00     0.149 HD
ENDBRANCH   6  13
BRANCH   5  18
ATOM     18  N   LIG d   1      -2.713  89.824 117.193  0.00  0.00     0.381 N 
ATOM     19  H   LIG d   1      -3.026  88.884 117.054  0.00  0.00    -0.090 HD
ATOM     20  H   LIG d   1      -2.536  89.955 118.174  0.00  0.00    -0.090 HD
ATOM     21  H   LIG d   1      -1.878  89.983 116.674  0.00  0.00    -0.090 HD
ENDBRANCH   5  18
BRANCH   3  22
ATOM     22  C   LIG d   1      -7.344  90.310 116.075  0.00  0.00     0.382 C 
ATOM     23  O   LIG d   1      -8.022  90.947 115.233  0.00  0.00    -0.241 OA
ATOM     24  O   LIG d   1      -7.729  89.185 116.447  0.00  0.00    -0.241 OA
ENDBRANCH   3  22
TORSDOF 7
ENDMDL
MODEL 3
REMARK VINA RESULT:      -5.3      2.371      4.586
REMARK  7 active torsions:
REMARK  status: ('A' for Active; 'I' for Inactive)
REMARK    1  A    between atoms: C_2  and  C_3 
REMARK    2  A    between atoms: C_3  and  O_6 
REMARK    3  A    between atoms: C_3  and  C_4 
REMARK    4  A    between atoms: C_7  and  O_6 
REMARK    5  A    between atoms: C_9  and  C_10 
REMARK    6  A    between atoms: N_15  and  C_14 
REMARK    7  A    between atoms: N_20  and  C_19 
REMARK       I    between atoms: C_22  and  N_20 
ROOT
ATOM      1  C   LIG d   1      -6.179  92.947 118.261  0.00  0.00     0.161 C 
ATOM      2  C   LIG d   1      -5.091  93.778 118.575  0.00  0.00     0.016 C 
ATOM      3  C   LIG d   1      -3.773  93.538 118.123  0.00  0.00     0.038 C 
ATOM      4  C   LIG d   1      -3.480  92.527 117.195  0.00  0.00     0.028 C 
ATOM      5  C   LIG d   1      -4.456  91.357 117.246  0.00  0.00    -0.047 C 
ATOM      6  C   LIG d   1      -5.899  91.903 117.160  0.00  0.00     0.091 C 
ENDROOT
BRANCH   1   7
ATOM      7  O   LIG d   1      -7.323  93.751 117.910  0.00  0.00    -0.368 OA
BRANCH   7   8
ATOM      8  C   LIG d   1      -7.475  94.995 118.637  0.00  0.00     0.119 C 
BRANCH   8   9
ATOM      9  C   LIG d   1      -8.322  94.699 119.889  0.00  0.00     0.028 C 
ATOM     10  C   LIG d   1      -9.775  95.181 119.742  0.00  0.00     0.006 C 
ENDBRANCH   8   9
BRANCH   8  11
ATOM     11  C   LIG d   1      -8.284  96.016 117.832  0.00  0.00     0.028 C 
ATOM     12  C   LIG d   1      -7.508  97.315 117.566  0.00  0.00     0.006 C 
ENDBRANCH   8  11
ENDBRANCH   7   8
ENDBRANCH   1   7
BRANCH   6  13
ATOM     13  N   LIG d   1      -6.920  90.830 117.288  0.00  0.00    -0.311 N 
ATOM     14  C   LIG d   1      -7.421  90.168 116.247  0.00  0.00     0.210 C 
ATOM     15  C   LIG d   1      -8.477  89.114 116.598  0.00  0.00     0.109 C 
ATOM     16  O   LIG d   1      -7.069  90.330 115.069  0.00  0.00    -0.276 OA
ATOM     17  H   LIG d   1      -7.239  90.612 118.211  0.00  0.00     0.149 HD
ENDBRANCH   6  13
BRANCH   5  18
ATOM     18  N   LIG d   1      -4.116  90.444 116.138  0.00  0.00     0.381 N 
ATOM     19  H   LIG d   1      -4.371  90.861 115.266  0.00  0.00    -0.090 HD
ATOM     20  H   LIG d   1      -4.638  89.593 116.246  0.00  0.00    -0.090 HD
ATOM     21  H   LIG d   1      -3.139  90.246 116.147  0.00  0.00    -0.090 HD
ENDBRANCH   5  18
BRANCH   3  22
ATOM     22  C   LIG d   1      -2.725  94.290 118.631  0.00  0.00     0.382 C 
ATOM     23  O   LIG d   1      -2.930  95.461 119.033  0.00  0.00    -0.241 OA
ATOM     24  O   LIG d   1      -1.568  93.829 118.651  0.00  0.00    -0.241 OA
ENDBRANCH   3  22
TORSDOF 7
ENDMDL
MODEL 4
REMARK VINA RESULT:      -5.3      2.780      6.166
REMARK  7 active torsions:
REMARK  status: ('A' for Active; 'I' for Inactive)
REMARK    1  A    between atoms: C_2  and  C_3 
REMARK    2  A    between atoms: C_3  and  O_6 
REMARK    3  A    between atoms: C_3  and  C_4 
REMARK    4  A    between atoms: C_7  and  O_6 
REMARK    5  A    between atoms: C_9  and  C_10 
REMARK    6  A    between atoms: N_15  and  C_14 
REMARK    7  A    between atoms: N_20  and  C_19 
REMARK       I    between atoms: C_22  and  N_20 
ROOT
ATOM      1  C   LIG d   1      -5.900  92.481 118.588  0.00  0.00     0.161 C 
ATOM      2  C   LIG d   1      -5.173  91.424 118.016  0.00  0.00     0.016 C 
ATOM      3  C   LIG d   1      -5.237  91.088 116.644  0.00  0.00     0.038 C 
ATOM      4  C   LIG d   1      -5.921  91.887 115.716  0.00  0.00     0.028 C 
ATOM      5  C   LIG d   1      -7.077  92.671 116.328  0.00  0.00    -0.047 C 
ATOM      6  C   LIG d   1      -6.565  93.433 117.572  0.00  0.00     0.091 C 
ENDROOT
BRANCH   1   7
ATOM      7  O   LIG d   1      -5.056  93.223 119.491  0.00  0.00    -0.368 OA
BRANCH   7   8
ATOM      8  C   LIG d   1      -4.333  94.339 118.915  0.00  0.00     0.119 C 
BRANCH   8   9
ATOM      9  C   LIG d   1      -2.828  94.031 119.043  0.00  0.00     0.028 C 
ATOM     10  C   LIG d   1      -2.197  93.619 117.702  0.00  0.00     0.006 C 
ENDBRANCH   8   9
BRANCH   8  11
ATOM     11  C   LIG d   1      -4.554  95.622 119.722  0.00  0.00     0.028 C 
ATOM     12  C   LIG d   1      -3.997  96.870 119.021  0.00  0.00     0.006 C 
ENDBRANCH   8  11
ENDBRANCH   7   8
ENDBRANCH   1   7
BRANCH   6  13
ATOM     13  N   LIG d   1      -7.652  94.158 118.280  0.00  0.00    -0.311 N 
ATOM     14  C   LIG d   1      -7.918  95.449 118.087  0.00  0.00     0.210 C 
ATOM     15  C   LIG d   1      -9.068  96.005 118.933  0.00  0.00     0.109 C 
ATOM     16  O   LIG d   1      -7.332  96.178 117.273  0.00  0.00    -0.276 OA
ATOM     17  H   LIG d   1      -8.198  93.635 118.936  0.00  0.00     0.149 HD
ENDBRANCH   6  13
BRANCH   5  18
ATOM     18  N   LIG d   1      -7.613  93.563 115.283  0.00  0.00     0.381 N 
ATOM     19  H   LIG d   1      -8.060  93.021 114.571  0.00  0.00    -0.090 HD
ATOM     20  H   LIG d   1      -6.852  94.068 114.865  0.00  0.00    -0.090 HD
ATOM     21  H   LIG d   1      -8.266  94.202 115.682  0.00  0.00    -0.090 HD
ENDBRANCH   5  18
BRANCH   3  22
ATOM     22  C   LIG d   1      -4.643  89.918 116.195  0.00  0.00     0.382 C 
ATOM     23  O   LIG d   1      -4.985  89.425 115.093  0.00  0.00    -0.241 OA
ATOM     24  O   LIG d   1      -3.803  89.326 116.897  0.00  0.00    -0.241 OA
ENDBRANCH   3  22
TORSDOF 7
ENDMDL
MODEL 5
REMARK VINA RESULT:      -5.3      2.311      4.382
REMARK  7 active torsions:
REMARK  status: ('A' for Active; 'I' for Inactive)
REMARK    1  A    between atoms: C_2  and  C_3 
REMARK    2  A    between atoms: C_3  and  O_6 
REMARK    3  A    between atoms: C_3  and  C_4 
REMARK    4  A    between atoms: C_7  and  O_6 
REMARK    5  A    between atoms: C_9  and  C_10 
REMARK    6  A    between atoms: N_15  and  C_14 
REMARK    7  A    between atoms: N_20  and  C_19 
REMARK       I    between atoms: C_22  and  N_20 
ROOT
ATOM      1  C   LIG d   1      -5.291  92.844 117.922  0.00  0.00     0.161 C 
ATOM      2  C   LIG d   1      -5.580  94.009 118.650  0.00  0.00     0.016 C 
ATOM      3  C   LIG d   1      -6.619  94.905 118.306  0.00  0.00     0.038 C 
ATOM      4  C   LIG d   1      -7.542  94.614 117.291  0.00  0.00     0.028 C 
ATOM      5  C   LIG d   1      -6.983  93.697 116.208  0.00  0.00    -0.047 C 
ATOM      6  C   LIG d   1      -6.357  92.452 116.878  0.00  0.00     0.091 C 
ENDROOT
BRANCH   1   7
ATOM      7  O   LIG d   1      -5.051  91.748 118.828  0.00  0.00    -0.368 OA
BRANCH   7   8
ATOM      8  C   LIG d   1      -3.662  91.431 119.090  0.00  0.00     0.119 C 
BRANCH   8   9
ATOM      9  C   LIG d   1      -2.846  91.871 117.860  0.00  0.00     0.028 C 
ATOM     10  C   LIG d   1      -1.630  92.733 118.239  0.00  0.00     0.006 C 
ENDBRANCH   8   9
BRANCH   8  11
ATOM     11  C   LIG d   1      -3.447  89.918 119.200  0.00  0.00     0.028 C 
ATOM     12  C   LIG d   1      -2.929  89.294 117.894  0.00  0.00     0.006 C 
ENDBRANCH   8  11
ENDBRANCH   7   8
ENDBRANCH   1   7
BRANCH   6  13
ATOM     13  N   LIG d   1      -5.712  91.544 115.894  0.00  0.00    -0.311 N 
ATOM     14  C   LIG d   1      -5.909  90.227 115.873  0.00  0.00     0.210 C 
ATOM     15  C   LIG d   1      -5.132  89.473 114.790  0.00  0.00     0.109 C 
ATOM     16  O   LIG d   1      -6.680  89.615 116.629  0.00  0.00    -0.276 OA
ATOM     17  H   LIG d   1      -5.095  91.960 115.225  0.00  0.00     0.149 HD
ENDBRANCH   6  13
BRANCH   5  18
ATOM     18  N   LIG d   1      -8.088  93.366 115.290  0.00  0.00     0.381 N 
ATOM     19  H   LIG d   1      -7.729  92.894 114.483  0.00  0.00    -0.090 HD
ATOM     20  H   LIG d   1      -8.527  94.218 114.988  0.00  0.00    -0.090 HD
ATOM     21  H   LIG d   1      -8.754  92.787 115.753  0.00  0.00    -0.090 HD
ENDBRANCH   5  18
BRANCH   3  22
ATOM     22  C   LIG d   1      -6.717  96.126 118.956  0.00  0.00     0.382 C 
ATOM     23  O   LIG d   1      -6.935  97.171 118.297  0.00  0.00    -0.241 OA
ATOM     24  O   LIG d   1      -6.546  96.202 120.187  0.00  0.00    -0.241 OA
ENDBRANCH   3  22
TORSDOF 7
ENDMDL
MODEL 6
REMARK VINA RESULT:      -5.2      2.345      5.365
REMARK  7 active torsions:
REMARK  status: ('A' for Active; 'I' for Inactive)
REMARK    1  A    between atoms: C_2  and  C_3 
REMARK    2  A    between atoms: C_3  and  O_6 
REMARK    3  A    between atoms: C_3  and  C_4 
REMARK    4  A    between atoms: C_7  and  O_6 
REMARK    5  A    between atoms: C_9  and  C_10 
REMARK    6  A    between atoms: N_15  and  C_14 
REMARK    7  A    between atoms: N_20  and  C_19 
REMARK       I    between atoms: C_22  and  N_20 
ROOT
ATOM      1  C   LIG d   1      -3.916  91.037 117.705  0.00  0.00     0.161 C 
ATOM      2  C   LIG d   1      -4.845  90.282 116.971  0.00  0.00     0.016 C 
ATOM      3  C   LIG d   1      -6.067  90.806 116.490  0.00  0.00     0.038 C 
ATOM      4  C   LIG d   1      -6.376  92.172 116.583  0.00  0.00     0.028 C 
ATOM      5  C   LIG d   1      -5.697  92.868 117.758  0.00  0.00    -0.047 C 
ATOM      6  C   LIG d   1      -4.184  92.556 117.720  0.00  0.00     0.091 C 
ENDROOT
BRANCH   1   7
ATOM      7  O   LIG d   1      -2.582  90.768 117.228  0.00  0.00    -0.368 OA
BRANCH   7   8
ATOM      8  C   LIG d   1      -1.704  90.076 118.149  0.00  0.00     0.119 C 
BRANCH   8   9
ATOM      9  C   LIG d   1      -0.262  90.524 117.838  0.00  0.00     0.028 C 
ATOM     10  C   LIG d   1       0.441  91.132 119.064  0.00  0.00     0.006 C 
ENDBRANCH   8   9
BRANCH   8  11
ATOM     11  C   LIG d   1      -1.720  88.564 117.906  0.00  0.00     0.028 C 
ATOM     12  C   LIG d   1      -2.221  87.770 119.123  0.00  0.00     0.006 C 
ENDBRANCH   8  11
ENDBRANCH   7   8
ENDBRANCH   1   7
BRANCH   6  13
ATOM     13  N   LIG d   1      -3.458  93.130 118.883  0.00  0.00    -0.311 N 
ATOM     14  C   LIG d   1      -2.268  93.721 118.785  0.00  0.00     0.210 C 
ATOM     15  C   LIG d   1      -1.686  94.226 120.109  0.00  0.00     0.109 C 
ATOM     16  O   LIG d   1      -1.654  93.904 117.723  0.00  0.00    -0.276 OA
ATOM     17  H   LIG d   1      -3.898  93.053 119.778  0.00  0.00     0.149 HD
ENDBRANCH   6  13
BRANCH   5  18
ATOM     18  N   LIG d   1      -5.994  94.309 117.654  0.00  0.00     0.381 N 
ATOM     19  H   LIG d   1      -5.151  94.837 117.758  0.00  0.00    -0.090 HD
ATOM     20  H   LIG d   1      -6.621  94.566 118.396  0.00  0.00    -0.090 HD
ATOM     21  H   LIG d   1      -6.412  94.508 116.772  0.00  0.00    -0.090 HD
ENDBRANCH   5  18
BRANCH   3  22
ATOM     22  C   LIG d   1      -7.014  89.953 115.945  0.00  0.00     0.382 C 
ATOM     23  O   LIG d   1      -7.766  89.287 116.697  0.00  0.00    -0.241 OA
ATOM     24  O   LIG d   1      -7.096  89.806 114.710  0.00  0.00    -0.241 OA
ENDBRANCH   3  22
TORSDOF 7
ENDMDL
MODEL 7
REMARK VINA RESULT:      -5.0      2.113      4.899
REMARK  7 active torsions:
REMARK  status: ('A' for Active; 'I' for Inactive)
REMARK    1  A    between atoms: C_2  and  C_3 
REMARK    2  A    between atoms: C_3  and  O_6 
REMARK    3  A    between atoms: C_3  and  C_4 
REMARK    4  A    between atoms: C_7  and  O_6 
REMARK    5  A    between atoms: C_9  and  C_10 
REMARK    6  A    between atoms: N_15  and  C_14 
REMARK    7  A    between atoms: N_20  and  C_19 
REMARK       I    between atoms: C_22  and  N_20 
ROOT
ATOM      1  C   LIG d   1      -5.895  93.189 117.314  0.00  0.00     0.161 C 
ATOM      2  C   LIG d   1      -6.778  92.293 116.689  0.00  0.00     0.016 C 
ATOM      3  C   LIG d   1      -6.392  91.012 116.230  0.00  0.00     0.038 C 
ATOM      4  C   LIG d   1      -5.124  90.478 116.503  0.00  0.00     0.028 C 
ATOM      5  C   LIG d   1      -4.046  91.541 116.687  0.00  0.00    -0.047 C 
ATOM      6  C   LIG d   1      -4.537  92.580 117.720  0.00  0.00     0.091 C 
ENDROOT
BRANCH   1   7
ATOM      7  O   LIG d   1      -6.537  93.790 118.456  0.00  0.00    -0.368 OA
BRANCH   7   8
ATOM      8  C   LIG d   1      -6.923  95.179 118.312  0.00  0.00     0.119 C 
BRANCH   8   9
ATOM      9  C   LIG d   1      -6.266  95.963 119.465  0.00  0.00     0.028 C 
ATOM     10  C   LIG d   1      -5.741  95.041 120.578  0.00  0.00     0.006 C 
ENDBRANCH   8   9
BRANCH   8  11
ATOM     11  C   LIG d   1      -8.431  95.361 118.506  0.00  0.00     0.028 C 
ATOM     12  C   LIG d   1      -8.929  96.740 118.045  0.00  0.00     0.006 C 
ENDBRANCH   8  11
ENDBRANCH   7   8
ENDBRANCH   1   7
BRANCH   6  13
ATOM     13  N   LIG d   1      -3.577  93.701 117.896  0.00  0.00    -0.311 N 
ATOM     14  C   LIG d   1      -2.686  93.755 118.886  0.00  0.00     0.210 C 
ATOM     15  C   LIG d   1      -1.805  95.009 118.895  0.00  0.00     0.109 C 
ATOM     16  O   LIG d   1      -2.521  92.869 119.737  0.00  0.00    -0.276 OA
ATOM     17  H   LIG d   1      -3.621  94.448 117.231  0.00  0.00     0.149 HD
ENDBRANCH   6  13
BRANCH   5  18
ATOM     18  N   LIG d   1      -2.808  90.853 117.102  0.00  0.00     0.381 N 
ATOM     19  H   LIG d   1      -2.828  90.685 118.088  0.00  0.00    -0.090 HD
ATOM     20  H   LIG d   1      -2.023  91.447 116.899  0.00  0.00    -0.090 HD
ATOM     21  H   LIG d   1      -2.717  89.990 116.612  0.00  0.00    -0.090 HD
ENDBRANCH   5  18
BRANCH   3  22
ATOM     22  C   LIG d   1      -7.267  90.267 115.454  0.00  0.00     0.382 C 
ATOM     23  O   LIG d   1      -7.960  89.364 115.982  0.00  0.00    -0.241 OA
ATOM     24  O   LIG d   1      -7.340  90.457 114.225  0.00  0.00    -0.241 OA
ENDBRANCH   3  22
TORSDOF 7
ENDMDL
MODEL 8
REMARK VINA RESULT:      -4.9      2.646      5.434
REMARK  7 active torsions:
REMARK  status: ('A' for Active; 'I' for Inactive)
REMARK    1  A    between atoms: C_2  and  C_3 
REMARK    2  A    between atoms: C_3  and  O_6 
REMARK    3  A    between atoms: C_3  and  C_4 
REMARK    4  A    between atoms: C_7  and  O_6 
REMARK    5  A    between atoms: C_9  and  C_10 
REMARK    6  A    between atoms: N_15  and  C_14 
REMARK    7  A    between atoms: N_20  and  C_19 
REMARK       I    between atoms: C_22  and  N_20 
ROOT
ATOM      1  C   LIG d   1      -2.606  90.364 118.037  0.00  0.00     0.161 C 
ATOM      2  C   LIG d   1      -3.567  89.792 117.187  0.00  0.00     0.016 C 
ATOM      3  C   LIG d   1      -4.606  90.532 116.577  0.00  0.00     0.038 C 
ATOM      4  C   LIG d   1      -4.664  91.932 116.656  0.00  0.00     0.028 C 
ATOM      5  C   LIG d   1      -4.011  92.495 117.913  0.00  0.00    -0.047 C 
ATOM      6  C   LIG d   1      -2.588  91.907 118.046  0.00  0.00     0.091 C 
ENDROOT
BRANCH   1   7
ATOM      7  O   LIG d   1      -1.299  89.849 117.713  0.00  0.00    -0.368 OA
BRANCH   7   8
ATOM      8  C   LIG d   1      -1.150  88.409 117.770  0.00  0.00     0.119 C 
BRANCH   8   9
ATOM      9  C   LIG d   1      -0.957  88.022 119.249  0.00  0.00     0.028 C 
ATOM     10  C   LIG d   1      -2.061  87.078 119.756  0.00  0.00     0.006 C 
ENDBRANCH   8   9
BRANCH   8  11
ATOM     11  C   LIG d   1       0.130  87.954 117.062  0.00  0.00     0.028 C 
ATOM     12  C   LIG d   1       1.021  89.128 116.628  0.00  0.00     0.006 C 
ENDBRANCH   8  11
ENDBRANCH   7   8
ENDBRANCH   1   7
BRANCH   6  13
ATOM     13  N   LIG d   1      -1.909  92.341 119.295  0.00  0.00    -0.311 N 
ATOM     14  C   LIG d   1      -1.088  93.388 119.357  0.00  0.00     0.210 C 
ATOM     15  C   LIG d   1      -0.479  93.651 120.738  0.00  0.00     0.109 C 
ATOM     16  O   LIG d   1      -0.833  94.144 118.408  0.00  0.00    -0.276 OA
ATOM     17  H   LIG d   1      -2.085  91.803 120.120  0.00  0.00     0.149 HD
ENDBRANCH   6  13
BRANCH   5  18
ATOM     18  N   LIG d   1      -4.021  93.966 117.800  0.00  0.00     0.381 N 
ATOM     19  H   LIG d   1      -3.948  94.232 116.839  0.00  0.00    -0.090 HD
ATOM     20  H   LIG d   1      -3.226  94.335 118.291  0.00  0.00    -0.090 HD
ATOM     21  H   LIG d   1      -4.861  94.332 118.191  0.00  0.00    -0.090 HD
ENDBRANCH   5  18
BRANCH   3  22
ATOM     22  C   LIG d   1      -5.624  89.867 115.910  0.00  0.00     0.382 C 
ATOM     23  O   LIG d   1      -5.494  89.577 114.697  0.00  0.00    -0.241 OA
ATOM     24  O   LIG d   1      -6.689  89.593 116.496  0.00  0.00    -0.241 OA
ENDBRANCH   3  22
TORSDOF 7
ENDMDL
MODEL 9
REMARK VINA RESULT:      -4.9      2.313      3.237
REMARK  7 active torsions:
REMARK  status: ('A' for Active; 'I' for Inactive)
REMARK    1  A    between atoms: C_2  and  C_3 
REMARK    2  A    between atoms: C_3  and  O_6 
REMARK    3  A    between atoms: C_3  and  C_4 
REMARK    4  A    between atoms: C_7  and  O_6 
REMARK    5  A    between atoms: C_9  and  C_10 
REMARK    6  A    between atoms: N_15  and  C_14 
REMARK    7  A    between atoms: N_20  and  C_19 
REMARK       I    between atoms: C_22  and  N_20 
ROOT
ATOM      1  C   LIG d   1      -5.914  92.754 119.035  0.00  0.00     0.161 C 
ATOM      2  C   LIG d   1      -7.158  93.404 119.077  0.00  0.00     0.016 C 
ATOM      3  C   LIG d   1      -7.304  94.810 119.046  0.00  0.00     0.038 C 
ATOM      4  C   LIG d   1      -6.214  95.663 118.818  0.00  0.00     0.028 C 
ATOM      5  C   LIG d   1      -4.881  95.079 119.275  0.00  0.00    -0.047 C 
ATOM      6  C   LIG d   1      -4.721  93.664 118.675  0.00  0.00     0.091 C 
ENDROOT
BRANCH   1   7
ATOM      7  O   LIG d   1      -5.978  91.632 118.134  0.00  0.00    -0.368 OA
BRANCH   7   8
ATOM      8  C   LIG d   1      -5.470  91.859 116.796  0.00  0.00     0.119 C 
BRANCH   8   9
ATOM      9  C   LIG d   1      -6.664  91.768 115.826  0.00  0.00     0.028 C 
ATOM     10  C   LIG d   1      -7.164  93.152 115.378  0.00  0.00     0.006 C 
ENDBRANCH   8   9
BRANCH   8  11
ATOM     11  C   LIG d   1      -4.513  90.743 116.367  0.00  0.00     0.028 C 
ATOM     12  C   LIG d   1      -5.128  89.799 115.321  0.00  0.00     0.006 C 
ENDBRANCH   8  11
ENDBRANCH   7   8
ENDBRANCH   1   7
BRANCH   6  13
ATOM     13  N   LIG d   1      -3.482  92.988 119.140  0.00  0.00    -0.311 N 
ATOM     14  C   LIG d   1      -2.332  93.021 118.470  0.00  0.00     0.210 C 
ATOM     15  C   LIG d   1      -1.183  92.240 119.116  0.00  0.00     0.109 C 
ATOM     16  O   LIG d   1      -2.145  93.650 117.417  0.00  0.00    -0.276 OA
ATOM     17  H   LIG d   1      -3.536  92.480 120.002  0.00  0.00     0.149 HD
ENDBRANCH   6  13
BRANCH   5  18
ATOM     18  N   LIG d   1      -3.818  96.011 118.853  0.00  0.00     0.381 N 
ATOM     19  H   LIG d   1      -2.966  95.507 118.706  0.00  0.00    -0.090 HD
ATOM     20  H   LIG d   1      -3.665  96.682 119.585  0.00  0.00    -0.090 HD
ATOM     21  H   LIG d   1      -4.086  96.477 118.015  0.00  0.00    -0.090 HD
ENDBRANCH   5  18
BRANCH   3  22
ATOM     22  C   LIG d   1      -8.546  95.378 119.285  0.00  0.00     0.382 C 
ATOM     23  O   LIG d   1      -8.631  96.456 119.921  0.00  0.00    -0.241 OA
ATOM     24  O   LIG d   1      -9.586  94.804 118.910  0.00  0.00    -0.241 OA
ENDBRANCH   3  22
TORSDOF 7
ENDMDL
