MODEL 1
REMARK VINA RESULT:      -5.5      0.000      0.000
REMARK  7 active torsions:
REMARK  status: ('A' for Active; 'I' for Inactive)
REMARK    1  A    between atoms: C_2  and  C_3 
REMARK    2  A    between atoms: C_3  and  O_6 
REMARK    3  A    between atoms: C_3  and  C_4 
REMARK    4  A    between atoms: C_7  and  O_6 
REMARK    5  A    between atoms: C_9  and  C_10 
REMARK    6  A    between atoms: N_15  and  C_14 
REMARK    7  A    between atoms: N_20  and  C_19 
REMARK       I    between atoms: C_22  and  N_20 
ROOT
ATOM      1  C   LIG d   1      -4.305  92.573 117.167  0.00  0.00     0.161 C 
ATOM      2  C   LIG d   1      -3.803  93.382 118.200  0.00  0.00     0.016 C 
ATOM      3  C   LIG d   1      -4.623  94.174 119.036  0.00  0.00     0.038 C 
ATOM      4  C   LIG d   1      -6.023  94.094 118.992  0.00  0.00     0.028 C 
ATOM      5  C   LIG d   1      -6.563  93.674 117.630  0.00  0.00    -0.047 C 
ATOM      6  C   LIG d   1      -5.836  92.388 117.176  0.00  0.00     0.091 C 
ENDROOT
BRANCH   1   7
ATOM      7  O   LIG d   1      -3.645  91.292 117.185  0.00  0.00    -0.368 OA
BRANCH   7   8
ATOM      8  C   LIG d   1      -2.787  91.032 118.324  0.00  0.00     0.119 C 
BRANCH   8   9
ATOM      9  C   LIG d   1      -1.378  90.727 117.782  0.00  0.00     0.028 C 
ATOM     10  C   LIG d   1      -0.391  91.880 118.031  0.00  0.00     0.006 C 
ENDBRANCH   8   9
BRANCH   8  11
ATOM     11  C   LIG d   1      -3.219  89.765 119.069  0.00  0.00     0.028 C 
ATOM     12  C   LIG d   1      -2.535  88.497 118.533  0.00  0.00     0.006 C 
ENDBRANCH   8  11
ENDBRANCH   7   8
ENDBRANCH   1   7
BRANCH   6  13
ATOM     13  N   LIG d   1      -6.246  91.955 115.815  0.00  0.00    -0.311 N 
ATOM     14  C   LIG d   1      -6.776  90.761 115.553  0.00  0.00     0.210 C 
ATOM     15  C   LIG d   1      -7.108  90.511 114.079  0.00  0.00     0.109 C 
ATOM     16  O   LIG d   1      -7.032  89.899 116.407  0.00  0.00    -0.276 OA
ATOM     17  H   LIG d   1      -6.102  92.605 115.067  0.00  0.00     0.149 HD
ENDBRANCH   6  13
BRANCH   5  18
ATOM     18  N   LIG d   1      -8.022  93.498 117.764  0.00  0.00     0.381 N 
ATOM     19  H   LIG d   1      -8.251  92.525 117.714  0.00  0.00    -0.090 HD
ATOM     20  H   LIG d   1      -8.478  93.969 117.003  0.00  0.00    -0.090 HD
ATOM     21  H   LIG d   1      -8.332  93.876 118.632  0.00  0.00    -0.090 HD
ENDBRANCH   5  18
BRANCH   3  22
ATOM     22  C   LIG d   1      -4.042  95.089 119.901  0.00  0.00     0.382 C 
ATOM     23  O   LIG d   1      -4.766  95.820 120.618  0.00  0.00    -0.241 OA
ATOM     24  O   LIG d   1      -2.804  95.222 119.941  0.00  0.00    -0.241 OA
ENDBRANCH   3  22
TORSDOF 7
ENDMDL
MODEL 2
REMARK VINA RESULT:      -5.4      2.492      6.127
REMARK  7 active torsions:
REMARK  status: ('A' for Active; 'I' for Inactive)
REMARK    1  A    between atoms: C_2  and  C_3 
REMARK    2  A    between atoms: C_3  and  O_6 
REMARK    3  A    between atoms: C_3  and  C_4 
REMARK    4  A    between atoms: C_7  and  O_6 
REMARK    5  A    between atoms: C_9  and  C_10 
REMARK    6  A    between atoms: N_15  and  C_14 
REMARK    7  A    between atoms: N_20  and  C_19 
REMARK       I    between atoms: C_22  and  N_20 
ROOT
ATOM      1  C   LIG d   1      -5.867  93.288 117.675  0.00  0.00     0.161 C 
ATOM      2  C   LIG d   1      -6.742  92.363 117.081  0.00  0.00     0.016 C 
ATOM      3  C   LIG d   1      -6.327  91.102 116.593  0.00  0.00     0.038 C 
ATOM      4  C   LIG d   1      -5.028  90.616 116.804  0.00  0.00     0.028 C 
ATOM      5  C   LIG d   1      -3.985  91.719 116.950  0.00  0.00    -0.047 C 
ATOM      6  C   LIG d   1      -4.469  92.730 118.014  0.00  0.00     0.091 C 
ENDROOT
BRANCH   1   7
ATOM      7  O   LIG d   1      -6.479  93.855 118.850  0.00  0.00    -0.368 OA
BRANCH   7   8
ATOM      8  C   LIG d   1      -7.042  95.181 118.699  0.00  0.00     0.119 C 
BRANCH   8   9
ATOM      9  C   LIG d   1      -6.031  96.183 119.289  0.00  0.00     0.028 C 
ATOM     10  C   LIG d   1      -5.463  95.717 120.640  0.00  0.00     0.006 C 
ENDBRANCH   8   9
BRANCH   8  11
ATOM     11  C   LIG d   1      -8.313  95.346 119.538  0.00  0.00     0.028 C 
ATOM     12  C   LIG d   1      -9.236  94.119 119.468  0.00  0.00     0.006 C 
ENDBRANCH   8  11
ENDBRANCH   7   8
ENDBRANCH   1   7
BRANCH   6  13
ATOM     13  N   LIG d   1      -3.546  93.886 118.158  0.00  0.00    -0.311 N 
ATOM     14  C   LIG d   1      -2.581  93.944 119.074  0.00  0.00     0.210 C 
ATOM     15  C   LIG d   1      -1.756  95.235 119.064  0.00  0.00     0.109 C 
ATOM     16  O   LIG d   1      -2.309  93.036 119.874  0.00  0.00    -0.276 OA
ATOM     17  H   LIG d   1      -3.675  94.654 117.529  0.00  0.00     0.149 HD
ENDBRANCH   6  13
BRANCH   5  18
ATOM     18  N   LIG d   1      -2.704  91.077 117.302  0.00  0.00     0.381 N 
ATOM     19  H   LIG d   1      -2.526  91.191 118.280  0.00  0.00    -0.090 HD
ATOM     20  H   LIG d   1      -1.965  91.526 116.791  0.00  0.00    -0.090 HD
ATOM     21  H   LIG d   1      -2.735  90.108 117.074  0.00  0.00    -0.090 HD
ENDBRANCH   5  18
BRANCH   3  22
ATOM     22  C   LIG d   1      -7.207  90.330 115.850  0.00  0.00     0.382 C 
ATOM     23  O   LIG d   1      -8.018  89.569 116.431  0.00  0.00    -0.241 OA
ATOM     24  O   LIG d   1      -7.170  90.351 114.605  0.00  0.00    -0.241 OA
ENDBRANCH   3  22
TORSDOF 7
ENDMDL
MODEL 3
REMARK VINA RESULT:      -5.3      1.555      4.660
REMARK  7 active torsions:
REMARK  status: ('A' for Active; 'I' for Inactive)
REMARK    1  A    between atoms: C_2  and  C_3 
REMARK    2  A    between atoms: C_3  and  O_6 
REMARK    3  A    between atoms: C_3  and  C_4 
REMARK    4  A    between atoms: C_7  and  O_6 
REMARK    5  A    between atoms: C_9  and  C_10 
REMARK    6  A    between atoms: N_15  and  C_14 
REMARK    7  A    between atoms: N_20  and  C_19 
REMARK       I    between atoms: C_22  and  N_20 
ROOT
ATOM      1  C   LIG d   1      -4.061  91.670 117.942  0.00  0.00     0.161 C 
ATOM      2  C   LIG d   1      -4.737  90.819 117.052  0.00  0.00     0.016 C 
ATOM      3  C   LIG d   1      -5.929  91.180 116.384  0.00  0.00     0.038 C 
ATOM      4  C   LIG d   1      -6.449  92.482 116.446  0.00  0.00     0.028 C 
ATOM      5  C   LIG d   1      -6.081  93.221 117.728  0.00  0.00    -0.047 C 
ATOM      6  C   LIG d   1      -4.552  93.133 117.937  0.00  0.00     0.091 C 
ENDROOT
BRANCH   1   7
ATOM      7  O   LIG d   1      -2.643  91.617 117.689  0.00  0.00    -0.368 OA
BRANCH   7   8
ATOM      8  C   LIG d   1      -1.843  90.938 118.688  0.00  0.00     0.119 C 
BRANCH   8   9
ATOM      9  C   LIG d   1      -0.593  91.802 118.944  0.00  0.00     0.028 C 
ATOM     10  C   LIG d   1       0.000  92.376 117.646  0.00  0.00     0.006 C 
ENDBRANCH   8   9
BRANCH   8  11
ATOM     11  C   LIG d   1      -1.311  89.602 118.162  0.00  0.00     0.028 C 
ATOM     12  C   LIG d   1      -2.249  88.424 118.471  0.00  0.00     0.006 C 
ENDBRANCH   8  11
ENDBRANCH   7   8
ENDBRANCH   1   7
BRANCH   6  13
ATOM     13  N   LIG d   1      -4.118  93.759 119.213  0.00  0.00    -0.311 N 
ATOM     14  C   LIG d   1      -3.069  94.574 119.310  0.00  0.00     0.210 C 
ATOM     15  C   LIG d   1      -2.782  95.093 120.723  0.00  0.00     0.109 C 
ATOM     16  O   LIG d   1      -2.368  94.941 118.355  0.00  0.00    -0.276 OA
ATOM     17  H   LIG d   1      -4.649  93.539 120.033  0.00  0.00     0.149 HD
ENDBRANCH   6  13
BRANCH   5  18
ATOM     18  N   LIG d   1      -6.569  94.607 117.600  0.00  0.00     0.381 N 
ATOM     19  H   LIG d   1      -5.822  95.247 117.780  0.00  0.00    -0.090 HD
ATOM     20  H   LIG d   1      -7.289  94.762 118.283  0.00  0.00    -0.090 HD
ATOM     21  H   LIG d   1      -6.932  94.757 116.684  0.00  0.00    -0.090 HD
ENDBRANCH   5  18
BRANCH   3  22
ATOM     22  C   LIG d   1      -6.637  90.221 115.675  0.00  0.00     0.382 C 
ATOM     23  O   LIG d   1      -7.727  89.789 116.122  0.00  0.00    -0.241 OA
ATOM     24  O   LIG d   1      -6.178  89.751 114.617  0.00  0.00    -0.241 OA
ENDBRANCH   3  22
TORSDOF 7
ENDMDL
MODEL 4
REMARK VINA RESULT:      -5.0      2.635      4.565
REMARK  7 active torsions:
REMARK  status: ('A' for Active; 'I' for Inactive)
REMARK    1  A    between atoms: C_2  and  C_3 
REMARK    2  A    between atoms: C_3  and  O_6 
REMARK    3  A    between atoms: C_3  and  C_4 
REMARK    4  A    between atoms: C_7  and  O_6 
REMARK    5  A    between atoms: C_9  and  C_10 
REMARK    6  A    between atoms: N_15  and  C_14 
REMARK    7  A    between atoms: N_20  and  C_19 
REMARK       I    between atoms: C_22  and  N_20 
ROOT
ATOM      1  C   LIG d   1      -5.305  93.170 118.177  0.00  0.00     0.161 C 
ATOM      2  C   LIG d   1      -6.656  93.556 118.174  0.00  0.00     0.016 C 
ATOM      3  C   LIG d   1      -7.133  94.722 118.816  0.00  0.00     0.038 C 
ATOM      4  C   LIG d   1      -6.263  95.667 119.379  0.00  0.00     0.028 C 
ATOM      5  C   LIG d   1      -4.940  95.071 119.845  0.00  0.00    -0.047 C 
ATOM      6  C   LIG d   1      -4.326  94.247 118.690  0.00  0.00     0.091 C 
ENDROOT
BRANCH   1   7
ATOM      7  O   LIG d   1      -4.920  92.731 116.859  0.00  0.00    -0.368 OA
BRANCH   7   8
ATOM      8  C   LIG d   1      -4.594  91.326 116.725  0.00  0.00     0.119 C 
BRANCH   8   9
ATOM      9  C   LIG d   1      -5.756  90.650 115.971  0.00  0.00     0.028 C 
ATOM     10  C   LIG d   1      -6.432  91.598 114.965  0.00  0.00     0.006 C 
ENDBRANCH   8   9
BRANCH   8  11
ATOM     11  C   LIG d   1      -4.540  90.634 118.091  0.00  0.00     0.028 C 
ATOM     12  C   LIG d   1      -3.214  89.896 118.333  0.00  0.00     0.006 C 
ENDBRANCH   8  11
ENDBRANCH   7   8
ENDBRANCH   1   7
BRANCH   6  13
ATOM     13  N   LIG d   1      -3.070  93.559 119.089  0.00  0.00    -0.311 N 
ATOM     14  C   LIG d   1      -1.952  93.598 118.368  0.00  0.00     0.210 C 
ATOM     15  C   LIG d   1      -0.778  92.804 118.950  0.00  0.00     0.109 C 
ATOM     16  O   LIG d   1      -1.810  94.241 117.317  0.00  0.00    -0.276 OA
ATOM     17  H   LIG d   1      -3.087  93.039 119.945  0.00  0.00     0.149 HD
ENDBRANCH   6  13
BRANCH   5  18
ATOM     18  N   LIG d   1      -4.078  96.185 120.282  0.00  0.00     0.381 N 
ATOM     19  H   LIG d   1      -3.141  95.858 120.410  0.00  0.00    -0.090 HD
ATOM     20  H   LIG d   1      -4.415  96.530 121.164  0.00  0.00    -0.090 HD
ATOM     21  H   LIG d   1      -4.093  96.914 119.604  0.00  0.00    -0.090 HD
ENDBRANCH   5  18
BRANCH   3  22
ATOM     22  C   LIG d   1      -8.499  94.931 118.934  0.00  0.00     0.382 C 
ATOM     23  O   LIG d   1      -9.295  94.301 118.197  0.00  0.00    -0.241 OA
ATOM     24  O   LIG d   1      -8.942  95.774 119.736  0.00  0.00    -0.241 OA
ENDBRANCH   3  22
TORSDOF 7
ENDMDL
MODEL 5
REMARK VINA RESULT:      -4.8      1.445      1.922
REMARK  7 active torsions:
REMARK  status: ('A' for Active; 'I' for Inactive)
REMARK    1  A    between atoms: C_2  and  C_3 
REMARK    2  A    between atoms: C_3  and  O_6 
REMARK    3  A    between atoms: C_3  and  C_4 
REMARK    4  A    between atoms: C_7  and  O_6 
REMARK    5  A    between atoms: C_9  and  C_10 
REMARK    6  A    between atoms: N_15  and  C_14 
REMARK    7  A    between atoms: N_20  and  C_19 
REMARK       I    between atoms: C_22  and  N_20 
ROOT
ATOM      1  C   LIG d   1      -4.951  92.259 118.177  0.00  0.00     0.161 C 
ATOM      2  C   LIG d   1      -4.307  93.335 118.810  0.00  0.00     0.016 C 
ATOM      3  C   LIG d   1      -4.942  94.567 119.089  0.00  0.00     0.038 C 
ATOM      4  C   LIG d   1      -6.317  94.755 118.887  0.00  0.00     0.028 C 
ATOM      5  C   LIG d   1      -6.894  93.872 117.785  0.00  0.00    -0.047 C 
ATOM      6  C   LIG d   1      -6.482  92.406 118.050  0.00  0.00     0.091 C 
ENDROOT
BRANCH   1   7
ATOM      7  O   LIG d   1      -4.620  91.027 118.848  0.00  0.00    -0.368 OA
BRANCH   7   8
ATOM      8  C   LIG d   1      -3.208  90.719 118.955  0.00  0.00     0.119 C 
BRANCH   8   9
ATOM      9  C   LIG d   1      -2.972  89.376 118.238  0.00  0.00     0.028 C 
ATOM     10  C   LIG d   1      -2.608  88.245 119.216  0.00  0.00     0.006 C 
ENDBRANCH   8   9
BRANCH   8  11
ATOM     11  C   LIG d   1      -2.798  90.480 120.411  0.00  0.00     0.028 C 
ATOM     12  C   LIG d   1      -1.793  91.522 120.926  0.00  0.00     0.006 C 
ENDBRANCH   8  11
ENDBRANCH   7   8
ENDBRANCH   1   7
BRANCH   6  13
ATOM     13  N   LIG d   1      -6.934  91.487 116.973  0.00  0.00    -0.311 N 
ATOM     14  C   LIG d   1      -6.647  91.669 115.685  0.00  0.00     0.210 C 
ATOM     15  C   LIG d   1      -7.228  90.615 114.737  0.00  0.00     0.109 C 
ATOM     16  O   LIG d   1      -5.941  92.587 115.241  0.00  0.00    -0.276 OA
ATOM     17  H   LIG d   1      -7.486  90.698 117.248  0.00  0.00     0.149 HD
ENDBRANCH   6  13
BRANCH   5  18
ATOM     18  N   LIG d   1      -8.356  94.069 117.775  0.00  0.00     0.381 N 
ATOM     19  H   LIG d   1      -8.635  94.492 116.913  0.00  0.00    -0.090 HD
ATOM     20  H   LIG d   1      -8.605  94.689 118.526  0.00  0.00    -0.090 HD
ATOM     21  H   LIG d   1      -8.818  93.194 117.889  0.00  0.00    -0.090 HD
ENDBRANCH   5  18
BRANCH   3  22
ATOM     22  C   LIG d   1      -4.190  95.642 119.538  0.00  0.00     0.382 C 
ATOM     23  O   LIG d   1      -3.124  95.441 120.169  0.00  0.00    -0.241 OA
ATOM     24  O   LIG d   1      -4.585  96.809 119.359  0.00  0.00    -0.241 OA
ENDBRANCH   3  22
TORSDOF 7
ENDMDL
MODEL 6
REMARK VINA RESULT:      -4.4      6.779      9.657
REMARK  7 active torsions:
REMARK  status: ('A' for Active; 'I' for Inactive)
REMARK    1  A    between atoms: C_2  and  C_3 
REMARK    2  A    between atoms: C_3  and  O_6 
REMARK    3  A    between atoms: C_3  and  C_4 
REMARK    4  A    between atoms: C_7  and  O_6 
REMARK    5  A    between atoms: C_9  and  C_10 
REMARK    6  A    between atoms: N_15  and  C_14 
REMARK    7  A    between atoms: N_20  and  C_19 
REMARK       I    between atoms: C_22  and  N_20 
ROOT
ATOM      1  C   LIG d   1       3.547  91.094 117.705  0.00  0.00     0.161 C 
ATOM      2  C   LIG d   1       4.135  91.721 118.816  0.00  0.00     0.016 C 
ATOM      3  C   LIG d   1       5.533  91.809 119.011  0.00  0.00     0.038 C 
ATOM      4  C   LIG d   1       6.445  91.406 118.025  0.00  0.00     0.028 C 
ATOM      5  C   LIG d   1       5.906  90.310 117.112  0.00  0.00    -0.047 C 
ATOM      6  C   LIG d   1       4.527  90.747 116.565  0.00  0.00     0.091 C 
ENDROOT
BRANCH   1   7
ATOM      7  O   LIG d   1       2.463  91.902 117.205  0.00  0.00    -0.368 OA
BRANCH   7   8
ATOM      8  C   LIG d   1       1.177  91.707 117.842  0.00  0.00     0.119 C 
BRANCH   8   9
ATOM      9  C   LIG d   1       0.437  90.602 117.063  0.00  0.00     0.028 C 
ATOM     10  C   LIG d   1      -0.764  90.039 117.841  0.00  0.00     0.006 C 
ENDBRANCH   8   9
BRANCH   8  11
ATOM     11  C   LIG d   1       0.296  92.954 117.712  0.00  0.00     0.028 C 
ATOM     12  C   LIG d   1       0.496  93.948 118.866  0.00  0.00     0.006 C 
ENDBRANCH   8  11
ENDBRANCH   7   8
ENDBRANCH   1   7
BRANCH   6  13
ATOM     13  N   LIG d   1       3.890  89.696 115.729  0.00  0.00    -0.311 N 
ATOM     14  C   LIG d   1       4.013  89.639 114.404  0.00  0.00     0.210 C 
ATOM     15  C   LIG d   1       3.259  88.486 113.734  0.00  0.00     0.109 C 
ATOM     16  O   LIG d   1       4.701  90.414 113.723  0.00  0.00    -0.276 OA
ATOM     17  H   LIG d   1       3.339  89.008 116.203  0.00  0.00     0.149 HD
ENDBRANCH   6  13
BRANCH   5  18
ATOM     18  N   LIG d   1       6.904  90.084 116.050  0.00  0.00     0.381 N 
ATOM     19  H   LIG d   1       7.044  90.928 115.531  0.00  0.00    -0.090 HD
ATOM     20  H   LIG d   1       6.556  89.381 115.421  0.00  0.00    -0.090 HD
ATOM     21  H   LIG d   1       7.766  89.784 116.450  0.00  0.00    -0.090 HD
ENDBRANCH   5  18
BRANCH   3  22
ATOM     22  C   LIG d   1       6.030  92.269 120.221  0.00  0.00     0.382 C 
ATOM     23  O   LIG d   1       7.110  91.813 120.669  0.00  0.00    -0.241 OA
ATOM     24  O   LIG d   1       5.391  93.102 120.891  0.00  0.00    -0.241 OA
ENDBRANCH   3  22
TORSDOF 7
ENDMDL
MODEL 7
REMARK VINA RESULT:      -4.3      2.223      4.871
REMARK  7 active torsions:
REMARK  status: ('A' for Active; 'I' for Inactive)
REMARK    1  A    between atoms: C_2  and  C_3 
REMARK    2  A    between atoms: C_3  and  O_6 
REMARK    3  A    between atoms: C_3  and  C_4 
REMARK    4  A    between atoms: C_7  and  O_6 
REMARK    5  A    between atoms: C_9  and  C_10 
REMARK    6  A    between atoms: N_15  and  C_14 
REMARK    7  A    between atoms: N_20  and  C_19 
REMARK       I    between atoms: C_22  and  N_20 
ROOT
ATOM      1  C   LIG d   1      -4.654  92.356 119.873  0.00  0.00     0.161 C 
ATOM      2  C   LIG d   1      -3.608  91.485 119.524  0.00  0.00     0.016 C 
ATOM      3  C   LIG d   1      -3.645  90.641 118.390  0.00  0.00     0.038 C 
ATOM      4  C   LIG d   1      -4.673  90.721 117.439  0.00  0.00     0.028 C 
ATOM      5  C   LIG d   1      -5.993  91.224 118.015  0.00  0.00    -0.047 C 
ATOM      6  C   LIG d   1      -5.735  92.537 118.787  0.00  0.00     0.091 C 
ENDROOT
BRANCH   1   7
ATOM      7  O   LIG d   1      -4.115  93.635 120.263  0.00  0.00    -0.368 OA
BRANCH   7   8
ATOM      8  C   LIG d   1      -3.808  94.552 119.184  0.00  0.00     0.119 C 
BRANCH   8   9
ATOM      9  C   LIG d   1      -2.274  94.641 119.074  0.00  0.00     0.028 C 
ATOM     10  C   LIG d   1      -1.764  94.273 117.671  0.00  0.00     0.006 C 
ENDBRANCH   8   9
BRANCH   8  11
ATOM     11  C   LIG d   1      -4.274  95.974 119.512  0.00  0.00     0.028 C 
ATOM     12  C   LIG d   1      -4.969  96.073 120.880  0.00  0.00     0.006 C 
ENDBRANCH   8  11
ENDBRANCH   7   8
ENDBRANCH   1   7
BRANCH   6  13
ATOM     13  N   LIG d   1      -6.959  93.053 119.453  0.00  0.00    -0.311 N 
ATOM     14  C   LIG d   1      -7.609  94.143 119.050  0.00  0.00     0.210 C 
ATOM     15  C   LIG d   1      -8.837  94.512 119.889  0.00  0.00     0.109 C 
ATOM     16  O   LIG d   1      -7.305  94.822 118.057  0.00  0.00    -0.276 OA
ATOM     17  H   LIG d   1      -7.294  92.545 120.248  0.00  0.00     0.149 HD
ENDBRANCH   6  13
BRANCH   5  18
ATOM     18  N   LIG d   1      -6.934  91.389 116.891  0.00  0.00     0.381 N 
ATOM     19  H   LIG d   1      -7.700  91.968 117.173  0.00  0.00    -0.090 HD
ATOM     20  H   LIG d   1      -7.298  90.487 116.637  0.00  0.00    -0.090 HD
ATOM     21  H   LIG d   1      -6.468  91.798 116.112  0.00  0.00    -0.090 HD
ENDBRANCH   5  18
BRANCH   3  22
ATOM     22  C   LIG d   1      -2.664  89.676 118.221  0.00  0.00     0.382 C 
ATOM     23  O   LIG d   1      -1.491  90.017 117.933  0.00  0.00    -0.241 OA
ATOM     24  O   LIG d   1      -2.947  88.466 118.308  0.00  0.00    -0.241 OA
ENDBRANCH   3  22
TORSDOF 7
ENDMDL
MODEL 8
REMARK VINA RESULT:      -4.3      2.935      5.298
REMARK  7 active torsions:
REMARK  status: ('A' for Active; 'I' for Inactive)
REMARK    1  A    between atoms: C_2  and  C_3 
REMARK    2  A    between atoms: C_3  and  O_6 
REMARK    3  A    between atoms: C_3  and  C_4 
REMARK    4  A    between atoms: C_7  and  O_6 
REMARK    5  A    between atoms: C_9  and  C_10 
REMARK    6  A    between atoms: N_15  and  C_14 
REMARK    7  A    between atoms: N_20  and  C_19 
REMARK       I    between atoms: C_22  and  N_20 
ROOT
ATOM      1  C   LIG d   1      -2.900  91.307 119.554  0.00  0.00     0.161 C 
ATOM      2  C   LIG d   1      -4.169  91.076 118.998  0.00  0.00     0.016 C 
ATOM      3  C   LIG d   1      -4.704  91.839 117.934  0.00  0.00     0.038 C 
ATOM      4  C   LIG d   1      -3.939  92.794 117.249  0.00  0.00     0.028 C 
ATOM      5  C   LIG d   1      -2.833  93.409 118.101  0.00  0.00    -0.047 C 
ATOM      6  C   LIG d   1      -2.007  92.273 118.747  0.00  0.00     0.091 C 
ENDROOT
BRANCH   1   7
ATOM      7  O   LIG d   1      -2.222  90.053 119.762  0.00  0.00    -0.368 OA
BRANCH   7   8
ATOM      8  C   LIG d   1      -1.573  89.478 118.601  0.00  0.00     0.119 C 
BRANCH   8   9
ATOM      9  C   LIG d   1      -2.155  88.066 118.397  0.00  0.00     0.028 C 
ATOM     10  C   LIG d   1      -2.100  87.218 119.679  0.00  0.00     0.006 C 
ENDBRANCH   8   9
BRANCH   8  11
ATOM     11  C   LIG d   1      -0.076  89.268 118.846  0.00  0.00     0.028 C 
ATOM     12  C   LIG d   1       0.769  89.465 117.577  0.00  0.00     0.006 C 
ENDBRANCH   8  11
ENDBRANCH   7   8
ENDBRANCH   1   7
BRANCH   6  13
ATOM     13  N   LIG d   1      -0.956  92.786 119.664  0.00  0.00    -0.311 N 
ATOM     14  C   LIG d   1       0.287  93.062 119.273  0.00  0.00     0.210 C 
ATOM     15  C   LIG d   1       1.217  93.563 120.383  0.00  0.00     0.109 C 
ATOM     16  O   LIG d   1       0.698  92.971 118.107  0.00  0.00    -0.276 OA
ATOM     17  H   LIG d   1      -1.213  92.920 120.622  0.00  0.00     0.149 HD
ENDBRANCH   6  13
BRANCH   5  18
ATOM     18  N   LIG d   1      -2.029  94.282 117.226  0.00  0.00     0.381 N 
ATOM     19  H   LIG d   1      -1.862  95.157 117.682  0.00  0.00    -0.090 HD
ATOM     20  H   LIG d   1      -2.546  94.461 116.382  0.00  0.00    -0.090 HD
ATOM     21  H   LIG d   1      -1.163  93.842 117.007  0.00  0.00    -0.090 HD
ENDBRANCH   5  18
BRANCH   3  22
ATOM     22  C   LIG d   1      -6.032  91.676 117.572  0.00  0.00     0.382 C 
ATOM     23  O   LIG d   1      -6.825  92.646 117.641  0.00  0.00    -0.241 OA
ATOM     24  O   LIG d   1      -6.459  90.560 117.219  0.00  0.00    -0.241 OA
ENDBRANCH   3  22
TORSDOF 7
ENDMDL
MODEL 9
REMARK VINA RESULT:      -4.2      2.476      3.367
REMARK  7 active torsions:
REMARK  status: ('A' for Active; 'I' for Inactive)
REMARK    1  A    between atoms: C_2  and  C_3 
REMARK    2  A    between atoms: C_3  and  O_6 
REMARK    3  A    between atoms: C_3  and  C_4 
REMARK    4  A    between atoms: C_7  and  O_6 
REMARK    5  A    between atoms: C_9  and  C_10 
REMARK    6  A    between atoms: N_15  and  C_14 
REMARK    7  A    between atoms: N_20  and  C_19 
REMARK       I    between atoms: C_22  and  N_20 
ROOT
ATOM      1  C   LIG d   1      -1.345  91.415 117.669  0.00  0.00     0.161 C 
ATOM      2  C   LIG d   1      -0.398  92.209 118.336  0.00  0.00     0.016 C 
ATOM      3  C   LIG d   1      -0.711  93.445 118.948  0.00  0.00     0.038 C 
ATOM      4  C   LIG d   1      -2.033  93.900 119.065  0.00  0.00     0.028 C 
ATOM      5  C   LIG d   1      -2.953  93.378 117.967  0.00  0.00    -0.047 C 
ATOM      6  C   LIG d   1      -2.813  91.841 117.884  0.00  0.00     0.091 C 
ENDROOT
BRANCH   1   7
ATOM      7  O   LIG d   1      -1.167  90.032 118.034  0.00  0.00    -0.368 OA
BRANCH   7   8
ATOM      8  C   LIG d   1      -0.747  89.782 119.398  0.00  0.00     0.119 C 
BRANCH   8   9
ATOM      9  C   LIG d   1       0.376  88.727 119.351  0.00  0.00     0.028 C 
ATOM     10  C   LIG d   1       0.713  88.293 117.915  0.00  0.00     0.006 C 
ENDBRANCH   8   9
BRANCH   8  11
ATOM     11  C   LIG d   1      -1.871  89.142 120.219  0.00  0.00     0.028 C 
ATOM     12  C   LIG d   1      -2.787  88.242 119.374  0.00  0.00     0.006 C 
ENDBRANCH   8  11
ENDBRANCH   7   8
ENDBRANCH   1   7
BRANCH   6  13
ATOM     13  N   LIG d   1      -3.617  91.258 116.778  0.00  0.00    -0.311 N 
ATOM     14  C   LIG d   1      -4.854  90.792 116.938  0.00  0.00     0.210 C 
ATOM     15  C   LIG d   1      -5.496  90.215 115.673  0.00  0.00     0.109 C 
ATOM     16  O   LIG d   1      -5.493  90.831 118.000  0.00  0.00    -0.276 OA
ATOM     17  H   LIG d   1      -3.187  91.215 115.875  0.00  0.00     0.149 HD
ENDBRANCH   6  13
BRANCH   5  18
ATOM     18  N   LIG d   1      -4.324  93.817 118.289  0.00  0.00     0.381 N 
ATOM     19  H   LIG d   1      -4.300  94.723 118.712  0.00  0.00    -0.090 HD
ATOM     20  H   LIG d   1      -4.726  93.172 118.948  0.00  0.00    -0.090 HD
ATOM     21  H   LIG d   1      -4.877  93.843 117.461  0.00  0.00    -0.090 HD
ENDBRANCH   5  18
BRANCH   3  22
ATOM     22  C   LIG d   1       0.310  94.259 119.415  0.00  0.00     0.382 C 
ATOM     23  O   LIG d   1       0.256  95.499 119.233  0.00  0.00    -0.241 OA
ATOM     24  O   LIG d   1       1.306  93.764 119.976  0.00  0.00    -0.241 OA
ENDBRANCH   3  22
TORSDOF 7
ENDMDL
