MODEL 1
REMARK VINA RESULT:      -5.6      0.000      0.000
REMARK  7 active torsions:
REMARK  status: ('A' for Active; 'I' for Inactive)
REMARK    1  A    between atoms: C_2  and  C_3 
REMARK    2  A    between atoms: C_3  and  O_6 
REMARK    3  A    between atoms: C_3  and  C_4 
REMARK    4  A    between atoms: C_7  and  O_6 
REMARK    5  A    between atoms: C_9  and  C_10 
REMARK    6  A    between atoms: N_15  and  C_14 
REMARK    7  A    between atoms: N_20  and  C_19 
REMARK       I    between atoms: C_22  and  N_20 
ROOT
ATOM      1  C   LIG d   1      -5.778  91.531 118.449  0.00  0.00     0.161 C 
ATOM      2  C   LIG d   1      -5.658  90.649 117.363  0.00  0.00     0.016 C 
ATOM      3  C   LIG d   1      -6.149  90.937 116.068  0.00  0.00     0.038 C 
ATOM      4  C   LIG d   1      -6.663  92.199 115.734  0.00  0.00     0.028 C 
ATOM      5  C   LIG d   1      -7.264  92.942 116.923  0.00  0.00    -0.047 C 
ATOM      6  C   LIG d   1      -6.237  92.957 118.078  0.00  0.00     0.091 C 
ENDROOT
BRANCH   1   7
ATOM      7  O   LIG d   1      -4.537  91.578 119.180  0.00  0.00    -0.368 OA
BRANCH   7   8
ATOM      8  C   LIG d   1      -3.372  91.062 118.491  0.00  0.00     0.119 C 
BRANCH   8   9
ATOM      9  C   LIG d   1      -2.693  90.044 119.428  0.00  0.00     0.028 C 
ATOM     10  C   LIG d   1      -2.761  88.608 118.882  0.00  0.00     0.006 C 
ENDBRANCH   8   9
BRANCH   8  11
ATOM     11  C   LIG d   1      -2.329  92.160 118.261  0.00  0.00     0.028 C 
ATOM     12  C   LIG d   1      -1.041  91.937 119.071  0.00  0.00     0.006 C 
ENDBRANCH   8  11
ENDBRANCH   7   8
ENDBRANCH   1   7
BRANCH   6  13
ATOM     13  N   LIG d   1      -6.776  93.591 119.308  0.00  0.00    -0.311 N 
ATOM     14  C   LIG d   1      -6.611  94.880 119.602  0.00  0.00     0.210 C 
ATOM     15  C   LIG d   1      -7.232  95.325 120.930  0.00  0.00     0.109 C 
ATOM     16  O   LIG d   1      -6.038  95.703 118.873  0.00  0.00    -0.276 OA
ATOM     17  H   LIG d   1      -7.282  93.002 119.941  0.00  0.00     0.149 HD
ENDBRANCH   6  13
BRANCH   5  18
ATOM     18  N   LIG d   1      -7.635  94.293 116.462  0.00  0.00     0.381 N 
ATOM     19  H   LIG d   1      -6.835  94.750 116.072  0.00  0.00    -0.090 HD
ATOM     20  H   LIG d   1      -7.952  94.830 117.250  0.00  0.00    -0.090 HD
ATOM     21  H   LIG d   1      -8.358  94.234 115.779  0.00  0.00    -0.090 HD
ENDBRANCH   5  18
BRANCH   3  22
ATOM     22  C   LIG d   1      -6.164  89.943 115.102  0.00  0.00     0.382 C 
ATOM     23  O   LIG d   1      -5.197  89.150 115.003  0.00  0.00    -0.241 OA
ATOM     24  O   LIG d   1      -7.113  89.856 114.300  0.00  0.00    -0.241 OA
ENDBRANCH   3  22
TORSDOF 7
ENDMDL
MODEL 2
REMARK VINA RESULT:      -5.4      2.265      4.799
REMARK  7 active torsions:
REMARK  status: ('A' for Active; 'I' for Inactive)
REMARK    1  A    between atoms: C_2  and  C_3 
REMARK    2  A    between atoms: C_3  and  O_6 
REMARK    3  A    between atoms: C_3  and  C_4 
REMARK    4  A    between atoms: C_7  and  O_6 
REMARK    5  A    between atoms: C_9  and  C_10 
REMARK    6  A    between atoms: N_15  and  C_14 
REMARK    7  A    between atoms: N_20  and  C_19 
REMARK       I    between atoms: C_22  and  N_20 
ROOT
ATOM      1  C   LIG d   1      -6.871  93.238 117.763  0.00  0.00     0.161 C 
ATOM      2  C   LIG d   1      -7.291  92.043 117.156  0.00  0.00     0.016 C 
ATOM      3  C   LIG d   1      -6.411  90.988 116.824  0.00  0.00     0.038 C 
ATOM      4  C   LIG d   1      -5.065  90.994 117.217  0.00  0.00     0.028 C 
ATOM      5  C   LIG d   1      -4.489  92.396 117.385  0.00  0.00    -0.047 C 
ATOM      6  C   LIG d   1      -5.425  93.217 118.301  0.00  0.00     0.091 C 
ENDROOT
BRANCH   1   7
ATOM      7  O   LIG d   1      -7.790  93.602 118.813  0.00  0.00    -0.368 OA
BRANCH   7   8
ATOM      8  C   LIG d   1      -8.734  94.654 118.496  0.00  0.00     0.119 C 
BRANCH   8   9
ATOM      9  C   LIG d   1      -8.134  95.484 117.344  0.00  0.00     0.028 C 
ATOM     10  C   LIG d   1      -7.860  96.941 117.752  0.00  0.00     0.006 C 
ENDBRANCH   8   9
BRANCH   8  11
ATOM     11  C   LIG d   1      -8.889  95.634 119.663  0.00  0.00     0.028 C 
ATOM     12  C   LIG d   1     -10.255  95.521 120.358  0.00  0.00     0.006 C 
ENDBRANCH   8  11
ENDBRANCH   7   8
ENDBRANCH   1   7
BRANCH   6  13
ATOM     13  N   LIG d   1      -4.979  94.627 118.449  0.00  0.00    -0.311 N 
ATOM     14  C   LIG d   1      -4.965  95.272 119.614  0.00  0.00     0.210 C 
ATOM     15  C   LIG d   1      -4.488  96.726 119.541  0.00  0.00     0.109 C 
ATOM     16  O   LIG d   1      -5.271  94.769 120.705  0.00  0.00    -0.276 OA
ATOM     17  H   LIG d   1      -4.684  95.101 117.618  0.00  0.00     0.149 HD
ENDBRANCH   6  13
BRANCH   5  18
ATOM     18  N   LIG d   1      -3.125  92.255 117.928  0.00  0.00     0.381 N 
ATOM     19  H   LIG d   1      -2.628  91.551 117.420  0.00  0.00    -0.090 HD
ATOM     20  H   LIG d   1      -3.186  91.966 118.889  0.00  0.00    -0.090 HD
ATOM     21  H   LIG d   1      -2.642  93.124 117.866  0.00  0.00    -0.090 HD
ENDBRANCH   5  18
BRANCH   3  22
ATOM     22  C   LIG d   1      -6.868  89.928 116.055  0.00  0.00     0.382 C 
ATOM     23  O   LIG d   1      -7.806  89.207 116.474  0.00  0.00    -0.241 OA
ATOM     24  O   LIG d   1      -6.325  89.657 114.967  0.00  0.00    -0.241 OA
ENDBRANCH   3  22
TORSDOF 7
ENDMDL
MODEL 3
REMARK VINA RESULT:      -5.2      2.109      5.312
REMARK  7 active torsions:
REMARK  status: ('A' for Active; 'I' for Inactive)
REMARK    1  A    between atoms: C_2  and  C_3 
REMARK    2  A    between atoms: C_3  and  O_6 
REMARK    3  A    between atoms: C_3  and  C_4 
REMARK    4  A    between atoms: C_7  and  O_6 
REMARK    5  A    between atoms: C_9  and  C_10 
REMARK    6  A    between atoms: N_15  and  C_14 
REMARK    7  A    between atoms: N_20  and  C_19 
REMARK       I    between atoms: C_22  and  N_20 
ROOT
ATOM      1  C   LIG d   1      -6.603  92.615 117.108  0.00  0.00     0.161 C 
ATOM      2  C   LIG d   1      -7.473  93.717 117.062  0.00  0.00     0.016 C 
ATOM      3  C   LIG d   1      -7.325  94.860 117.882  0.00  0.00     0.038 C 
ATOM      4  C   LIG d   1      -6.202  95.043 118.703  0.00  0.00     0.028 C 
ATOM      5  C   LIG d   1      -5.563  93.735 119.156  0.00  0.00    -0.047 C 
ATOM      6  C   LIG d   1      -5.310  92.845 117.918  0.00  0.00     0.091 C 
ENDROOT
BRANCH   1   7
ATOM      7  O   LIG d   1      -6.287  92.186 115.769  0.00  0.00    -0.368 OA
BRANCH   7   8
ATOM      8  C   LIG d   1      -7.080  91.092 115.246  0.00  0.00     0.119 C 
BRANCH   8   9
ATOM      9  C   LIG d   1      -7.674  90.335 116.449  0.00  0.00     0.028 C 
ATOM     10  C   LIG d   1      -8.806  89.377 116.039  0.00  0.00     0.006 C 
ENDBRANCH   8   9
BRANCH   8  11
ATOM     11  C   LIG d   1      -6.205  90.069 114.516  0.00  0.00     0.028 C 
ATOM     12  C   LIG d   1      -5.139  89.439 115.426  0.00  0.00     0.006 C 
ENDBRANCH   8  11
ENDBRANCH   7   8
ENDBRANCH   1   7
BRANCH   6  13
ATOM     13  N   LIG d   1      -4.763  91.511 118.280  0.00  0.00    -0.311 N 
ATOM     14  C   LIG d   1      -3.460  91.240 118.322  0.00  0.00     0.210 C 
ATOM     15  C   LIG d   1      -3.112  89.796 118.699  0.00  0.00     0.109 C 
ATOM     16  O   LIG d   1      -2.558  92.065 118.113  0.00  0.00    -0.276 OA
ATOM     17  H   LIG d   1      -5.424  90.790 118.495  0.00  0.00     0.149 HD
ENDBRANCH   6  13
BRANCH   5  18
ATOM     18  N   LIG d   1      -4.327  94.072 119.887  0.00  0.00     0.381 N 
ATOM     19  H   LIG d   1      -4.171  95.060 119.852  0.00  0.00    -0.090 HD
ATOM     20  H   LIG d   1      -3.551  93.614 119.443  0.00  0.00    -0.090 HD
ATOM     21  H   LIG d   1      -4.400  93.774 120.835  0.00  0.00    -0.090 HD
ENDBRANCH   5  18
BRANCH   3  22
ATOM     22  C   LIG d   1      -8.328  95.816 117.916  0.00  0.00     0.382 C 
ATOM     23  O   LIG d   1      -8.117  96.963 117.453  0.00  0.00    -0.241 OA
ATOM     24  O   LIG d   1      -9.427  95.561 118.444  0.00  0.00    -0.241 OA
ENDBRANCH   3  22
TORSDOF 7
ENDMDL
MODEL 4
REMARK VINA RESULT:      -5.1      2.099      4.683
REMARK  7 active torsions:
REMARK  status: ('A' for Active; 'I' for Inactive)
REMARK    1  A    between atoms: C_2  and  C_3 
REMARK    2  A    between atoms: C_3  and  O_6 
REMARK    3  A    between atoms: C_3  and  C_4 
REMARK    4  A    between atoms: C_7  and  O_6 
REMARK    5  A    between atoms: C_9  and  C_10 
REMARK    6  A    between atoms: N_15  and  C_14 
REMARK    7  A    between atoms: N_20  and  C_19 
REMARK       I    between atoms: C_22  and  N_20 
ROOT
ATOM      1  C   LIG d   1      -6.252  93.132 117.256  0.00  0.00     0.161 C 
ATOM      2  C   LIG d   1      -6.997  92.573 116.205  0.00  0.00     0.016 C 
ATOM      3  C   LIG d   1      -6.795  91.261 115.720  0.00  0.00     0.038 C 
ATOM      4  C   LIG d   1      -5.931  90.359 116.358  0.00  0.00     0.028 C 
ATOM      5  C   LIG d   1      -4.791  91.041 117.109  0.00  0.00    -0.047 C 
ATOM      6  C   LIG d   1      -5.381  92.127 118.038  0.00  0.00     0.091 C 
ENDROOT
BRANCH   1   7
ATOM      7  O   LIG d   1      -7.129  93.840 118.155  0.00  0.00    -0.368 OA
BRANCH   7   8
ATOM      8  C   LIG d   1      -7.038  95.285 118.128  0.00  0.00     0.119 C 
BRANCH   8   9
ATOM      9  C   LIG d   1      -6.505  95.741 119.500  0.00  0.00     0.028 C 
ATOM     10  C   LIG d   1      -5.103  96.367 119.408  0.00  0.00     0.006 C 
ENDBRANCH   8   9
BRANCH   8  11
ATOM     11  C   LIG d   1      -8.422  95.929 117.996  0.00  0.00     0.028 C 
ATOM     12  C   LIG d   1      -8.352  97.430 117.674  0.00  0.00     0.006 C 
ENDBRANCH   8  11
ENDBRANCH   7   8
ENDBRANCH   1   7
BRANCH   6  13
ATOM     13  N   LIG d   1      -4.328  92.899 118.746  0.00  0.00    -0.311 N 
ATOM     14  C   LIG d   1      -3.905  92.606 119.975  0.00  0.00     0.210 C 
ATOM     15  C   LIG d   1      -2.826  93.542 120.528  0.00  0.00     0.109 C 
ATOM     16  O   LIG d   1      -4.299  91.641 120.647  0.00  0.00    -0.276 OA
ATOM     17  H   LIG d   1      -3.931  93.681 118.262  0.00  0.00     0.149 HD
ENDBRANCH   6  13
BRANCH   5  18
ATOM     18  N   LIG d   1      -4.050  89.995 117.839  0.00  0.00     0.381 N 
ATOM     19  H   LIG d   1      -3.284  90.406 118.334  0.00  0.00    -0.090 HD
ATOM     20  H   LIG d   1      -3.680  89.336 117.177  0.00  0.00    -0.090 HD
ATOM     21  H   LIG d   1      -4.657  89.530 118.478  0.00  0.00    -0.090 HD
ENDBRANCH   5  18
BRANCH   3  22
ATOM     22  C   LIG d   1      -7.434  90.851 114.559  0.00  0.00     0.382 C 
ATOM     23  O   LIG d   1      -8.180  91.647 113.939  0.00  0.00    -0.241 OA
ATOM     24  O   LIG d   1      -7.308  89.682 114.148  0.00  0.00    -0.241 OA
ENDBRANCH   3  22
TORSDOF 7
ENDMDL
MODEL 5
REMARK VINA RESULT:      -5.0      2.485      5.982
REMARK  7 active torsions:
REMARK  status: ('A' for Active; 'I' for Inactive)
REMARK    1  A    between atoms: C_2  and  C_3 
REMARK    2  A    between atoms: C_3  and  O_6 
REMARK    3  A    between atoms: C_3  and  C_4 
REMARK    4  A    between atoms: C_7  and  O_6 
REMARK    5  A    between atoms: C_9  and  C_10 
REMARK    6  A    between atoms: N_15  and  C_14 
REMARK    7  A    between atoms: N_20  and  C_19 
REMARK       I    between atoms: C_22  and  N_20 
ROOT
ATOM      1  C   LIG d   1      -5.776  92.785 118.296  0.00  0.00     0.161 C 
ATOM      2  C   LIG d   1      -4.656  93.360 118.919  0.00  0.00     0.016 C 
ATOM      3  C   LIG d   1      -3.369  92.777 118.898  0.00  0.00     0.038 C 
ATOM      4  C   LIG d   1      -3.079  91.647 118.120  0.00  0.00     0.028 C 
ATOM      5  C   LIG d   1      -4.289  90.749 117.883  0.00  0.00    -0.047 C 
ATOM      6  C   LIG d   1      -5.456  91.609 117.349  0.00  0.00     0.091 C 
ENDROOT
BRANCH   1   7
ATOM      7  O   LIG d   1      -6.524  93.801 117.599  0.00  0.00    -0.368 OA
BRANCH   7   8
ATOM      8  C   LIG d   1      -7.497  94.530 118.388  0.00  0.00     0.119 C 
BRANCH   8   9
ATOM      9  C   LIG d   1      -8.536  93.512 118.897  0.00  0.00     0.028 C 
ATOM     10  C   LIG d   1      -8.933  93.762 120.362  0.00  0.00     0.006 C 
ENDBRANCH   8   9
BRANCH   8  11
ATOM     11  C   LIG d   1      -8.286  95.518 117.524  0.00  0.00     0.028 C 
ATOM     12  C   LIG d   1      -8.341  96.929 118.131  0.00  0.00     0.006 C 
ENDBRANCH   8  11
ENDBRANCH   7   8
ENDBRANCH   1   7
BRANCH   6  13
ATOM     13  N   LIG d   1      -6.705  90.823 117.170  0.00  0.00    -0.311 N 
ATOM     14  C   LIG d   1      -7.057  90.260 116.015  0.00  0.00     0.210 C 
ATOM     15  C   LIG d   1      -8.393  89.511 116.043  0.00  0.00     0.109 C 
ATOM     16  O   LIG d   1      -6.375  90.283 114.980  0.00  0.00    -0.276 OA
ATOM     17  H   LIG d   1      -7.302  90.728 117.967  0.00  0.00     0.149 HD
ENDBRANCH   6  13
BRANCH   5  18
ATOM     18  N   LIG d   1      -3.878  89.686 116.945  0.00  0.00     0.381 N 
ATOM     19  H   LIG d   1      -3.032  89.952 116.482  0.00  0.00    -0.090 HD
ATOM     20  H   LIG d   1      -4.595  89.570 116.252  0.00  0.00    -0.090 HD
ATOM     21  H   LIG d   1      -3.740  88.831 117.438  0.00  0.00    -0.090 HD
ENDBRANCH   5  18
BRANCH   3  22
ATOM     22  C   LIG d   1      -2.363  93.303 119.695  0.00  0.00     0.382 C 
ATOM     23  O   LIG d   1      -2.615  94.249 120.480  0.00  0.00    -0.241 OA
ATOM     24  O   LIG d   1      -1.197  92.873 119.607  0.00  0.00    -0.241 OA
ENDBRANCH   3  22
TORSDOF 7
ENDMDL
MODEL 6
REMARK VINA RESULT:      -5.0      2.093      4.716
REMARK  7 active torsions:
REMARK  status: ('A' for Active; 'I' for Inactive)
REMARK    1  A    between atoms: C_2  and  C_3 
REMARK    2  A    between atoms: C_3  and  O_6 
REMARK    3  A    between atoms: C_3  and  C_4 
REMARK    4  A    between atoms: C_7  and  O_6 
REMARK    5  A    between atoms: C_9  and  C_10 
REMARK    6  A    between atoms: N_15  and  C_14 
REMARK    7  A    between atoms: N_20  and  C_19 
REMARK       I    between atoms: C_22  and  N_20 
ROOT
ATOM      1  C   LIG d   1      -5.836  92.208 116.989  0.00  0.00     0.161 C 
ATOM      2  C   LIG d   1      -4.951  91.161 117.298  0.00  0.00     0.016 C 
ATOM      3  C   LIG d   1      -4.607  90.798 118.620  0.00  0.00     0.038 C 
ATOM      4  C   LIG d   1      -5.245  91.363 119.734  0.00  0.00     0.028 C 
ATOM      5  C   LIG d   1      -5.773  92.771 119.481  0.00  0.00    -0.047 C 
ATOM      6  C   LIG d   1      -6.627  92.762 118.192  0.00  0.00     0.091 C 
ENDROOT
BRANCH   1   7
ATOM      7  O   LIG d   1      -6.738  91.792 115.944  0.00  0.00    -0.368 OA
BRANCH   7   8
ATOM      8  C   LIG d   1      -6.874  90.363 115.751  0.00  0.00     0.119 C 
BRANCH   8   9
ATOM      9  C   LIG d   1      -7.351  90.135 114.303  0.00  0.00     0.028 C 
ATOM     10  C   LIG d   1      -7.821  91.435 113.629  0.00  0.00     0.006 C 
ENDBRANCH   8   9
BRANCH   8  11
ATOM     11  C   LIG d   1      -7.980  89.783 116.638  0.00  0.00     0.028 C 
ATOM     12  C   LIG d   1      -9.151  89.205 115.829  0.00  0.00     0.006 C 
ENDBRANCH   8  11
ENDBRANCH   7   8
ENDBRANCH   1   7
BRANCH   6  13
ATOM     13  N   LIG d   1      -7.114  94.117 117.825  0.00  0.00    -0.311 N 
ATOM     14  C   LIG d   1      -8.325  94.572 118.141  0.00  0.00     0.210 C 
ATOM     15  C   LIG d   1      -8.632  95.990 117.648  0.00  0.00     0.109 C 
ATOM     16  O   LIG d   1      -9.162  93.949 118.810  0.00  0.00    -0.276 OA
ATOM     17  H   LIG d   1      -6.487  94.702 117.308  0.00  0.00     0.149 HD
ENDBRANCH   6  13
BRANCH   5  18
ATOM     18  N   LIG d   1      -6.534  93.184 120.675  0.00  0.00     0.381 N 
ATOM     19  H   LIG d   1      -5.912  93.293 121.451  0.00  0.00    -0.090 HD
ATOM     20  H   LIG d   1      -7.198  92.465 120.902  0.00  0.00    -0.090 HD
ATOM     21  H   LIG d   1      -7.009  94.042 120.498  0.00  0.00    -0.090 HD
ENDBRANCH   5  18
BRANCH   3  22
ATOM     22  C   LIG d   1      -3.584  89.888 118.839  0.00  0.00     0.382 C 
ATOM     23  O   LIG d   1      -3.474  88.879 118.101  0.00  0.00    -0.241 OA
ATOM     24  O   LIG d   1      -2.797  90.039 119.792  0.00  0.00    -0.241 OA
ENDBRANCH   3  22
TORSDOF 7
ENDMDL
MODEL 7
REMARK VINA RESULT:      -5.0      1.827      4.659
REMARK  7 active torsions:
REMARK  status: ('A' for Active; 'I' for Inactive)
REMARK    1  A    between atoms: C_2  and  C_3 
REMARK    2  A    between atoms: C_3  and  O_6 
REMARK    3  A    between atoms: C_3  and  C_4 
REMARK    4  A    between atoms: C_7  and  O_6 
REMARK    5  A    between atoms: C_9  and  C_10 
REMARK    6  A    between atoms: N_15  and  C_14 
REMARK    7  A    between atoms: N_20  and  C_19 
REMARK       I    between atoms: C_22  and  N_20 
ROOT
ATOM      1  C   LIG d   1      -5.194  92.401 117.585  0.00  0.00     0.161 C 
ATOM      2  C   LIG d   1      -4.722  93.233 118.614  0.00  0.00     0.016 C 
ATOM      3  C   LIG d   1      -5.392  94.405 119.035  0.00  0.00     0.038 C 
ATOM      4  C   LIG d   1      -6.666  94.744 118.555  0.00  0.00     0.028 C 
ATOM      5  C   LIG d   1      -6.949  94.208 117.156  0.00  0.00    -0.047 C 
ATOM      6  C   LIG d   1      -6.638  92.694 117.127  0.00  0.00     0.091 C 
ENDROOT
BRANCH   1   7
ATOM      7  O   LIG d   1      -5.063  91.020 117.976  0.00  0.00    -0.368 OA
BRANCH   7   8
ATOM      8  C   LIG d   1      -3.710  90.513 118.085  0.00  0.00     0.119 C 
BRANCH   8   9
ATOM      9  C   LIG d   1      -3.553  89.385 117.048  0.00  0.00     0.028 C 
ATOM     10  C   LIG d   1      -2.358  88.467 117.355  0.00  0.00     0.006 C 
ENDBRANCH   8   9
BRANCH   8  11
ATOM     11  C   LIG d   1      -3.471  89.850 119.445  0.00  0.00     0.028 C 
ATOM     12  C   LIG d   1      -2.626  90.718 120.391  0.00  0.00     0.006 C 
ENDBRANCH   8  11
ENDBRANCH   7   8
ENDBRANCH   1   7
BRANCH   6  13
ATOM     13  N   LIG d   1      -6.807  92.106 115.772  0.00  0.00    -0.311 N 
ATOM     14  C   LIG d   1      -7.376  90.922 115.553  0.00  0.00     0.210 C 
ATOM     15  C   LIG d   1      -7.432  90.494 114.083  0.00  0.00     0.109 C 
ATOM     16  O   LIG d   1      -7.867  90.199 116.432  0.00  0.00    -0.276 OA
ATOM     17  H   LIG d   1      -6.465  92.640 114.997  0.00  0.00     0.149 HD
ENDBRANCH   6  13
BRANCH   5  18
ATOM     18  N   LIG d   1      -8.356  94.515 116.837  0.00  0.00     0.381 N 
ATOM     19  H   LIG d   1      -8.871  94.661 117.682  0.00  0.00    -0.090 HD
ATOM     20  H   LIG d   1      -8.758  93.731 116.354  0.00  0.00    -0.090 HD
ATOM     21  H   LIG d   1      -8.406  95.329 116.264  0.00  0.00    -0.090 HD
ENDBRANCH   5  18
BRANCH   3  22
ATOM     22  C   LIG d   1      -4.768  95.274 119.918  0.00  0.00     0.382 C 
ATOM     23  O   LIG d   1      -3.536  95.488 119.820  0.00  0.00    -0.241 OA
ATOM     24  O   LIG d   1      -5.414  95.811 120.837  0.00  0.00    -0.241 OA
ENDBRANCH   3  22
TORSDOF 7
ENDMDL
MODEL 8
REMARK VINA RESULT:      -4.9      2.176      4.485
REMARK  7 active torsions:
REMARK  status: ('A' for Active; 'I' for Inactive)
REMARK    1  A    between atoms: C_2  and  C_3 
REMARK    2  A    between atoms: C_3  and  O_6 
REMARK    3  A    between atoms: C_3  and  C_4 
REMARK    4  A    between atoms: C_7  and  O_6 
REMARK    5  A    between atoms: C_9  and  C_10 
REMARK    6  A    between atoms: N_15  and  C_14 
REMARK    7  A    between atoms: N_20  and  C_19 
REMARK       I    between atoms: C_22  and  N_20 
ROOT
ATOM      1  C   LIG d   1      -6.063  92.042 117.622  0.00  0.00     0.161 C 
ATOM      2  C   LIG d   1      -6.926  91.782 116.544  0.00  0.00     0.016 C 
ATOM      3  C   LIG d   1      -6.695  90.763 115.592  0.00  0.00     0.038 C 
ATOM      4  C   LIG d   1      -5.659  89.829 115.741  0.00  0.00     0.028 C 
ATOM      5  C   LIG d   1      -4.472  90.363 116.536  0.00  0.00    -0.047 C 
ATOM      6  C   LIG d   1      -4.987  90.963 117.864  0.00  0.00     0.091 C 
ENDROOT
BRANCH   1   7
ATOM      7  O   LIG d   1      -6.833  92.260 118.821  0.00  0.00    -0.368 OA
BRANCH   7   8
ATOM      8  C   LIG d   1      -6.936  93.633 119.272  0.00  0.00     0.119 C 
BRANCH   8   9
ATOM      9  C   LIG d   1      -8.329  94.151 118.865  0.00  0.00     0.028 C 
ATOM     10  C   LIG d   1      -8.273  95.102 117.659  0.00  0.00     0.006 C 
ENDBRANCH   8   9
BRANCH   8  11
ATOM     11  C   LIG d   1      -5.939  94.536 118.539  0.00  0.00     0.028 C 
ATOM     12  C   LIG d   1      -4.802  95.029 119.449  0.00  0.00     0.006 C 
ENDBRANCH   8  11
ENDBRANCH   7   8
ENDBRANCH   1   7
BRANCH   6  13
ATOM     13  N   LIG d   1      -3.900  91.583 118.665  0.00  0.00    -0.311 N 
ATOM     14  C   LIG d   1      -3.225  90.934 119.612  0.00  0.00     0.210 C 
ATOM     15  C   LIG d   1      -2.158  91.766 120.331  0.00  0.00     0.109 C 
ATOM     16  O   LIG d   1      -3.385  89.739 119.901  0.00  0.00    -0.276 OA
ATOM     17  H   LIG d   1      -3.683  92.542 118.474  0.00  0.00     0.149 HD
ENDBRANCH   6  13
BRANCH   5  18
ATOM     18  N   LIG d   1      -3.529  89.247 116.733  0.00  0.00     0.381 N 
ATOM     19  H   LIG d   1      -3.979  88.381 116.513  0.00  0.00    -0.090 HD
ATOM     20  H   LIG d   1      -3.252  89.222 117.698  0.00  0.00    -0.090 HD
ATOM     21  H   LIG d   1      -2.728  89.370 116.153  0.00  0.00    -0.090 HD
ENDBRANCH   5  18
BRANCH   3  22
ATOM     22  C   LIG d   1      -7.484  90.695 114.453  0.00  0.00     0.382 C 
ATOM     23  O   LIG d   1      -7.549  89.627 113.798  0.00  0.00    -0.241 OA
ATOM     24  O   LIG d   1      -8.097  91.701 114.049  0.00  0.00    -0.241 OA
ENDBRANCH   3  22
TORSDOF 7
ENDMDL
MODEL 9
REMARK VINA RESULT:      -4.6      2.268      4.897
REMARK  7 active torsions:
REMARK  status: ('A' for Active; 'I' for Inactive)
REMARK    1  A    between atoms: C_2  and  C_3 
REMARK    2  A    between atoms: C_3  and  O_6 
REMARK    3  A    between atoms: C_3  and  C_4 
REMARK    4  A    between atoms: C_7  and  O_6 
REMARK    5  A    between atoms: C_9  and  C_10 
REMARK    6  A    between atoms: N_15  and  C_14 
REMARK    7  A    between atoms: N_20  and  C_19 
REMARK       I    between atoms: C_22  and  N_20 
ROOT
ATOM      1  C   LIG d   1      -5.612  92.411 117.946  0.00  0.00     0.161 C 
ATOM      2  C   LIG d   1      -6.635  93.270 117.510  0.00  0.00     0.016 C 
ATOM      3  C   LIG d   1      -6.766  94.608 117.947  0.00  0.00     0.038 C 
ATOM      4  C   LIG d   1      -5.787  95.229 118.738  0.00  0.00     0.028 C 
ATOM      5  C   LIG d   1      -5.004  94.253 119.609  0.00  0.00    -0.047 C 
ATOM      6  C   LIG d   1      -4.473  93.103 118.722  0.00  0.00     0.091 C 
ENDROOT
BRANCH   1   7
ATOM      7  O   LIG d   1      -5.081  91.677 116.825  0.00  0.00    -0.368 OA
BRANCH   7   8
ATOM      8  C   LIG d   1      -5.589  90.332 116.645  0.00  0.00     0.119 C 
BRANCH   8   9
ATOM      9  C   LIG d   1      -4.434  89.469 116.101  0.00  0.00     0.028 C 
ATOM     10  C   LIG d   1      -3.386  89.144 117.178  0.00  0.00     0.006 C 
ENDBRANCH   8   9
BRANCH   8  11
ATOM     11  C   LIG d   1      -6.674  90.285 115.566  0.00  0.00     0.028 C 
ATOM     12  C   LIG d   1      -8.033  89.812 116.106  0.00  0.00     0.006 C 
ENDBRANCH   8  11
ENDBRANCH   7   8
ENDBRANCH   1   7
BRANCH   6  13
ATOM     13  N   LIG d   1      -3.766  92.060 119.509  0.00  0.00    -0.311 N 
ATOM     14  C   LIG d   1      -2.464  91.804 119.385  0.00  0.00     0.210 C 
ATOM     15  C   LIG d   1      -1.940  90.674 120.277  0.00  0.00     0.109 C 
ATOM     16  O   LIG d   1      -1.688  92.427 118.645  0.00  0.00    -0.276 OA
ATOM     17  H   LIG d   1      -4.313  91.528 120.157  0.00  0.00     0.149 HD
ENDBRANCH   6  13
BRANCH   5  18
ATOM     18  N   LIG d   1      -3.929  95.013 120.275  0.00  0.00     0.381 N 
ATOM     19  H   LIG d   1      -4.310  95.831 120.705  0.00  0.00    -0.090 HD
ATOM     20  H   LIG d   1      -3.260  95.303 119.584  0.00  0.00    -0.090 HD
ATOM     21  H   LIG d   1      -3.484  94.444 120.961  0.00  0.00    -0.090 HD
ENDBRANCH   5  18
BRANCH   3  22
ATOM     22  C   LIG d   1      -7.906  95.328 117.624  0.00  0.00     0.382 C 
ATOM     23  O   LIG d   1      -8.976  94.726 117.369  0.00  0.00    -0.241 OA
ATOM     24  O   LIG d   1      -7.866  96.570 117.541  0.00  0.00    -0.241 OA
ENDBRANCH   3  22
TORSDOF 7
ENDMDL
