MODEL 1
REMARK VINA RESULT:      -5.4      0.000      0.000
REMARK  7 active torsions:
REMARK  status: ('A' for Active; 'I' for Inactive)
REMARK    1  A    between atoms: C_2  and  C_3 
REMARK    2  A    between atoms: C_3  and  O_6 
REMARK    3  A    between atoms: C_3  and  C_4 
REMARK    4  A    between atoms: C_7  and  O_6 
REMARK    5  A    between atoms: C_9  and  C_10 
REMARK    6  A    between atoms: N_15  and  C_14 
REMARK    7  A    between atoms: N_20  and  C_19 
REMARK       I    between atoms: C_22  and  N_20 
ROOT
ATOM      1  C   LIG d   1      -6.811  93.807 117.772  0.00  0.00     0.161 C 
ATOM      2  C   LIG d   1      -7.300  92.821 116.898  0.00  0.00     0.016 C 
ATOM      3  C   LIG d   1      -6.513  91.751 116.414  0.00  0.00     0.038 C 
ATOM      4  C   LIG d   1      -5.218  91.507 116.893  0.00  0.00     0.028 C 
ATOM      5  C   LIG d   1      -4.510  92.763 117.393  0.00  0.00    -0.047 C 
ATOM      6  C   LIG d   1      -5.434  93.495 118.393  0.00  0.00     0.091 C 
ENDROOT
BRANCH   1   7
ATOM      7  O   LIG d   1      -7.780  94.066 118.807  0.00  0.00    -0.368 OA
BRANCH   7   8
ATOM      8  C   LIG d   1      -8.601  95.247 118.630  0.00  0.00     0.119 C 
BRANCH   8   9
ATOM      9  C   LIG d   1      -8.154  95.931 117.324  0.00  0.00     0.028 C 
ATOM     10  C   LIG d   1      -7.858  97.428 117.517  0.00  0.00     0.006 C 
ENDBRANCH   8   9
BRANCH   8  11
ATOM     11  C   LIG d   1      -8.344  96.275 119.736  0.00  0.00     0.028 C 
ATOM     12  C   LIG d   1      -7.573  95.687 120.929  0.00  0.00     0.006 C 
ENDBRANCH   8  11
ENDBRANCH   7   8
ENDBRANCH   1   7
BRANCH   6  13
ATOM     13  N   LIG d   1      -4.852  94.778 118.866  0.00  0.00    -0.311 N 
ATOM     14  C   LIG d   1      -4.129  94.889 119.978  0.00  0.00     0.210 C 
ATOM     15  C   LIG d   1      -3.641  96.307 120.294  0.00  0.00     0.109 C 
ATOM     16  O   LIG d   1      -3.817  93.943 120.717  0.00  0.00    -0.276 OA
ATOM     17  H   LIG d   1      -5.030  95.592 118.310  0.00  0.00     0.149 HD
ENDBRANCH   6  13
BRANCH   5  18
ATOM     18  N   LIG d   1      -3.228  92.344 117.989  0.00  0.00     0.381 N 
ATOM     19  H   LIG d   1      -2.516  93.010 117.764  0.00  0.00    -0.090 HD
ATOM     20  H   LIG d   1      -2.963  91.456 117.601  0.00  0.00    -0.090 HD
ATOM     21  H   LIG d   1      -3.321  92.268 118.978  0.00  0.00    -0.090 HD
ENDBRANCH   5  18
BRANCH   3  22
ATOM     22  C   LIG d   1      -7.008  90.934 115.409  0.00  0.00     0.382 C 
ATOM     23  O   LIG d   1      -7.841  91.387 114.586  0.00  0.00    -0.241 OA
ATOM     24  O   LIG d   1      -6.667  89.738 115.341  0.00  0.00    -0.241 OA
ENDBRANCH   3  22
TORSDOF 7
ENDMDL
MODEL 2
REMARK VINA RESULT:      -4.9      8.183      9.906
REMARK  7 active torsions:
REMARK  status: ('A' for Active; 'I' for Inactive)
REMARK    1  A    between atoms: C_2  and  C_3 
REMARK    2  A    between atoms: C_3  and  O_6 
REMARK    3  A    between atoms: C_3  and  C_4 
REMARK    4  A    between atoms: C_7  and  O_6 
REMARK    5  A    between atoms: C_9  and  C_10 
REMARK    6  A    between atoms: N_15  and  C_14 
REMARK    7  A    between atoms: N_20  and  C_19 
REMARK       I    between atoms: C_22  and  N_20 
ROOT
ATOM      1  C   LIG d   1       2.295  89.917 116.028  0.00  0.00     0.161 C 
ATOM      2  C   LIG d   1       1.789  88.777 115.381  0.00  0.00     0.016 C 
ATOM      3  C   LIG d   1       2.592  87.678 115.000  0.00  0.00     0.038 C 
ATOM      4  C   LIG d   1       3.939  87.577 115.377  0.00  0.00     0.028 C 
ATOM      5  C   LIG d   1       4.611  88.929 115.591  0.00  0.00    -0.047 C 
ATOM      6  C   LIG d   1       3.741  89.776 116.548  0.00  0.00     0.091 C 
ENDROOT
BRANCH   1   7
ATOM      7  O   LIG d   1       1.413  90.302 117.101  0.00  0.00    -0.368 OA
BRANCH   7   8
ATOM      8  C   LIG d   1       0.115  90.812 116.707  0.00  0.00     0.119 C 
BRANCH   8   9
ATOM      9  C   LIG d   1       0.109  92.328 116.984  0.00  0.00     0.028 C 
ATOM     10  C   LIG d   1       1.104  92.726 118.088  0.00  0.00     0.006 C 
ENDBRANCH   8   9
BRANCH   8  11
ATOM     11  C   LIG d   1      -1.000  90.235 117.584  0.00  0.00     0.028 C 
ATOM     12  C   LIG d   1      -0.469  89.311 118.692  0.00  0.00     0.006 C 
ENDBRANCH   8  11
ENDBRANCH   7   8
ENDBRANCH   1   7
BRANCH   6  13
ATOM     13  N   LIG d   1       4.284  91.146 116.744  0.00  0.00    -0.311 N 
ATOM     14  C   LIG d   1       4.669  91.620 117.927  0.00  0.00     0.210 C 
ATOM     15  C   LIG d   1       5.179  93.064 117.911  0.00  0.00     0.109 C 
ATOM     16  O   LIG d   1       4.666  90.970 118.984  0.00  0.00    -0.276 OA
ATOM     17  H   LIG d   1       4.350  91.731 115.933  0.00  0.00     0.149 HD
ENDBRANCH   6  13
BRANCH   5  18
ATOM     18  N   LIG d   1       5.967  88.676 116.113  0.00  0.00     0.381 N 
ATOM     19  H   LIG d   1       5.993  88.867 117.095  0.00  0.00    -0.090 HD
ATOM     20  H   LIG d   1       6.613  89.293 115.654  0.00  0.00    -0.090 HD
ATOM     21  H   LIG d   1       6.225  87.728 115.946  0.00  0.00    -0.090 HD
ENDBRANCH   5  18
BRANCH   3  22
ATOM     22  C   LIG d   1       2.057  86.682 114.197  0.00  0.00     0.382 C 
ATOM     23  O   LIG d   1       1.097  86.942 113.431  0.00  0.00    -0.241 OA
ATOM     24  O   LIG d   1       2.492  85.517 114.261  0.00  0.00    -0.241 OA
ENDBRANCH   3  22
TORSDOF 7
ENDMDL
MODEL 3
REMARK VINA RESULT:      -4.8      1.553      2.325
REMARK  7 active torsions:
REMARK  status: ('A' for Active; 'I' for Inactive)
REMARK    1  A    between atoms: C_2  and  C_3 
REMARK    2  A    between atoms: C_3  and  O_6 
REMARK    3  A    between atoms: C_3  and  C_4 
REMARK    4  A    between atoms: C_7  and  O_6 
REMARK    5  A    between atoms: C_9  and  C_10 
REMARK    6  A    between atoms: N_15  and  C_14 
REMARK    7  A    between atoms: N_20  and  C_19 
REMARK       I    between atoms: C_22  and  N_20 
ROOT
ATOM      1  C   LIG d   1      -5.481  94.024 118.579  0.00  0.00     0.161 C 
ATOM      2  C   LIG d   1      -6.436  93.661 117.615  0.00  0.00     0.016 C 
ATOM      3  C   LIG d   1      -6.300  92.536 116.770  0.00  0.00     0.038 C 
ATOM      4  C   LIG d   1      -5.264  91.605 116.936  0.00  0.00     0.028 C 
ATOM      5  C   LIG d   1      -4.008  92.202 117.560  0.00  0.00    -0.047 C 
ATOM      6  C   LIG d   1      -4.399  92.958 118.850  0.00  0.00     0.091 C 
ENDROOT
BRANCH   1   7
ATOM      7  O   LIG d   1      -6.140  94.392 119.806  0.00  0.00    -0.368 OA
BRANCH   7   8
ATOM      8  C   LIG d   1      -6.156  95.806 120.123  0.00  0.00     0.119 C 
BRANCH   8   9
ATOM      9  C   LIG d   1      -7.486  96.383 119.602  0.00  0.00     0.028 C 
ATOM     10  C   LIG d   1      -8.696  95.521 120.001  0.00  0.00     0.006 C 
ENDBRANCH   8   9
BRANCH   8  11
ATOM     11  C   LIG d   1      -5.061  96.559 119.361  0.00  0.00     0.028 C 
ATOM     12  C   LIG d   1      -3.937  97.065 120.279  0.00  0.00     0.006 C 
ENDBRANCH   8  11
ENDBRANCH   7   8
ENDBRANCH   1   7
BRANCH   6  13
ATOM     13  N   LIG d   1      -3.240  93.644 119.478  0.00  0.00    -0.311 N 
ATOM     14  C   LIG d   1      -2.461  93.075 120.397  0.00  0.00     0.210 C 
ATOM     15  C   LIG d   1      -1.333  93.964 120.930  0.00  0.00     0.109 C 
ATOM     16  O   LIG d   1      -2.578  91.907 120.798  0.00  0.00    -0.276 OA
ATOM     17  H   LIG d   1      -3.054  94.584 119.189  0.00  0.00     0.149 HD
ENDBRANCH   6  13
BRANCH   5  18
ATOM     18  N   LIG d   1      -3.062  91.096 117.802  0.00  0.00     0.381 N 
ATOM     19  H   LIG d   1      -3.220  90.708 118.710  0.00  0.00    -0.090 HD
ATOM     20  H   LIG d   1      -2.125  91.458 117.772  0.00  0.00    -0.090 HD
ATOM     21  H   LIG d   1      -3.176  90.392 117.107  0.00  0.00    -0.090 HD
ENDBRANCH   5  18
BRANCH   3  22
ATOM     22  C   LIG d   1      -7.186  92.355 115.718  0.00  0.00     0.382 C 
ATOM     23  O   LIG d   1      -7.707  91.231 115.524  0.00  0.00    -0.241 OA
ATOM     24  O   LIG d   1      -7.437  93.291 114.936  0.00  0.00    -0.241 OA
ENDBRANCH   3  22
TORSDOF 7
ENDMDL
MODEL 4
REMARK VINA RESULT:      -4.7      7.982     10.107
REMARK  7 active torsions:
REMARK  status: ('A' for Active; 'I' for Inactive)
REMARK    1  A    between atoms: C_2  and  C_3 
REMARK    2  A    between atoms: C_3  and  O_6 
REMARK    3  A    between atoms: C_3  and  C_4 
REMARK    4  A    between atoms: C_7  and  O_6 
REMARK    5  A    between atoms: C_9  and  C_10 
REMARK    6  A    between atoms: N_15  and  C_14 
REMARK    7  A    between atoms: N_20  and  C_19 
REMARK       I    between atoms: C_22  and  N_20 
ROOT
ATOM      1  C   LIG d   1       2.906  90.934 117.188  0.00  0.00     0.161 C 
ATOM      2  C   LIG d   1       3.522  90.103 116.237  0.00  0.00     0.016 C 
ATOM      3  C   LIG d   1       2.808  89.216 115.399  0.00  0.00     0.038 C 
ATOM      4  C   LIG d   1       1.406  89.210 115.349  0.00  0.00     0.028 C 
ATOM      5  C   LIG d   1       0.752  89.670 116.648  0.00  0.00    -0.047 C 
ATOM      6  C   LIG d   1       1.370  91.022 117.070  0.00  0.00     0.091 C 
ENDROOT
BRANCH   1   7
ATOM      7  O   LIG d   1       3.489  92.251 117.136  0.00  0.00    -0.368 OA
BRANCH   7   8
ATOM      8  C   LIG d   1       4.110  92.721 118.358  0.00  0.00     0.119 C 
BRANCH   8   9
ATOM      9  C   LIG d   1       5.560  93.117 118.017  0.00  0.00     0.028 C 
ATOM     10  C   LIG d   1       6.561  91.987 118.308  0.00  0.00     0.006 C 
ENDBRANCH   8   9
BRANCH   8  11
ATOM     11  C   LIG d   1       4.229  91.596 119.391  0.00  0.00     0.028 C 
ATOM     12  C   LIG d   1       3.617  91.969 120.750  0.00  0.00     0.006 C 
ENDBRANCH   8  11
ENDBRANCH   7   8
ENDBRANCH   1   7
BRANCH   6  13
ATOM     13  N   LIG d   1       0.846  91.502 118.375  0.00  0.00    -0.311 N 
ATOM     14  C   LIG d   1       0.373  92.732 118.568  0.00  0.00     0.210 C 
ATOM     15  C   LIG d   1      -0.100  93.027 119.995  0.00  0.00     0.109 C 
ATOM     16  O   LIG d   1       0.269  93.596 117.685  0.00  0.00    -0.276 OA
ATOM     17  H   LIG d   1       0.863  90.855 119.139  0.00  0.00     0.149 HD
ENDBRANCH   6  13
BRANCH   5  18
ATOM     18  N   LIG d   1      -0.702  89.747 116.411  0.00  0.00     0.381 N 
ATOM     19  H   LIG d   1      -1.190  89.710 117.284  0.00  0.00    -0.090 HD
ATOM     20  H   LIG d   1      -0.984  88.956 115.859  0.00  0.00    -0.090 HD
ATOM     21  H   LIG d   1      -0.925  90.592 115.933  0.00  0.00    -0.090 HD
ENDBRANCH   5  18
BRANCH   3  22
ATOM     22  C   LIG d   1       3.498  88.294 114.627  0.00  0.00     0.382 C 
ATOM     23  O   LIG d   1       3.627  87.112 115.028  0.00  0.00    -0.241 OA
ATOM     24  O   LIG d   1       4.032  88.640 113.556  0.00  0.00    -0.241 OA
ENDBRANCH   3  22
TORSDOF 7
ENDMDL
MODEL 5
REMARK VINA RESULT:      -4.5      9.739     11.587
REMARK  7 active torsions:
REMARK  status: ('A' for Active; 'I' for Inactive)
REMARK    1  A    between atoms: C_2  and  C_3 
REMARK    2  A    between atoms: C_3  and  O_6 
REMARK    3  A    between atoms: C_3  and  C_4 
REMARK    4  A    between atoms: C_7  and  O_6 
REMARK    5  A    between atoms: C_9  and  C_10 
REMARK    6  A    between atoms: N_15  and  C_14 
REMARK    7  A    between atoms: N_20  and  C_19 
REMARK       I    between atoms: C_22  and  N_20 
ROOT
ATOM      1  C   LIG d   1       3.900  89.703 116.233  0.00  0.00     0.161 C 
ATOM      2  C   LIG d   1       2.916  88.906 115.624  0.00  0.00     0.016 C 
ATOM      3  C   LIG d   1       3.146  87.578 115.195  0.00  0.00     0.038 C 
ATOM      4  C   LIG d   1       4.340  86.902 115.484  0.00  0.00     0.028 C 
ATOM      5  C   LIG d   1       5.538  87.831 115.648  0.00  0.00    -0.047 C 
ATOM      6  C   LIG d   1       5.175  88.944 116.657  0.00  0.00     0.091 C 
ENDROOT
BRANCH   1   7
ATOM      7  O   LIG d   1       3.334  90.401 117.359  0.00  0.00    -0.368 OA
BRANCH   7   8
ATOM      8  C   LIG d   1       3.165  91.832 117.202  0.00  0.00     0.119 C 
BRANCH   8   9
ATOM      9  C   LIG d   1       4.189  92.523 118.123  0.00  0.00     0.028 C 
ATOM     10  C   LIG d   1       4.426  91.743 119.427  0.00  0.00     0.006 C 
ENDBRANCH   8   9
BRANCH   8  11
ATOM     11  C   LIG d   1       1.793  92.289 117.706  0.00  0.00     0.028 C 
ATOM     12  C   LIG d   1       0.629  91.604 116.972  0.00  0.00     0.006 C 
ENDBRANCH   8  11
ENDBRANCH   7   8
ENDBRANCH   1   7
BRANCH   6  13
ATOM     13  N   LIG d   1       6.263  89.945 116.812  0.00  0.00    -0.311 N 
ATOM     14  C   LIG d   1       7.195  89.874 117.761  0.00  0.00     0.210 C 
ATOM     15  C   LIG d   1       8.212  91.019 117.755  0.00  0.00     0.109 C 
ATOM     16  O   LIG d   1       7.295  88.954 118.586  0.00  0.00    -0.276 OA
ATOM     17  H   LIG d   1       6.275  90.709 116.165  0.00  0.00     0.149 HD
ENDBRANCH   6  13
BRANCH   5  18
ATOM     18  N   LIG d   1       6.684  87.009 116.082  0.00  0.00     0.381 N 
ATOM     19  H   LIG d   1       6.772  87.049 117.078  0.00  0.00    -0.090 HD
ATOM     20  H   LIG d   1       7.523  87.382 115.675  0.00  0.00    -0.090 HD
ATOM     21  H   LIG d   1       6.555  86.065 115.791  0.00  0.00    -0.090 HD
ENDBRANCH   5  18
BRANCH   3  22
ATOM     22  C   LIG d   1       2.188  86.927 114.432  0.00  0.00     0.382 C 
ATOM     23  O   LIG d   1       2.282  85.692 114.229  0.00  0.00    -0.241 OA
ATOM     24  O   LIG d   1       1.256  87.566 113.908  0.00  0.00    -0.241 OA
ENDBRANCH   3  22
TORSDOF 7
ENDMDL
MODEL 6
REMARK VINA RESULT:      -4.5      7.050      9.686
REMARK  7 active torsions:
REMARK  status: ('A' for Active; 'I' for Inactive)
REMARK    1  A    between atoms: C_2  and  C_3 
REMARK    2  A    between atoms: C_3  and  O_6 
REMARK    3  A    between atoms: C_3  and  C_4 
REMARK    4  A    between atoms: C_7  and  O_6 
REMARK    5  A    between atoms: C_9  and  C_10 
REMARK    6  A    between atoms: N_15  and  C_14 
REMARK    7  A    between atoms: N_20  and  C_19 
REMARK       I    between atoms: C_22  and  N_20 
ROOT
ATOM      1  C   LIG d   1       1.000  89.945 117.032  0.00  0.00     0.161 C 
ATOM      2  C   LIG d   1      -0.402  89.969 117.120  0.00  0.00     0.016 C 
ATOM      3  C   LIG d   1      -1.119  90.939 117.857  0.00  0.00     0.038 C 
ATOM      4  C   LIG d   1      -0.485  92.048 118.437  0.00  0.00     0.028 C 
ATOM      5  C   LIG d   1       0.973  91.790 118.800  0.00  0.00    -0.047 C 
ATOM      6  C   LIG d   1       1.703  91.211 117.566  0.00  0.00     0.091 C 
ENDROOT
BRANCH   1   7
ATOM      7  O   LIG d   1       1.400  89.685 115.672  0.00  0.00    -0.368 OA
BRANCH   7   8
ATOM      8  C   LIG d   1       1.767  88.318 115.366  0.00  0.00     0.119 C 
BRANCH   8   9
ATOM      9  C   LIG d   1       2.283  87.674 116.667  0.00  0.00     0.028 C 
ATOM     10  C   LIG d   1       2.544  86.167 116.513  0.00  0.00     0.006 C 
ENDBRANCH   8   9
BRANCH   8  11
ATOM     11  C   LIG d   1       2.947  88.263 114.391  0.00  0.00     0.028 C 
ATOM     12  C   LIG d   1       4.164  89.062 114.883  0.00  0.00     0.006 C 
ENDBRANCH   8  11
ENDBRANCH   7   8
ENDBRANCH   1   7
BRANCH   6  13
ATOM     13  N   LIG d   1       3.114  90.851 117.859  0.00  0.00    -0.311 N 
ATOM     14  C   LIG d   1       4.141  91.669 117.633  0.00  0.00     0.210 C 
ATOM     15  C   LIG d   1       5.516  91.094 117.988  0.00  0.00     0.109 C 
ATOM     16  O   LIG d   1       4.041  92.828 117.203  0.00  0.00    -0.276 OA
ATOM     17  H   LIG d   1       3.284  89.941 118.240  0.00  0.00     0.149 HD
ENDBRANCH   6  13
BRANCH   5  18
ATOM     18  N   LIG d   1       1.549  93.066 119.265  0.00  0.00     0.381 N 
ATOM     19  H   LIG d   1       1.611  93.066 120.263  0.00  0.00    -0.090 HD
ATOM     20  H   LIG d   1       0.942  93.817 118.987  0.00  0.00    -0.090 HD
ATOM     21  H   LIG d   1       2.454  93.197 118.869  0.00  0.00    -0.090 HD
ENDBRANCH   5  18
BRANCH   3  22
ATOM     22  C   LIG d   1      -2.483  90.783 118.054  0.00  0.00     0.382 C 
ATOM     23  O   LIG d   1      -3.119  91.625 118.732  0.00  0.00    -0.241 OA
ATOM     24  O   LIG d   1      -3.077  89.787 117.599  0.00  0.00    -0.241 OA
ENDBRANCH   3  22
TORSDOF 7
ENDMDL
MODEL 7
REMARK VINA RESULT:      -4.5      7.054      9.924
REMARK  7 active torsions:
REMARK  status: ('A' for Active; 'I' for Inactive)
REMARK    1  A    between atoms: C_2  and  C_3 
REMARK    2  A    between atoms: C_3  and  O_6 
REMARK    3  A    between atoms: C_3  and  C_4 
REMARK    4  A    between atoms: C_7  and  O_6 
REMARK    5  A    between atoms: C_9  and  C_10 
REMARK    6  A    between atoms: N_15  and  C_14 
REMARK    7  A    between atoms: N_20  and  C_19 
REMARK       I    between atoms: C_22  and  N_20 
ROOT
ATOM      1  C   LIG d   1       1.165  90.241 116.837  0.00  0.00     0.161 C 
ATOM      2  C   LIG d   1       2.530  90.571 116.799  0.00  0.00     0.016 C 
ATOM      3  C   LIG d   1       3.067  91.732 117.402  0.00  0.00     0.038 C 
ATOM      4  C   LIG d   1       2.292  92.570 118.217  0.00  0.00     0.028 C 
ATOM      5  C   LIG d   1       0.808  92.552 117.868  0.00  0.00    -0.047 C 
ATOM      6  C   LIG d   1       0.323  91.085 117.817  0.00  0.00     0.091 C 
ENDROOT
BRANCH   1   7
ATOM      7  O   LIG d   1       1.010  88.837 117.123  0.00  0.00    -0.368 OA
BRANCH   7   8
ATOM      8  C   LIG d   1       2.131  88.192 117.777  0.00  0.00     0.119 C 
BRANCH   8   9
ATOM      9  C   LIG d   1       2.337  86.824 117.099  0.00  0.00     0.028 C 
ATOM     10  C   LIG d   1       2.553  86.948 115.581  0.00  0.00     0.006 C 
ENDBRANCH   8   9
BRANCH   8  11
ATOM     11  C   LIG d   1       1.814  87.875 119.242  0.00  0.00     0.028 C 
ATOM     12  C   LIG d   1       2.269  88.984 120.203  0.00  0.00     0.006 C 
ENDBRANCH   8  11
ENDBRANCH   7   8
ENDBRANCH   1   7
BRANCH   6  13
ATOM     13  N   LIG d   1      -1.099  90.972 117.399  0.00  0.00    -0.311 N 
ATOM     14  C   LIG d   1      -2.114  90.927 118.260  0.00  0.00     0.210 C 
ATOM     15  C   LIG d   1      -3.499  90.790 117.619  0.00  0.00     0.109 C 
ATOM     16  O   LIG d   1      -2.002  91.018 119.491  0.00  0.00    -0.276 OA
ATOM     17  H   LIG d   1      -1.283  90.924 116.416  0.00  0.00     0.149 HD
ENDBRANCH   6  13
BRANCH   5  18
ATOM     18  N   LIG d   1       0.102  93.359 118.881  0.00  0.00     0.381 N 
ATOM     19  H   LIG d   1       0.353  93.047 119.798  0.00  0.00    -0.090 HD
ATOM     20  H   LIG d   1      -0.888  93.233 118.765  0.00  0.00    -0.090 HD
ATOM     21  H   LIG d   1       0.337  94.321 118.774  0.00  0.00    -0.090 HD
ENDBRANCH   5  18
BRANCH   3  22
ATOM     22  C   LIG d   1       4.385  92.087 117.157  0.00  0.00     0.382 C 
ATOM     23  O   LIG d   1       4.779  93.251 117.411  0.00  0.00    -0.241 OA
ATOM     24  O   LIG d   1       5.174  91.270 116.644  0.00  0.00    -0.241 OA
ENDBRANCH   3  22
TORSDOF 7
ENDMDL
MODEL 8
REMARK VINA RESULT:      -4.4      1.978      2.474
REMARK  7 active torsions:
REMARK  status: ('A' for Active; 'I' for Inactive)
REMARK    1  A    between atoms: C_2  and  C_3 
REMARK    2  A    between atoms: C_3  and  O_6 
REMARK    3  A    between atoms: C_3  and  C_4 
REMARK    4  A    between atoms: C_7  and  O_6 
REMARK    5  A    between atoms: C_9  and  C_10 
REMARK    6  A    between atoms: N_15  and  C_14 
REMARK    7  A    between atoms: N_20  and  C_19 
REMARK       I    between atoms: C_22  and  N_20 
ROOT
ATOM      1  C   LIG d   1      -4.701  93.679 118.587  0.00  0.00     0.161 C 
ATOM      2  C   LIG d   1      -5.781  93.436 117.723  0.00  0.00     0.016 C 
ATOM      3  C   LIG d   1      -5.860  92.309 116.873  0.00  0.00     0.038 C 
ATOM      4  C   LIG d   1      -4.928  91.262 116.942  0.00  0.00     0.028 C 
ATOM      5  C   LIG d   1      -3.556  91.705 117.438  0.00  0.00    -0.047 C 
ATOM      6  C   LIG d   1      -3.729  92.492 118.757  0.00  0.00     0.091 C 
ENDROOT
BRANCH   1   7
ATOM      7  O   LIG d   1      -5.191  94.113 119.872  0.00  0.00    -0.368 OA
BRANCH   7   8
ATOM      8  C   LIG d   1      -6.379  94.942 119.854  0.00  0.00     0.119 C 
BRANCH   8   9
ATOM      9  C   LIG d   1      -5.953  96.370 120.247  0.00  0.00     0.028 C 
ATOM     10  C   LIG d   1      -6.399  97.420 119.215  0.00  0.00     0.006 C 
ENDBRANCH   8   9
BRANCH   8  11
ATOM     11  C   LIG d   1      -7.378  94.506 120.929  0.00  0.00     0.028 C 
ATOM     12  C   LIG d   1      -8.836  94.799 120.541  0.00  0.00     0.006 C 
ENDBRANCH   8  11
ENDBRANCH   7   8
ENDBRANCH   1   7
BRANCH   6  13
ATOM     13  N   LIG d   1      -2.442  93.034 119.266  0.00  0.00    -0.311 N 
ATOM     14  C   LIG d   1      -1.685  92.404 120.162  0.00  0.00     0.210 C 
ATOM     15  C   LIG d   1      -0.408  93.147 120.567  0.00  0.00     0.109 C 
ATOM     16  O   LIG d   1      -1.933  91.285 120.637  0.00  0.00    -0.276 OA
ATOM     17  H   LIG d   1      -2.149  93.923 118.911  0.00  0.00     0.149 HD
ENDBRANCH   6  13
BRANCH   5  18
ATOM     18  N   LIG d   1      -2.726  90.495 117.592  0.00  0.00     0.381 N 
ATOM     19  H   LIG d   1      -3.060  89.951 118.363  0.00  0.00    -0.090 HD
ATOM     20  H   LIG d   1      -1.780  90.772 117.787  0.00  0.00    -0.090 HD
ATOM     21  H   LIG d   1      -2.756  89.953 116.757  0.00  0.00    -0.090 HD
ENDBRANCH   5  18
BRANCH   3  22
ATOM     22  C   LIG d   1      -6.859  92.239 115.914  0.00  0.00     0.382 C 
ATOM     23  O   LIG d   1      -7.049  93.205 115.136  0.00  0.00    -0.241 OA
ATOM     24  O   LIG d   1      -7.602  91.242 115.847  0.00  0.00    -0.241 OA
ENDBRANCH   3  22
TORSDOF 7
ENDMDL
MODEL 9
REMARK VINA RESULT:      -4.4      2.365      5.194
REMARK  7 active torsions:
REMARK  status: ('A' for Active; 'I' for Inactive)
REMARK    1  A    between atoms: C_2  and  C_3 
REMARK    2  A    between atoms: C_3  and  O_6 
REMARK    3  A    between atoms: C_3  and  C_4 
REMARK    4  A    between atoms: C_7  and  O_6 
REMARK    5  A    between atoms: C_9  and  C_10 
REMARK    6  A    between atoms: N_15  and  C_14 
REMARK    7  A    between atoms: N_20  and  C_19 
REMARK       I    between atoms: C_22  and  N_20 
ROOT
ATOM      1  C   LIG d   1      -4.787  92.994 118.383  0.00  0.00     0.161 C 
ATOM      2  C   LIG d   1      -5.514  94.089 118.880  0.00  0.00     0.016 C 
ATOM      3  C   LIG d   1      -4.948  95.093 119.698  0.00  0.00     0.038 C 
ATOM      4  C   LIG d   1      -3.569  95.151 119.953  0.00  0.00     0.028 C 
ATOM      5  C   LIG d   1      -2.884  93.790 119.890  0.00  0.00    -0.047 C 
ATOM      6  C   LIG d   1      -3.258  93.100 118.559  0.00  0.00     0.091 C 
ENDROOT
BRANCH   1   7
ATOM      7  O   LIG d   1      -5.119  92.775 116.998  0.00  0.00    -0.368 OA
BRANCH   7   8
ATOM      8  C   LIG d   1      -6.468  92.321 116.729  0.00  0.00     0.119 C 
BRANCH   8   9
ATOM      9  C   LIG d   1      -6.367  91.067 115.841  0.00  0.00     0.028 C 
ATOM     10  C   LIG d   1      -6.944  91.295 114.434  0.00  0.00     0.006 C 
ENDBRANCH   8   9
BRANCH   8  11
ATOM     11  C   LIG d   1      -7.245  93.346 115.897  0.00  0.00     0.028 C 
ATOM     12  C   LIG d   1      -8.045  94.333 116.762  0.00  0.00     0.006 C 
ENDBRANCH   8  11
ENDBRANCH   7   8
ENDBRANCH   1   7
BRANCH   6  13
ATOM     13  N   LIG d   1      -2.697  91.728 118.454  0.00  0.00    -0.311 N 
ATOM     14  C   LIG d   1      -1.486  91.467 117.963  0.00  0.00     0.210 C 
ATOM     15  C   LIG d   1      -1.111  89.982 117.926  0.00  0.00     0.109 C 
ATOM     16  O   LIG d   1      -0.676  92.326 117.585  0.00  0.00    -0.276 OA
ATOM     17  H   LIG d   1      -3.275  90.973 118.767  0.00  0.00     0.149 HD
ENDBRANCH   6  13
BRANCH   5  18
ATOM     18  N   LIG d   1      -1.433  94.015 120.037  0.00  0.00     0.381 N 
ATOM     19  H   LIG d   1      -1.214  94.967 119.822  0.00  0.00    -0.090 HD
ATOM     20  H   LIG d   1      -0.945  93.424 119.387  0.00  0.00    -0.090 HD
ATOM     21  H   LIG d   1      -1.148  93.803 120.968  0.00  0.00    -0.090 HD
ENDBRANCH   5  18
BRANCH   3  22
ATOM     22  C   LIG d   1      -5.770  96.030 120.304  0.00  0.00     0.382 C 
ATOM     23  O   LIG d   1      -7.015  95.941 120.187  0.00  0.00    -0.241 OA
ATOM     24  O   LIG d   1      -5.279  96.990 120.930  0.00  0.00    -0.241 OA
ENDBRANCH   3  22
TORSDOF 7
ENDMDL
