MODEL 1
REMARK VINA RESULT:      -5.5      0.000      0.000
REMARK  7 active torsions:
REMARK  status: ('A' for Active; 'I' for Inactive)
REMARK    1  A    between atoms: C_2  and  C_3 
REMARK    2  A    between atoms: C_3  and  O_6 
REMARK    3  A    between atoms: C_3  and  C_4 
REMARK    4  A    between atoms: C_7  and  O_6 
REMARK    5  A    between atoms: C_9  and  C_10 
REMARK    6  A    between atoms: N_15  and  C_14 
REMARK    7  A    between atoms: N_20  and  C_19 
REMARK       I    between atoms: C_22  and  N_20 
ROOT
ATOM      1  C   LIG d   1      -3.609  90.301 117.222  0.00  0.00     0.161 C 
ATOM      2  C   LIG d   1      -3.405  89.224 116.343  0.00  0.00     0.016 C 
ATOM      3  C   LIG d   1      -4.350  88.823 115.371  0.00  0.00     0.038 C 
ATOM      4  C   LIG d   1      -5.507  89.572 115.108  0.00  0.00     0.028 C 
ATOM      5  C   LIG d   1      -5.995  90.375 116.309  0.00  0.00    -0.047 C 
ATOM      6  C   LIG d   1      -4.816  91.198 116.875  0.00  0.00     0.091 C 
ENDROOT
BRANCH   1   7
ATOM      7  O   LIG d   1      -2.407  91.091 117.313  0.00  0.00    -0.368 OA
BRANCH   7   8
ATOM      8  C   LIG d   1      -1.696  91.026 118.573  0.00  0.00     0.119 C 
BRANCH   8   9
ATOM      9  C   LIG d   1      -1.649  92.452 119.154  0.00  0.00     0.028 C 
ATOM     10  C   LIG d   1      -1.904  93.529 118.086  0.00  0.00     0.006 C 
ENDBRANCH   8   9
BRANCH   8  11
ATOM     11  C   LIG d   1      -0.232  90.623 118.367  0.00  0.00     0.028 C 
ATOM     12  C   LIG d   1       0.169  90.576 116.884  0.00  0.00     0.006 C 
ENDBRANCH   8  11
ENDBRANCH   7   8
ENDBRANCH   1   7
BRANCH   6  13
ATOM     13  N   LIG d   1      -5.187  91.948 118.104  0.00  0.00    -0.311 N 
ATOM     14  C   LIG d   1      -5.840  93.108 118.086  0.00  0.00     0.210 C 
ATOM     15  C   LIG d   1      -6.105  93.723 119.464  0.00  0.00     0.109 C 
ATOM     16  O   LIG d   1      -6.254  93.671 117.061  0.00  0.00    -0.276 OA
ATOM     17  H   LIG d   1      -4.917  91.547 118.981  0.00  0.00     0.149 HD
ENDBRANCH   6  13
BRANCH   5  18
ATOM     18  N   LIG d   1      -7.122  91.212 115.858  0.00  0.00     0.381 N 
ATOM     19  H   LIG d   1      -6.863  91.711 115.030  0.00  0.00    -0.090 HD
ATOM     20  H   LIG d   1      -7.337  91.883 116.575  0.00  0.00    -0.090 HD
ATOM     21  H   LIG d   1      -7.919  90.643 115.676  0.00  0.00    -0.090 HD
ENDBRANCH   5  18
BRANCH   3  22
ATOM     22  C   LIG d   1      -4.161  87.638 114.676  0.00  0.00     0.382 C 
ATOM     23  O   LIG d   1      -4.303  87.612 113.430  0.00  0.00    -0.241 OA
ATOM     24  O   LIG d   1      -3.894  86.585 115.285  0.00  0.00    -0.241 OA
ENDBRANCH   3  22
TORSDOF 7
ENDMDL
MODEL 2
REMARK VINA RESULT:      -5.5      2.708      6.370
REMARK  7 active torsions:
REMARK  status: ('A' for Active; 'I' for Inactive)
REMARK    1  A    between atoms: C_2  and  C_3 
REMARK    2  A    between atoms: C_3  and  O_6 
REMARK    3  A    between atoms: C_3  and  C_4 
REMARK    4  A    between atoms: C_7  and  O_6 
REMARK    5  A    between atoms: C_9  and  C_10 
REMARK    6  A    between atoms: N_15  and  C_14 
REMARK    7  A    between atoms: N_20  and  C_19 
REMARK       I    between atoms: C_22  and  N_20 
ROOT
ATOM      1  C   LIG d   1      -5.017  92.985 118.086  0.00  0.00     0.161 C 
ATOM      2  C   LIG d   1      -6.184  93.766 118.053  0.00  0.00     0.016 C 
ATOM      3  C   LIG d   1      -6.315  94.998 118.735  0.00  0.00     0.038 C 
ATOM      4  C   LIG d   1      -5.228  95.609 119.377  0.00  0.00     0.028 C 
ATOM      5  C   LIG d   1      -4.175  94.618 119.861  0.00  0.00    -0.047 C 
ATOM      6  C   LIG d   1      -3.784  93.689 118.689  0.00  0.00     0.091 C 
ENDROOT
BRANCH   1   7
ATOM      7  O   LIG d   1      -4.719  92.498 116.762  0.00  0.00    -0.368 OA
BRANCH   7   8
ATOM      8  C   LIG d   1      -4.920  91.080 116.545  0.00  0.00     0.119 C 
BRANCH   8   9
ATOM      9  C   LIG d   1      -3.543  90.457 116.245  0.00  0.00     0.028 C 
ATOM     10  C   LIG d   1      -3.477  88.968 116.623  0.00  0.00     0.006 C 
ENDBRANCH   8   9
BRANCH   8  11
ATOM     11  C   LIG d   1      -5.763  90.822 115.292  0.00  0.00     0.028 C 
ATOM     12  C   LIG d   1      -6.254  92.118 114.628  0.00  0.00     0.006 C 
ENDBRANCH   8  11
ENDBRANCH   7   8
ENDBRANCH   1   7
BRANCH   6  13
ATOM     13  N   LIG d   1      -2.820  92.635 119.098  0.00  0.00    -0.311 N 
ATOM     14  C   LIG d   1      -1.627  92.471 118.529  0.00  0.00     0.210 C 
ATOM     15  C   LIG d   1      -0.797  91.311 119.089  0.00  0.00     0.109 C 
ATOM     16  O   LIG d   1      -1.164  93.196 117.636  0.00  0.00    -0.276 OA
ATOM     17  H   LIG d   1      -3.101  92.021 119.838  0.00  0.00     0.149 HD
ENDBRANCH   6  13
BRANCH   5  18
ATOM     18  N   LIG d   1      -3.037  95.397 120.385  0.00  0.00     0.381 N 
ATOM     19  H   LIG d   1      -3.369  96.096 121.020  0.00  0.00    -0.090 HD
ATOM     20  H   LIG d   1      -2.579  95.859 119.619  0.00  0.00    -0.090 HD
ATOM     21  H   LIG d   1      -2.395  94.793 120.850  0.00  0.00    -0.090 HD
ENDBRANCH   5  18
BRANCH   3  22
ATOM     22  C   LIG d   1      -7.556  95.612 118.813  0.00  0.00     0.382 C 
ATOM     23  O   LIG d   1      -7.655  96.766 119.295  0.00  0.00    -0.241 OA
ATOM     24  O   LIG d   1      -8.583  95.009 118.449  0.00  0.00    -0.241 OA
ENDBRANCH   3  22
TORSDOF 7
ENDMDL
MODEL 3
REMARK VINA RESULT:      -5.4      2.391      4.532
REMARK  7 active torsions:
REMARK  status: ('A' for Active; 'I' for Inactive)
REMARK    1  A    between atoms: C_2  and  C_3 
REMARK    2  A    between atoms: C_3  and  O_6 
REMARK    3  A    between atoms: C_3  and  C_4 
REMARK    4  A    between atoms: C_7  and  O_6 
REMARK    5  A    between atoms: C_9  and  C_10 
REMARK    6  A    between atoms: N_15  and  C_14 
REMARK    7  A    between atoms: N_20  and  C_19 
REMARK       I    between atoms: C_22  and  N_20 
ROOT
ATOM      1  C   LIG d   1      -4.167  92.458 117.017  0.00  0.00     0.161 C 
ATOM      2  C   LIG d   1      -5.361  91.815 116.650  0.00  0.00     0.016 C 
ATOM      3  C   LIG d   1      -5.434  90.444 116.309  0.00  0.00     0.038 C 
ATOM      4  C   LIG d   1      -4.336  89.584 116.459  0.00  0.00     0.028 C 
ATOM      5  C   LIG d   1      -2.991  90.292 116.343  0.00  0.00    -0.047 C 
ATOM      6  C   LIG d   1      -2.981  91.510 117.294  0.00  0.00     0.091 C 
ENDROOT
BRANCH   1   7
ATOM      7  O   LIG d   1      -4.402  93.312 118.154  0.00  0.00    -0.368 OA
BRANCH   7   8
ATOM      8  C   LIG d   1      -5.775  93.406 118.608  0.00  0.00     0.119 C 
BRANCH   8   9
ATOM      9  C   LIG d   1      -6.223  94.869 118.426  0.00  0.00     0.028 C 
ATOM     10  C   LIG d   1      -7.656  95.111 118.928  0.00  0.00     0.006 C 
ENDBRANCH   8   9
BRANCH   8  11
ATOM     11  C   LIG d   1      -5.885  93.132 120.110  0.00  0.00     0.028 C 
ATOM     12  C   LIG d   1      -4.944  92.013 120.583  0.00  0.00     0.006 C 
ENDBRANCH   8  11
ENDBRANCH   7   8
ENDBRANCH   1   7
BRANCH   6  13
ATOM     13  N   LIG d   1      -1.732  92.308 117.180  0.00  0.00    -0.311 N 
ATOM     14  C   LIG d   1      -0.916  92.542 118.206  0.00  0.00     0.210 C 
ATOM     15  C   LIG d   1       0.306  93.405 117.877  0.00  0.00     0.109 C 
ATOM     16  O   LIG d   1      -1.070  92.089 119.351  0.00  0.00    -0.276 OA
ATOM     17  H   LIG d   1      -1.513  92.687 116.280  0.00  0.00     0.149 HD
ENDBRANCH   6  13
BRANCH   5  18
ATOM     18  N   LIG d   1      -1.939  89.306 116.656  0.00  0.00     0.381 N 
ATOM     19  H   LIG d   1      -1.302  89.235 115.888  0.00  0.00    -0.090 HD
ATOM     20  H   LIG d   1      -2.367  88.407 116.794  0.00  0.00    -0.090 HD
ATOM     21  H   LIG d   1      -1.450  89.579 117.479  0.00  0.00    -0.090 HD
ENDBRANCH   5  18
BRANCH   3  22
ATOM     22  C   LIG d   1      -6.605  89.931 115.773  0.00  0.00     0.382 C 
ATOM     23  O   LIG d   1      -7.483  90.707 115.326  0.00  0.00    -0.241 OA
ATOM     24  O   LIG d   1      -6.814  88.703 115.773  0.00  0.00    -0.241 OA
ENDBRANCH   3  22
TORSDOF 7
ENDMDL
MODEL 4
REMARK VINA RESULT:      -5.3      2.314      4.384
REMARK  7 active torsions:
REMARK  status: ('A' for Active; 'I' for Inactive)
REMARK    1  A    between atoms: C_2  and  C_3 
REMARK    2  A    between atoms: C_3  and  O_6 
REMARK    3  A    between atoms: C_3  and  C_4 
REMARK    4  A    between atoms: C_7  and  O_6 
REMARK    5  A    between atoms: C_9  and  C_10 
REMARK    6  A    between atoms: N_15  and  C_14 
REMARK    7  A    between atoms: N_20  and  C_19 
REMARK       I    between atoms: C_22  and  N_20 
ROOT
ATOM      1  C   LIG d   1      -2.920  90.821 117.100  0.00  0.00     0.161 C 
ATOM      2  C   LIG d   1      -3.975  91.699 116.801  0.00  0.00     0.016 C 
ATOM      3  C   LIG d   1      -5.062  91.353 115.966  0.00  0.00     0.038 C 
ATOM      4  C   LIG d   1      -5.246  90.046 115.492  0.00  0.00     0.028 C 
ATOM      5  C   LIG d   1      -3.945  89.263 115.353  0.00  0.00    -0.047 C 
ATOM      6  C   LIG d   1      -3.160  89.355 116.682  0.00  0.00     0.091 C 
ENDROOT
BRANCH   1   7
ATOM      7  O   LIG d   1      -2.605  90.895 118.505  0.00  0.00    -0.368 OA
BRANCH   7   8
ATOM      8  C   LIG d   1      -1.373  91.578 118.846  0.00  0.00     0.119 C 
BRANCH   8   9
ATOM      9  C   LIG d   1      -1.747  92.994 119.326  0.00  0.00     0.028 C 
ATOM     10  C   LIG d   1      -1.448  94.070 118.269  0.00  0.00     0.006 C 
ENDBRANCH   8   9
BRANCH   8  11
ATOM     11  C   LIG d   1      -0.492  91.788 117.611  0.00  0.00     0.028 C 
ATOM     12  C   LIG d   1       0.792  90.943 117.645  0.00  0.00     0.006 C 
ENDBRANCH   8  11
ENDBRANCH   7   8
ENDBRANCH   1   7
BRANCH   6  13
ATOM     13  N   LIG d   1      -1.835  88.686 116.604  0.00  0.00    -0.311 N 
ATOM     14  C   LIG d   1      -1.623  87.432 117.000  0.00  0.00     0.210 C 
ATOM     15  C   LIG d   1      -0.178  86.944 116.853  0.00  0.00     0.109 C 
ATOM     16  O   LIG d   1      -2.500  86.668 117.429  0.00  0.00    -0.276 OA
ATOM     17  H   LIG d   1      -1.073  89.224 116.240  0.00  0.00     0.149 HD
ENDBRANCH   6  13
BRANCH   5  18
ATOM     18  N   LIG d   1      -4.295  87.879 114.983  0.00  0.00     0.381 N 
ATOM     19  H   LIG d   1      -3.485  87.296 115.047  0.00  0.00    -0.090 HD
ATOM     20  H   LIG d   1      -4.617  87.868 114.031  0.00  0.00    -0.090 HD
ATOM     21  H   LIG d   1      -5.009  87.535 115.587  0.00  0.00    -0.090 HD
ENDBRANCH   5  18
BRANCH   3  22
ATOM     22  C   LIG d   1      -5.959  92.332 115.565  0.00  0.00     0.382 C 
ATOM     23  O   LIG d   1      -6.104  92.587 114.346  0.00  0.00    -0.241 OA
ATOM     24  O   LIG d   1      -6.592  92.993 116.410  0.00  0.00    -0.241 OA
ENDBRANCH   3  22
TORSDOF 7
ENDMDL
MODEL 5
REMARK VINA RESULT:      -5.1      2.071      5.057
REMARK  7 active torsions:
REMARK  status: ('A' for Active; 'I' for Inactive)
REMARK    1  A    between atoms: C_2  and  C_3 
REMARK    2  A    between atoms: C_3  and  O_6 
REMARK    3  A    between atoms: C_3  and  C_4 
REMARK    4  A    between atoms: C_7  and  O_6 
REMARK    5  A    between atoms: C_9  and  C_10 
REMARK    6  A    between atoms: N_15  and  C_14 
REMARK    7  A    between atoms: N_20  and  C_19 
REMARK       I    between atoms: C_22  and  N_20 
ROOT
ATOM      1  C   LIG d   1      -2.853  90.922 117.174  0.00  0.00     0.161 C 
ATOM      2  C   LIG d   1      -2.713  92.019 118.040  0.00  0.00     0.016 C 
ATOM      3  C   LIG d   1      -3.736  92.969 118.263  0.00  0.00     0.038 C 
ATOM      4  C   LIG d   1      -5.030  92.801 117.748  0.00  0.00     0.028 C 
ATOM      5  C   LIG d   1      -5.069  91.979 116.464  0.00  0.00    -0.047 C 
ATOM      6  C   LIG d   1      -4.294  90.660 116.689  0.00  0.00     0.091 C 
ENDROOT
BRANCH   1   7
ATOM      7  O   LIG d   1      -2.310  89.739 117.792  0.00  0.00    -0.368 OA
BRANCH   7   8
ATOM      8  C   LIG d   1      -1.306  89.025 117.030  0.00  0.00     0.119 C 
BRANCH   8   9
ATOM      9  C   LIG d   1      -1.375  87.543 117.447  0.00  0.00     0.028 C 
ATOM     10  C   LIG d   1      -2.238  86.703 116.490  0.00  0.00     0.006 C 
ENDBRANCH   8   9
BRANCH   8  11
ATOM     11  C   LIG d   1       0.107  89.485 117.400  0.00  0.00     0.028 C 
ATOM     12  C   LIG d   1       0.800  90.254 116.264  0.00  0.00     0.006 C 
ENDBRANCH   8  11
ENDBRANCH   7   8
ENDBRANCH   1   7
BRANCH   6  13
ATOM     13  N   LIG d   1      -4.211  89.835 115.456  0.00  0.00    -0.311 N 
ATOM     14  C   LIG d   1      -5.049  88.835 115.185  0.00  0.00     0.210 C 
ATOM     15  C   LIG d   1      -4.775  88.100 113.870  0.00  0.00     0.109 C 
ATOM     16  O   LIG d   1      -6.013  88.508 115.894  0.00  0.00    -0.276 OA
ATOM     17  H   LIG d   1      -3.478  90.051 114.810  0.00  0.00     0.149 HD
ENDBRANCH   6  13
BRANCH   5  18
ATOM     18  N   LIG d   1      -6.485  91.766 116.114  0.00  0.00     0.381 N 
ATOM     19  H   LIG d   1      -7.072  92.145 116.830  0.00  0.00    -0.090 HD
ATOM     20  H   LIG d   1      -6.660  90.778 116.054  0.00  0.00    -0.090 HD
ATOM     21  H   LIG d   1      -6.690  92.200 115.241  0.00  0.00    -0.090 HD
ENDBRANCH   5  18
BRANCH   3  22
ATOM     22  C   LIG d   1      -3.457  94.124 118.978  0.00  0.00     0.382 C 
ATOM     23  O   LIG d   1      -4.365  94.692 119.632  0.00  0.00    -0.241 OA
ATOM     24  O   LIG d   1      -2.319  94.630 118.942  0.00  0.00    -0.241 OA
ENDBRANCH   3  22
TORSDOF 7
ENDMDL
MODEL 6
REMARK VINA RESULT:      -4.9      1.432      2.016
REMARK  7 active torsions:
REMARK  status: ('A' for Active; 'I' for Inactive)
REMARK    1  A    between atoms: C_2  and  C_3 
REMARK    2  A    between atoms: C_3  and  O_6 
REMARK    3  A    between atoms: C_3  and  C_4 
REMARK    4  A    between atoms: C_7  and  O_6 
REMARK    5  A    between atoms: C_9  and  C_10 
REMARK    6  A    between atoms: N_15  and  C_14 
REMARK    7  A    between atoms: N_20  and  C_19 
REMARK       I    between atoms: C_22  and  N_20 
ROOT
ATOM      1  C   LIG d   1      -3.254  90.133 117.347  0.00  0.00     0.161 C 
ATOM      2  C   LIG d   1      -3.318  89.055 116.448  0.00  0.00     0.016 C 
ATOM      3  C   LIG d   1      -4.352  88.897 115.497  0.00  0.00     0.038 C 
ATOM      4  C   LIG d   1      -5.317  89.891 115.278  0.00  0.00     0.028 C 
ATOM      5  C   LIG d   1      -5.583  90.757 116.504  0.00  0.00    -0.047 C 
ATOM      6  C   LIG d   1      -4.236  91.284 117.048  0.00  0.00     0.091 C 
ENDROOT
BRANCH   1   7
ATOM      7  O   LIG d   1      -1.903  90.631 117.416  0.00  0.00    -0.368 OA
BRANCH   7   8
ATOM      8  C   LIG d   1      -0.868  89.641 117.633  0.00  0.00     0.119 C 
BRANCH   8   9
ATOM      9  C   LIG d   1      -0.849  89.312 119.138  0.00  0.00     0.028 C 
ATOM     10  C   LIG d   1      -0.246  87.928 119.429  0.00  0.00     0.006 C 
ENDBRANCH   8   9
BRANCH   8  11
ATOM     11  C   LIG d   1       0.520  90.209 117.324  0.00  0.00     0.028 C 
ATOM     12  C   LIG d   1       1.062  89.749 115.961  0.00  0.00     0.006 C 
ENDBRANCH   8  11
ENDBRANCH   7   8
ENDBRANCH   1   7
BRANCH   6  13
ATOM     13  N   LIG d   1      -4.399  92.072 118.298  0.00  0.00    -0.311 N 
ATOM     14  C   LIG d   1      -3.622  93.105 118.620  0.00  0.00     0.210 C 
ATOM     15  C   LIG d   1      -3.949  93.766 119.963  0.00  0.00     0.109 C 
ATOM     16  O   LIG d   1      -2.715  93.557 117.906  0.00  0.00    -0.276 OA
ATOM     17  H   LIG d   1      -5.132  91.793 118.921  0.00  0.00     0.149 HD
ENDBRANCH   6  13
BRANCH   5  18
ATOM     18  N   LIG d   1      -6.504  91.835 116.097  0.00  0.00     0.381 N 
ATOM     19  H   LIG d   1      -6.009  92.518 115.558  0.00  0.00    -0.090 HD
ATOM     20  H   LIG d   1      -6.863  92.285 116.920  0.00  0.00    -0.090 HD
ATOM     21  H   LIG d   1      -7.254  91.459 115.561  0.00  0.00    -0.090 HD
ENDBRANCH   5  18
BRANCH   3  22
ATOM     22  C   LIG d   1      -4.450  87.714 114.780  0.00  0.00     0.382 C 
ATOM     23  O   LIG d   1      -5.052  87.696 113.679  0.00  0.00    -0.241 OA
ATOM     24  O   LIG d   1      -3.984  86.655 115.241  0.00  0.00    -0.241 OA
ENDBRANCH   3  22
TORSDOF 7
ENDMDL
MODEL 7
REMARK VINA RESULT:      -4.9      1.281      1.974
REMARK  7 active torsions:
REMARK  status: ('A' for Active; 'I' for Inactive)
REMARK    1  A    between atoms: C_2  and  C_3 
REMARK    2  A    between atoms: C_3  and  O_6 
REMARK    3  A    between atoms: C_3  and  C_4 
REMARK    4  A    between atoms: C_7  and  O_6 
REMARK    5  A    between atoms: C_9  and  C_10 
REMARK    6  A    between atoms: N_15  and  C_14 
REMARK    7  A    between atoms: N_20  and  C_19 
REMARK       I    between atoms: C_22  and  N_20 
ROOT
ATOM      1  C   LIG d   1      -3.101  90.341 117.250  0.00  0.00     0.161 C 
ATOM      2  C   LIG d   1      -2.609  89.084 116.859  0.00  0.00     0.016 C 
ATOM      3  C   LIG d   1      -3.377  88.136 116.145  0.00  0.00     0.038 C 
ATOM      4  C   LIG d   1      -4.649  88.441 115.639  0.00  0.00     0.028 C 
ATOM      5  C   LIG d   1      -5.379  89.512 116.443  0.00  0.00    -0.047 C 
ATOM      6  C   LIG d   1      -4.449  90.735 116.611  0.00  0.00     0.091 C 
ENDROOT
BRANCH   1   7
ATOM      7  O   LIG d   1      -2.109  91.355 116.995  0.00  0.00    -0.368 OA
BRANCH   7   8
ATOM      8  C   LIG d   1      -1.385  91.844 118.150  0.00  0.00     0.119 C 
BRANCH   8   9
ATOM      9  C   LIG d   1      -2.187  91.443 119.403  0.00  0.00     0.028 C 
ATOM     10  C   LIG d   1      -1.311  90.767 120.470  0.00  0.00     0.006 C 
ENDBRANCH   8   9
BRANCH   8  11
ATOM     11  C   LIG d   1      -1.337  93.375 118.171  0.00  0.00     0.028 C 
ATOM     12  C   LIG d   1      -2.539  93.998 118.898  0.00  0.00     0.006 C 
ENDBRANCH   8  11
ENDBRANCH   7   8
ENDBRANCH   1   7
BRANCH   6  13
ATOM     13  N   LIG d   1      -5.054  91.796 117.457  0.00  0.00    -0.311 N 
ATOM     14  C   LIG d   1      -5.811  92.778 116.971  0.00  0.00     0.210 C 
ATOM     15  C   LIG d   1      -6.320  93.779 118.013  0.00  0.00     0.109 C 
ATOM     16  O   LIG d   1      -6.137  92.897 115.780  0.00  0.00    -0.276 OA
ATOM     17  H   LIG d   1      -4.868  91.758 118.440  0.00  0.00     0.149 HD
ENDBRANCH   6  13
BRANCH   5  18
ATOM     18  N   LIG d   1      -6.629  89.831 115.727  0.00  0.00     0.381 N 
ATOM     19  H   LIG d   1      -6.732  89.225 114.938  0.00  0.00    -0.090 HD
ATOM     20  H   LIG d   1      -6.581  90.777 115.394  0.00  0.00    -0.090 HD
ATOM     21  H   LIG d   1      -7.408  89.726 116.339  0.00  0.00    -0.090 HD
ENDBRANCH   5  18
BRANCH   3  22
ATOM     22  C   LIG d   1      -2.887  86.851 115.966  0.00  0.00     0.382 C 
ATOM     23  O   LIG d   1      -2.846  86.351 114.816  0.00  0.00    -0.241 OA
ATOM     24  O   LIG d   1      -2.528  86.169 116.945  0.00  0.00    -0.241 OA
ENDBRANCH   3  22
TORSDOF 7
ENDMDL
MODEL 8
REMARK VINA RESULT:      -4.8      2.547      5.184
REMARK  7 active torsions:
REMARK  status: ('A' for Active; 'I' for Inactive)
REMARK    1  A    between atoms: C_2  and  C_3 
REMARK    2  A    between atoms: C_3  and  O_6 
REMARK    3  A    between atoms: C_3  and  C_4 
REMARK    4  A    between atoms: C_7  and  O_6 
REMARK    5  A    between atoms: C_9  and  C_10 
REMARK    6  A    between atoms: N_15  and  C_14 
REMARK    7  A    between atoms: N_20  and  C_19 
REMARK       I    between atoms: C_22  and  N_20 
ROOT
ATOM      1  C   LIG d   1      -3.977  92.856 117.539  0.00  0.00     0.161 C 
ATOM      2  C   LIG d   1      -2.680  92.317 117.512  0.00  0.00     0.016 C 
ATOM      3  C   LIG d   1      -1.688  92.629 118.470  0.00  0.00     0.038 C 
ATOM      4  C   LIG d   1      -1.975  93.388 119.614  0.00  0.00     0.028 C 
ATOM      5  C   LIG d   1      -3.130  94.365 119.419  0.00  0.00    -0.047 C 
ATOM      6  C   LIG d   1      -4.342  93.599 118.841  0.00  0.00     0.091 C 
ENDROOT
BRANCH   1   7
ATOM      7  O   LIG d   1      -4.942  91.821 117.265  0.00  0.00    -0.368 OA
BRANCH   7   8
ATOM      8  C   LIG d   1      -4.811  91.148 115.989  0.00  0.00     0.119 C 
BRANCH   8   9
ATOM      9  C   LIG d   1      -5.799  91.815 115.011  0.00  0.00     0.028 C 
ATOM     10  C   LIG d   1      -6.967  90.888 114.635  0.00  0.00     0.006 C 
ENDBRANCH   8   9
BRANCH   8  11
ATOM     11  C   LIG d   1      -5.256  89.686 116.081  0.00  0.00     0.028 C 
ATOM     12  C   LIG d   1      -4.082  88.699 115.987  0.00  0.00     0.006 C 
ENDBRANCH   8  11
ENDBRANCH   7   8
ENDBRANCH   1   7
BRANCH   6  13
ATOM     13  N   LIG d   1      -5.489  94.496 118.540  0.00  0.00    -0.311 N 
ATOM     14  C   LIG d   1      -6.701  94.339 119.070  0.00  0.00     0.210 C 
ATOM     15  C   LIG d   1      -7.744  95.363 118.611  0.00  0.00     0.109 C 
ATOM     16  O   LIG d   1      -7.003  93.469 119.900  0.00  0.00    -0.276 OA
ATOM     17  H   LIG d   1      -5.324  95.248 117.900  0.00  0.00     0.149 HD
ENDBRANCH   6  13
BRANCH   5  18
ATOM     18  N   LIG d   1      -3.411  94.990 120.725  0.00  0.00     0.381 N 
ATOM     19  H   LIG d   1      -3.559  95.972 120.606  0.00  0.00    -0.090 HD
ATOM     20  H   LIG d   1      -2.615  94.862 121.325  0.00  0.00    -0.090 HD
ATOM     21  H   LIG d   1      -4.217  94.573 121.137  0.00  0.00    -0.090 HD
ENDBRANCH   5  18
BRANCH   3  22
ATOM     22  C   LIG d   1      -0.382  92.211 118.268  0.00  0.00     0.382 C 
ATOM     23  O   LIG d   1      -0.084  91.564 117.235  0.00  0.00    -0.241 OA
ATOM     24  O   LIG d   1       0.493  92.434 119.126  0.00  0.00    -0.241 OA
ENDBRANCH   3  22
TORSDOF 7
ENDMDL
MODEL 9
REMARK VINA RESULT:      -4.8      2.877      4.669
REMARK  7 active torsions:
REMARK  status: ('A' for Active; 'I' for Inactive)
REMARK    1  A    between atoms: C_2  and  C_3 
REMARK    2  A    between atoms: C_3  and  O_6 
REMARK    3  A    between atoms: C_3  and  C_4 
REMARK    4  A    between atoms: C_7  and  O_6 
REMARK    5  A    between atoms: C_9  and  C_10 
REMARK    6  A    between atoms: N_15  and  C_14 
REMARK    7  A    between atoms: N_20  and  C_19 
REMARK       I    between atoms: C_22  and  N_20 
ROOT
ATOM      1  C   LIG d   1      -4.468  92.481 118.423  0.00  0.00     0.161 C 
ATOM      2  C   LIG d   1      -5.457  92.418 117.428  0.00  0.00     0.016 C 
ATOM      3  C   LIG d   1      -5.317  91.669 116.237  0.00  0.00     0.038 C 
ATOM      4  C   LIG d   1      -4.232  90.805 116.028  0.00  0.00     0.028 C 
ATOM      5  C   LIG d   1      -2.971  91.224 116.776  0.00  0.00    -0.047 C 
ATOM      6  C   LIG d   1      -3.324  91.457 118.263  0.00  0.00     0.091 C 
ENDROOT
BRANCH   1   7
ATOM      7  O   LIG d   1      -5.075  92.356 119.724  0.00  0.00    -0.368 OA
BRANCH   7   8
ATOM      8  C   LIG d   1      -5.112  93.560 120.528  0.00  0.00     0.119 C 
BRANCH   8   9
ATOM      9  C   LIG d   1      -6.584  93.819 120.905  0.00  0.00     0.028 C 
ATOM     10  C   LIG d   1      -7.343  94.589 119.811  0.00  0.00     0.006 C 
ENDBRANCH   8   9
BRANCH   8  11
ATOM     11  C   LIG d   1      -4.680  94.786 119.717  0.00  0.00     0.028 C 
ATOM     12  C   LIG d   1      -3.571  95.595 120.407  0.00  0.00     0.006 C 
ENDBRANCH   8  11
ENDBRANCH   7   8
ENDBRANCH   1   7
BRANCH   6  13
ATOM     13  N   LIG d   1      -2.165  91.951 119.051  0.00  0.00    -0.311 N 
ATOM     14  C   LIG d   1      -1.494  93.061 118.749  0.00  0.00     0.210 C 
ATOM     15  C   LIG d   1      -0.319  93.379 119.679  0.00  0.00     0.109 C 
ATOM     16  O   LIG d   1      -1.779  93.830 117.819  0.00  0.00    -0.276 OA
ATOM     17  H   LIG d   1      -1.885  91.405 119.841  0.00  0.00     0.149 HD
ENDBRANCH   6  13
BRANCH   5  18
ATOM     18  N   LIG d   1      -1.964  90.164 116.581  0.00  0.00     0.381 N 
ATOM     19  H   LIG d   1      -1.990  89.843 115.634  0.00  0.00    -0.090 HD
ATOM     20  H   LIG d   1      -2.184  89.391 117.183  0.00  0.00    -0.090 HD
ATOM     21  H   LIG d   1      -1.056  90.513 116.796  0.00  0.00    -0.090 HD
ENDBRANCH   5  18
BRANCH   3  22
ATOM     22  C   LIG d   1      -6.251  91.811 115.221  0.00  0.00     0.382 C 
ATOM     23  O   LIG d   1      -6.061  92.651 114.309  0.00  0.00    -0.241 OA
ATOM     24  O   LIG d   1      -7.301  91.142 115.231  0.00  0.00    -0.241 OA
ENDBRANCH   3  22
TORSDOF 7
ENDMDL
