MODEL 1
REMARK VINA RESULT:      -5.9      0.000      0.000
REMARK  7 active torsions:
REMARK  status: ('A' for Active; 'I' for Inactive)
REMARK    1  A    between atoms: C_2  and  C_3 
REMARK    2  A    between atoms: C_3  and  O_6 
REMARK    3  A    between atoms: C_3  and  C_4 
REMARK    4  A    between atoms: C_7  and  O_6 
REMARK    5  A    between atoms: C_9  and  C_10 
REMARK    6  A    between atoms: N_15  and  C_14 
REMARK    7  A    between atoms: N_20  and  C_19 
REMARK       I    between atoms: C_22  and  N_20 
ROOT
ATOM      1  C   LIG d   1      -5.108  91.809 117.743  0.00  0.00     0.161 C 
ATOM      2  C   LIG d   1      -5.543  91.082 116.623  0.00  0.00     0.016 C 
ATOM      3  C   LIG d   1      -6.427  91.604 115.651  0.00  0.00     0.038 C 
ATOM      4  C   LIG d   1      -6.821  92.950 115.654  0.00  0.00     0.028 C 
ATOM      5  C   LIG d   1      -6.811  93.581 117.042  0.00  0.00    -0.047 C 
ATOM      6  C   LIG d   1      -5.439  93.316 117.704  0.00  0.00     0.091 C 
ENDROOT
BRANCH   1   7
ATOM      7  O   LIG d   1      -3.694  91.612 117.936  0.00  0.00    -0.368 OA
BRANCH   7   8
ATOM      8  C   LIG d   1      -3.317  90.591 118.892  0.00  0.00     0.119 C 
BRANCH   8   9
ATOM      9  C   LIG d   1      -2.858  91.307 120.177  0.00  0.00     0.028 C 
ATOM     10  C   LIG d   1      -2.022  92.564 119.882  0.00  0.00     0.006 C 
ENDBRANCH   8   9
BRANCH   8  11
ATOM     11  C   LIG d   1      -2.096  89.800 118.411  0.00  0.00     0.028 C 
ATOM     12  C   LIG d   1      -2.391  88.303 118.228  0.00  0.00     0.006 C 
ENDBRANCH   8  11
ENDBRANCH   7   8
ENDBRANCH   1   7
BRANCH   6  13
ATOM     13  N   LIG d   1      -5.374  93.827 119.098  0.00  0.00    -0.311 N 
ATOM     14  C   LIG d   1      -4.852  95.009 119.422  0.00  0.00     0.210 C 
ATOM     15  C   LIG d   1      -4.866  95.334 120.919  0.00  0.00     0.109 C 
ATOM     16  O   LIG d   1      -4.408  95.833 118.608  0.00  0.00    -0.276 OA
ATOM     17  H   LIG d   1      -5.740  93.236 119.818  0.00  0.00     0.149 HD
ENDBRANCH   6  13
BRANCH   5  18
ATOM     18  N   LIG d   1      -7.107  95.017 116.881  0.00  0.00     0.381 N 
ATOM     19  H   LIG d   1      -6.712  95.351 116.025  0.00  0.00    -0.090 HD
ATOM     20  H   LIG d   1      -6.686  95.523 117.641  0.00  0.00    -0.090 HD
ATOM     21  H   LIG d   1      -8.092  95.164 116.881  0.00  0.00    -0.090 HD
ENDBRANCH   5  18
BRANCH   3  22
ATOM     22  C   LIG d   1      -6.959  90.764 114.685  0.00  0.00     0.382 C 
ATOM     23  O   LIG d   1      -6.604  89.562 114.634  0.00  0.00    -0.241 OA
ATOM     24  O   LIG d   1      -7.757  91.204 113.835  0.00  0.00    -0.241 OA
ENDBRANCH   3  22
TORSDOF 7
ENDMDL
MODEL 2
REMARK VINA RESULT:      -5.6      2.350      4.662
REMARK  7 active torsions:
REMARK  status: ('A' for Active; 'I' for Inactive)
REMARK    1  A    between atoms: C_2  and  C_3 
REMARK    2  A    between atoms: C_3  and  O_6 
REMARK    3  A    between atoms: C_3  and  C_4 
REMARK    4  A    between atoms: C_7  and  O_6 
REMARK    5  A    between atoms: C_9  and  C_10 
REMARK    6  A    between atoms: N_15  and  C_14 
REMARK    7  A    between atoms: N_20  and  C_19 
REMARK       I    between atoms: C_22  and  N_20 
ROOT
ATOM      1  C   LIG d   1      -6.818  93.606 116.951  0.00  0.00     0.161 C 
ATOM      2  C   LIG d   1      -7.107  92.322 116.461  0.00  0.00     0.016 C 
ATOM      3  C   LIG d   1      -6.274  91.200 116.678  0.00  0.00     0.038 C 
ATOM      4  C   LIG d   1      -5.165  91.255 117.534  0.00  0.00     0.028 C 
ATOM      5  C   LIG d   1      -4.552  92.647 117.644  0.00  0.00    -0.047 C 
ATOM      6  C   LIG d   1      -5.669  93.662 117.980  0.00  0.00     0.091 C 
ENDROOT
BRANCH   1   7
ATOM      7  O   LIG d   1      -8.011  94.200 117.499  0.00  0.00    -0.368 OA
BRANCH   7   8
ATOM      8  C   LIG d   1      -8.152  94.134 118.940  0.00  0.00     0.119 C 
BRANCH   8   9
ATOM      9  C   LIG d   1      -9.321  93.179 119.247  0.00  0.00     0.028 C 
ATOM     10  C   LIG d   1     -10.335  93.789 120.230  0.00  0.00     0.006 C 
ENDBRANCH   8   9
BRANCH   8  11
ATOM     11  C   LIG d   1      -8.570  95.488 119.521  0.00  0.00     0.028 C 
ATOM     12  C   LIG d   1      -8.237  96.665 118.591  0.00  0.00     0.006 C 
ENDBRANCH   8  11
ENDBRANCH   7   8
ENDBRANCH   1   7
BRANCH   6  13
ATOM     13  N   LIG d   1      -5.170  95.061 118.022  0.00  0.00    -0.311 N 
ATOM     14  C   LIG d   1      -4.810  95.677 119.147  0.00  0.00     0.210 C 
ATOM     15  C   LIG d   1      -4.343  97.126 118.969  0.00  0.00     0.109 C 
ATOM     16  O   LIG d   1      -4.801  95.152 120.270  0.00  0.00    -0.276 OA
ATOM     17  H   LIG d   1      -5.115  95.552 117.152  0.00  0.00     0.149 HD
ENDBRANCH   6  13
BRANCH   5  18
ATOM     18  N   LIG d   1      -3.495  92.590 118.670  0.00  0.00     0.381 N 
ATOM     19  H   LIG d   1      -3.272  91.636 118.875  0.00  0.00    -0.090 HD
ATOM     20  H   LIG d   1      -3.834  93.022 119.511  0.00  0.00    -0.090 HD
ATOM     21  H   LIG d   1      -2.681  93.066 118.348  0.00  0.00    -0.090 HD
ENDBRANCH   5  18
BRANCH   3  22
ATOM     22  C   LIG d   1      -6.527  90.015 116.003  0.00  0.00     0.382 C 
ATOM     23  O   LIG d   1      -5.749  89.633 115.095  0.00  0.00    -0.241 OA
ATOM     24  O   LIG d   1      -7.547  89.347 116.259  0.00  0.00    -0.241 OA
ENDBRANCH   3  22
TORSDOF 7
ENDMDL
MODEL 3
REMARK VINA RESULT:      -5.0      1.596      4.854
REMARK  7 active torsions:
REMARK  status: ('A' for Active; 'I' for Inactive)
REMARK    1  A    between atoms: C_2  and  C_3 
REMARK    2  A    between atoms: C_3  and  O_6 
REMARK    3  A    between atoms: C_3  and  C_4 
REMARK    4  A    between atoms: C_7  and  O_6 
REMARK    5  A    between atoms: C_9  and  C_10 
REMARK    6  A    between atoms: N_15  and  C_14 
REMARK    7  A    between atoms: N_20  and  C_19 
REMARK       I    between atoms: C_22  and  N_20 
ROOT
ATOM      1  C   LIG d   1      -4.886  92.556 117.659  0.00  0.00     0.161 C 
ATOM      2  C   LIG d   1      -4.525  93.552 118.582  0.00  0.00     0.016 C 
ATOM      3  C   LIG d   1      -5.329  94.680 118.864  0.00  0.00     0.038 C 
ATOM      4  C   LIG d   1      -6.628  94.812 118.350  0.00  0.00     0.028 C 
ATOM      5  C   LIG d   1      -6.831  94.087 117.024  0.00  0.00    -0.047 C 
ATOM      6  C   LIG d   1      -6.348  92.626 117.172  0.00  0.00     0.091 C 
ENDROOT
BRANCH   1   7
ATOM      7  O   LIG d   1      -4.602  91.255 118.209  0.00  0.00    -0.368 OA
BRANCH   7   8
ATOM      8  C   LIG d   1      -3.203  90.883 118.279  0.00  0.00     0.119 C 
BRANCH   8   9
ATOM      9  C   LIG d   1      -3.029  89.580 117.475  0.00  0.00     0.028 C 
ATOM     10  C   LIG d   1      -2.479  88.430 118.334  0.00  0.00     0.006 C 
ENDBRANCH   8   9
BRANCH   8  11
ATOM     11  C   LIG d   1      -2.791  90.533 119.712  0.00  0.00     0.028 C 
ATOM     12  C   LIG d   1      -1.843  91.573 120.330  0.00  0.00     0.006 C 
ENDBRANCH   8  11
ENDBRANCH   7   8
ENDBRANCH   1   7
BRANCH   6  13
ATOM     13  N   LIG d   1      -6.434  91.869 115.896  0.00  0.00    -0.311 N 
ATOM     14  C   LIG d   1      -6.859  90.609 115.818  0.00  0.00     0.210 C 
ATOM     15  C   LIG d   1      -6.850  90.010 114.408  0.00  0.00     0.109 C 
ATOM     16  O   LIG d   1      -7.274  89.942 116.778  0.00  0.00    -0.276 OA
ATOM     17  H   LIG d   1      -6.146  92.345 115.063  0.00  0.00     0.149 HD
ENDBRANCH   6  13
BRANCH   5  18
ATOM     18  N   LIG d   1      -8.260  94.191 116.674  0.00  0.00     0.381 N 
ATOM     19  H   LIG d   1      -8.394  93.929 115.718  0.00  0.00    -0.090 HD
ATOM     20  H   LIG d   1      -8.553  95.146 116.783  0.00  0.00    -0.090 HD
ATOM     21  H   LIG d   1      -8.801  93.600 117.267  0.00  0.00    -0.090 HD
ENDBRANCH   5  18
BRANCH   3  22
ATOM     22  C   LIG d   1      -4.819  95.711 119.638  0.00  0.00     0.382 C 
ATOM     23  O   LIG d   1      -3.594  95.749 119.903  0.00  0.00    -0.241 OA
ATOM     24  O   LIG d   1      -5.576  96.580 120.111  0.00  0.00    -0.241 OA
ENDBRANCH   3  22
TORSDOF 7
ENDMDL
MODEL 4
REMARK VINA RESULT:      -4.9      1.923      2.785
REMARK  7 active torsions:
REMARK  status: ('A' for Active; 'I' for Inactive)
REMARK    1  A    between atoms: C_2  and  C_3 
REMARK    2  A    between atoms: C_3  and  O_6 
REMARK    3  A    between atoms: C_3  and  C_4 
REMARK    4  A    between atoms: C_7  and  O_6 
REMARK    5  A    between atoms: C_9  and  C_10 
REMARK    6  A    between atoms: N_15  and  C_14 
REMARK    7  A    between atoms: N_20  and  C_19 
REMARK       I    between atoms: C_22  and  N_20 
ROOT
ATOM      1  C   LIG d   1      -4.012  90.545 117.672  0.00  0.00     0.161 C 
ATOM      2  C   LIG d   1      -4.977  90.260 116.691  0.00  0.00     0.016 C 
ATOM      3  C   LIG d   1      -5.875  91.225 116.180  0.00  0.00     0.038 C 
ATOM      4  C   LIG d   1      -5.769  92.585 116.507  0.00  0.00     0.028 C 
ATOM      5  C   LIG d   1      -5.137  92.831 117.874  0.00  0.00    -0.047 C 
ATOM      6  C   LIG d   1      -3.808  92.047 117.960  0.00  0.00     0.091 C 
ENDROOT
BRANCH   1   7
ATOM      7  O   LIG d   1      -2.759  89.928 117.319  0.00  0.00    -0.368 OA
BRANCH   7   8
ATOM      8  C   LIG d   1      -2.483  88.647 117.938  0.00  0.00     0.119 C 
BRANCH   8   9
ATOM      9  C   LIG d   1      -2.862  88.762 119.427  0.00  0.00     0.028 C 
ATOM     10  C   LIG d   1      -2.879  87.396 120.135  0.00  0.00     0.006 C 
ENDBRANCH   8   9
BRANCH   8  11
ATOM     11  C   LIG d   1      -0.984  88.334 117.925  0.00  0.00     0.028 C 
ATOM     12  C   LIG d   1      -0.145  89.460 117.301  0.00  0.00     0.006 C 
ENDBRANCH   8  11
ENDBRANCH   7   8
ENDBRANCH   1   7
BRANCH   6  13
ATOM     13  N   LIG d   1      -3.166  92.166 119.296  0.00  0.00    -0.311 N 
ATOM     14  C   LIG d   1      -1.853  92.301 119.469  0.00  0.00     0.210 C 
ATOM     15  C   LIG d   1      -1.398  92.385 120.930  0.00  0.00     0.109 C 
ATOM     16  O   LIG d   1      -1.024  92.391 118.551  0.00  0.00    -0.276 OA
ATOM     17  H   LIG d   1      -3.768  92.134 120.095  0.00  0.00     0.149 HD
ENDBRANCH   6  13
BRANCH   5  18
ATOM     18  N   LIG d   1      -4.961  94.287 118.027  0.00  0.00     0.381 N 
ATOM     19  H   LIG d   1      -5.514  94.616 118.794  0.00  0.00    -0.090 HD
ATOM     20  H   LIG d   1      -5.280  94.743 117.191  0.00  0.00    -0.090 HD
ATOM     21  H   LIG d   1      -4.001  94.500 118.185  0.00  0.00    -0.090 HD
ENDBRANCH   5  18
BRANCH   3  22
ATOM     22  C   LIG d   1      -6.919  90.825 115.360  0.00  0.00     0.382 C 
ATOM     23  O   LIG d   1      -7.630  91.684 114.785  0.00  0.00    -0.241 OA
ATOM     24  O   LIG d   1      -7.188  89.616 115.223  0.00  0.00    -0.241 OA
ENDBRANCH   3  22
TORSDOF 7
ENDMDL
MODEL 5
REMARK VINA RESULT:      -4.8      2.298      5.183
REMARK  7 active torsions:
REMARK  status: ('A' for Active; 'I' for Inactive)
REMARK    1  A    between atoms: C_2  and  C_3 
REMARK    2  A    between atoms: C_3  and  O_6 
REMARK    3  A    between atoms: C_3  and  C_4 
REMARK    4  A    between atoms: C_7  and  O_6 
REMARK    5  A    between atoms: C_9  and  C_10 
REMARK    6  A    between atoms: N_15  and  C_14 
REMARK    7  A    between atoms: N_20  and  C_19 
REMARK       I    between atoms: C_22  and  N_20 
ROOT
ATOM      1  C   LIG d   1      -4.692  91.091 117.852  0.00  0.00     0.161 C 
ATOM      2  C   LIG d   1      -3.664  90.214 117.467  0.00  0.00     0.016 C 
ATOM      3  C   LIG d   1      -2.441  90.094 118.166  0.00  0.00     0.038 C 
ATOM      4  C   LIG d   1      -2.222  90.738 119.393  0.00  0.00     0.028 C 
ATOM      5  C   LIG d   1      -3.030  92.020 119.556  0.00  0.00    -0.047 C 
ATOM      6  C   LIG d   1      -4.515  91.720 119.250  0.00  0.00     0.091 C 
ENDROOT
BRANCH   1   7
ATOM      7  O   LIG d   1      -5.965  90.423 117.760  0.00  0.00    -0.368 OA
BRANCH   7   8
ATOM      8  C   LIG d   1      -6.930  91.010 116.853  0.00  0.00     0.119 C 
BRANCH   8   9
ATOM      9  C   LIG d   1      -7.343  89.918 115.847  0.00  0.00     0.028 C 
ATOM     10  C   LIG d   1      -7.166  90.369 114.387  0.00  0.00     0.006 C 
ENDBRANCH   8   9
BRANCH   8  11
ATOM     11  C   LIG d   1      -6.297  92.121 116.009  0.00  0.00     0.028 C 
ATOM     12  C   LIG d   1      -6.983  93.482 116.205  0.00  0.00     0.006 C 
ENDBRANCH   8  11
ENDBRANCH   7   8
ENDBRANCH   1   7
BRANCH   6  13
ATOM     13  N   LIG d   1      -5.363  92.940 119.305  0.00  0.00    -0.311 N 
ATOM     14  C   LIG d   1      -6.509  93.006 119.980  0.00  0.00     0.210 C 
ATOM     15  C   LIG d   1      -7.237  94.351 119.889  0.00  0.00     0.109 C 
ATOM     16  O   LIG d   1      -6.976  92.089 120.673  0.00  0.00    -0.276 OA
ATOM     17  H   LIG d   1      -5.043  93.741 118.797  0.00  0.00     0.149 HD
ENDBRANCH   6  13
BRANCH   5  18
ATOM     18  N   LIG d   1      -2.811  92.513 120.930  0.00  0.00     0.381 N 
ATOM     19  H   LIG d   1      -3.692  92.697 121.368  0.00  0.00    -0.090 HD
ATOM     20  H   LIG d   1      -2.294  93.373 120.888  0.00  0.00    -0.090 HD
ATOM     21  H   LIG d   1      -2.304  91.837 121.457  0.00  0.00    -0.090 HD
ENDBRANCH   5  18
BRANCH   3  22
ATOM     22  C   LIG d   1      -1.406  89.353 117.617  0.00  0.00     0.382 C 
ATOM     23  O   LIG d   1      -0.527  89.920 116.925  0.00  0.00    -0.241 OA
ATOM     24  O   LIG d   1      -1.364  88.117 117.767  0.00  0.00    -0.241 OA
ENDBRANCH   3  22
TORSDOF 7
ENDMDL
MODEL 6
REMARK VINA RESULT:      -4.8      1.864      4.781
REMARK  7 active torsions:
REMARK  status: ('A' for Active; 'I' for Inactive)
REMARK    1  A    between atoms: C_2  and  C_3 
REMARK    2  A    between atoms: C_3  and  O_6 
REMARK    3  A    between atoms: C_3  and  C_4 
REMARK    4  A    between atoms: C_7  and  O_6 
REMARK    5  A    between atoms: C_9  and  C_10 
REMARK    6  A    between atoms: N_15  and  C_14 
REMARK    7  A    between atoms: N_20  and  C_19 
REMARK       I    between atoms: C_22  and  N_20 
ROOT
ATOM      1  C   LIG d   1      -4.491  91.743 117.667  0.00  0.00     0.161 C 
ATOM      2  C   LIG d   1      -4.021  90.420 117.721  0.00  0.00     0.016 C 
ATOM      3  C   LIG d   1      -3.187  89.932 118.753  0.00  0.00     0.038 C 
ATOM      4  C   LIG d   1      -2.888  90.698 119.889  0.00  0.00     0.028 C 
ATOM      5  C   LIG d   1      -2.924  92.201 119.633  0.00  0.00    -0.047 C 
ATOM      6  C   LIG d   1      -4.265  92.562 118.955  0.00  0.00     0.091 C 
ENDROOT
BRANCH   1   7
ATOM      7  O   LIG d   1      -5.886  91.752 117.306  0.00  0.00    -0.368 OA
BRANCH   7   8
ATOM      8  C   LIG d   1      -6.202  92.291 115.998  0.00  0.00     0.119 C 
BRANCH   8   9
ATOM      9  C   LIG d   1      -7.430  93.207 116.160  0.00  0.00     0.028 C 
ATOM     10  C   LIG d   1      -7.878  93.335 117.626  0.00  0.00     0.006 C 
ENDBRANCH   8   9
BRANCH   8  11
ATOM     11  C   LIG d   1      -6.643  91.187 115.032  0.00  0.00     0.028 C 
ATOM     12  C   LIG d   1      -7.310  90.001 115.747  0.00  0.00     0.006 C 
ENDBRANCH   8  11
ENDBRANCH   7   8
ENDBRANCH   1   7
BRANCH   6  13
ATOM     13  N   LIG d   1      -4.348  94.001 118.593  0.00  0.00    -0.311 N 
ATOM     14  C   LIG d   1      -4.898  94.924 119.380  0.00  0.00     0.210 C 
ATOM     15  C   LIG d   1      -4.898  96.345 118.807  0.00  0.00     0.109 C 
ATOM     16  O   LIG d   1      -5.358  94.707 120.511  0.00  0.00    -0.276 OA
ATOM     17  H   LIG d   1      -3.971  94.271 117.706  0.00  0.00     0.149 HD
ENDBRANCH   6  13
BRANCH   5  18
ATOM     18  N   LIG d   1      -2.730  92.879 120.929  0.00  0.00     0.381 N 
ATOM     19  H   LIG d   1      -2.482  92.208 121.628  0.00  0.00    -0.090 HD
ATOM     20  H   LIG d   1      -3.594  93.313 121.201  0.00  0.00    -0.090 HD
ATOM     21  H   LIG d   1      -2.014  93.567 120.850  0.00  0.00    -0.090 HD
ENDBRANCH   5  18
BRANCH   3  22
ATOM     22  C   LIG d   1      -2.611  88.676 118.635  0.00  0.00     0.382 C 
ATOM     23  O   LIG d   1      -1.716  88.475 117.779  0.00  0.00    -0.241 OA
ATOM     24  O   LIG d   1      -3.006  87.730 119.343  0.00  0.00    -0.241 OA
ENDBRANCH   3  22
TORSDOF 7
ENDMDL
MODEL 7
REMARK VINA RESULT:      -4.5      2.355      5.187
REMARK  7 active torsions:
REMARK  status: ('A' for Active; 'I' for Inactive)
REMARK    1  A    between atoms: C_2  and  C_3 
REMARK    2  A    between atoms: C_3  and  O_6 
REMARK    3  A    between atoms: C_3  and  C_4 
REMARK    4  A    between atoms: C_7  and  O_6 
REMARK    5  A    between atoms: C_9  and  C_10 
REMARK    6  A    between atoms: N_15  and  C_14 
REMARK    7  A    between atoms: N_20  and  C_19 
REMARK       I    between atoms: C_22  and  N_20 
ROOT
ATOM      1  C   LIG d   1      -5.032  93.843 117.925  0.00  0.00     0.161 C 
ATOM      2  C   LIG d   1      -4.041  93.038 118.511  0.00  0.00     0.016 C 
ATOM      3  C   LIG d   1      -3.366  93.379 119.705  0.00  0.00     0.038 C 
ATOM      4  C   LIG d   1      -3.745  94.484 120.481  0.00  0.00     0.028 C 
ATOM      5  C   LIG d   1      -4.398  95.599 119.670  0.00  0.00    -0.047 C 
ATOM      6  C   LIG d   1      -5.537  94.997 118.817  0.00  0.00     0.091 C 
ENDROOT
BRANCH   1   7
ATOM      7  O   LIG d   1      -6.137  93.024 117.494  0.00  0.00    -0.368 OA
BRANCH   7   8
ATOM      8  C   LIG d   1      -5.920  92.244 116.292  0.00  0.00     0.119 C 
BRANCH   8   9
ATOM      9  C   LIG d   1      -7.045  92.599 115.301  0.00  0.00     0.028 C 
ATOM     10  C   LIG d   1      -7.236  91.522 114.220  0.00  0.00     0.006 C 
ENDBRANCH   8   9
BRANCH   8  11
ATOM     11  C   LIG d   1      -6.078  90.745 116.565  0.00  0.00     0.028 C 
ATOM     12  C   LIG d   1      -4.748  89.980 116.476  0.00  0.00     0.006 C 
ENDBRANCH   8  11
ENDBRANCH   7   8
ENDBRANCH   1   7
BRANCH   6  13
ATOM     13  N   LIG d   1      -6.174  96.006 117.930  0.00  0.00    -0.311 N 
ATOM     14  C   LIG d   1      -7.442  96.394 118.053  0.00  0.00     0.210 C 
ATOM     15  C   LIG d   1      -7.904  97.429 117.022  0.00  0.00     0.109 C 
ATOM     16  O   LIG d   1      -8.219  96.003 118.937  0.00  0.00    -0.276 OA
ATOM     17  H   LIG d   1      -5.607  96.397 117.204  0.00  0.00     0.149 HD
ENDBRANCH   6  13
BRANCH   5  18
ATOM     18  N   LIG d   1      -4.866  96.625 120.620  0.00  0.00     0.381 N 
ATOM     19  H   LIG d   1      -4.626  96.358 121.554  0.00  0.00    -0.090 HD
ATOM     20  H   LIG d   1      -5.867  96.692 120.560  0.00  0.00    -0.090 HD
ATOM     21  H   LIG d   1      -4.454  97.506 120.402  0.00  0.00    -0.090 HD
ENDBRANCH   5  18
BRANCH   3  22
ATOM     22  C   LIG d   1      -2.271  92.632 120.112  0.00  0.00     0.382 C 
ATOM     23  O   LIG d   1      -2.322  91.379 120.085  0.00  0.00    -0.241 OA
ATOM     24  O   LIG d   1      -1.249  93.195 120.549  0.00  0.00    -0.241 OA
ENDBRANCH   3  22
TORSDOF 7
ENDMDL
MODEL 8
REMARK VINA RESULT:      -4.5      5.754      8.452
REMARK  7 active torsions:
REMARK  status: ('A' for Active; 'I' for Inactive)
REMARK    1  A    between atoms: C_2  and  C_3 
REMARK    2  A    between atoms: C_3  and  O_6 
REMARK    3  A    between atoms: C_3  and  C_4 
REMARK    4  A    between atoms: C_7  and  O_6 
REMARK    5  A    between atoms: C_9  and  C_10 
REMARK    6  A    between atoms: N_15  and  C_14 
REMARK    7  A    between atoms: N_20  and  C_19 
REMARK       I    between atoms: C_22  and  N_20 
ROOT
ATOM      1  C   LIG d   1       1.001  87.715 116.917  0.00  0.00     0.161 C 
ATOM      2  C   LIG d   1      -0.391  87.694 117.104  0.00  0.00     0.016 C 
ATOM      3  C   LIG d   1      -1.111  88.750 117.708  0.00  0.00     0.038 C 
ATOM      4  C   LIG d   1      -0.502  89.973 118.031  0.00  0.00     0.028 C 
ATOM      5  C   LIG d   1       0.989  89.848 118.324  0.00  0.00    -0.047 C 
ATOM      6  C   LIG d   1       1.666  89.086 117.162  0.00  0.00     0.091 C 
ENDROOT
BRANCH   1   7
ATOM      7  O   LIG d   1       1.324  87.230 115.599  0.00  0.00    -0.368 OA
BRANCH   7   8
ATOM      8  C   LIG d   1       1.965  85.931 115.537  0.00  0.00     0.119 C 
BRANCH   8   9
ATOM      9  C   LIG d   1       2.345  85.533 116.977  0.00  0.00     0.028 C 
ATOM     10  C   LIG d   1       3.867  85.433 117.175  0.00  0.00     0.006 C 
ENDBRANCH   8   9
BRANCH   8  11
ATOM     11  C   LIG d   1       3.290  86.000 114.772  0.00  0.00     0.028 C 
ATOM     12  C   LIG d   1       3.239  86.964 113.576  0.00  0.00     0.006 C 
ENDBRANCH   8  11
ENDBRANCH   7   8
ENDBRANCH   1   7
BRANCH   6  13
ATOM     13  N   LIG d   1       3.112  88.847 117.408  0.00  0.00    -0.311 N 
ATOM     14  C   LIG d   1       4.070  89.209 116.557  0.00  0.00     0.210 C 
ATOM     15  C   LIG d   1       5.494  88.851 116.994  0.00  0.00     0.109 C 
ATOM     16  O   LIG d   1       3.879  89.823 115.496  0.00  0.00    -0.276 OA
ATOM     17  H   LIG d   1       3.360  88.382 118.260  0.00  0.00     0.149 HD
ENDBRANCH   6  13
BRANCH   5  18
ATOM     18  N   LIG d   1       1.522  91.211 118.509  0.00  0.00     0.381 N 
ATOM     19  H   LIG d   1       1.046  91.661 119.265  0.00  0.00    -0.090 HD
ATOM     20  H   LIG d   1       1.356  91.742 117.672  0.00  0.00    -0.090 HD
ATOM     21  H   LIG d   1       2.499  91.172 118.698  0.00  0.00    -0.090 HD
ENDBRANCH   5  18
BRANCH   3  22
ATOM     22  C   LIG d   1      -2.448  88.574 118.032  0.00  0.00     0.382 C 
ATOM     23  O   LIG d   1      -3.333  89.199 117.400  0.00  0.00    -0.241 OA
ATOM     24  O   LIG d   1      -2.777  87.832 118.976  0.00  0.00    -0.241 OA
ENDBRANCH   3  22
TORSDOF 7
ENDMDL
MODEL 9
REMARK VINA RESULT:      -4.5      2.654      4.246
REMARK  7 active torsions:
REMARK  status: ('A' for Active; 'I' for Inactive)
REMARK    1  A    between atoms: C_2  and  C_3 
REMARK    2  A    between atoms: C_3  and  O_6 
REMARK    3  A    between atoms: C_3  and  C_4 
REMARK    4  A    between atoms: C_7  and  O_6 
REMARK    5  A    between atoms: C_9  and  C_10 
REMARK    6  A    between atoms: N_15  and  C_14 
REMARK    7  A    between atoms: N_20  and  C_19 
REMARK       I    between atoms: C_22  and  N_20 
ROOT
ATOM      1  C   LIG d   1      -6.204  92.220 119.000  0.00  0.00     0.161 C 
ATOM      2  C   LIG d   1      -7.560  92.508 119.229  0.00  0.00     0.016 C 
ATOM      3  C   LIG d   1      -8.103  93.810 119.146  0.00  0.00     0.038 C 
ATOM      4  C   LIG d   1      -7.352  94.899 118.678  0.00  0.00     0.028 C 
ATOM      5  C   LIG d   1      -5.854  94.750 118.920  0.00  0.00    -0.047 C 
ATOM      6  C   LIG d   1      -5.393  93.377 118.380  0.00  0.00     0.091 C 
ENDROOT
BRANCH   1   7
ATOM      7  O   LIG d   1      -6.086  91.034 118.189  0.00  0.00    -0.368 OA
BRANCH   7   8
ATOM      8  C   LIG d   1      -5.602  91.232 116.838  0.00  0.00     0.119 C 
BRANCH   8   9
ATOM      9  C   LIG d   1      -6.821  91.182 115.897  0.00  0.00     0.028 C 
ATOM     10  C   LIG d   1      -7.076  92.527 115.195  0.00  0.00     0.006 C 
ENDBRANCH   8   9
BRANCH   8  11
ATOM     11  C   LIG d   1      -4.699  90.076 116.395  0.00  0.00     0.028 C 
ATOM     12  C   LIG d   1      -3.548  89.809 117.377  0.00  0.00     0.006 C 
ENDBRANCH   8  11
ENDBRANCH   7   8
ENDBRANCH   1   7
BRANCH   6  13
ATOM     13  N   LIG d   1      -3.955  93.114 118.653  0.00  0.00    -0.311 N 
ATOM     14  C   LIG d   1      -3.450  93.003 119.880  0.00  0.00     0.210 C 
ATOM     15  C   LIG d   1      -1.940  92.752 119.937  0.00  0.00     0.109 C 
ATOM     16  O   LIG d   1      -4.114  93.057 120.926  0.00  0.00    -0.276 OA
ATOM     17  H   LIG d   1      -3.350  93.026 117.860  0.00  0.00     0.149 HD
ENDBRANCH   6  13
BRANCH   5  18
ATOM     18  N   LIG d   1      -5.181  95.885 118.263  0.00  0.00     0.381 N 
ATOM     19  H   LIG d   1      -5.857  96.576 118.004  0.00  0.00    -0.090 HD
ATOM     20  H   LIG d   1      -4.730  95.556 117.427  0.00  0.00    -0.090 HD
ATOM     21  H   LIG d   1      -4.506  96.285 118.878  0.00  0.00    -0.090 HD
ENDBRANCH   5  18
BRANCH   3  22
ATOM     22  C   LIG d   1      -9.402  94.041 119.572  0.00  0.00     0.382 C 
ATOM     23  O   LIG d   1     -10.267  93.139 119.464  0.00  0.00    -0.241 OA
ATOM     24  O   LIG d   1      -9.731  95.155 120.023  0.00  0.00    -0.241 OA
ENDBRANCH   3  22
TORSDOF 7
ENDMDL
