MODEL 1
REMARK VINA RESULT:      -5.4      0.000      0.000
REMARK  7 active torsions:
REMARK  status: ('A' for Active; 'I' for Inactive)
REMARK    1  A    between atoms: C_2  and  C_3 
REMARK    2  A    between atoms: C_3  and  O_6 
REMARK    3  A    between atoms: C_3  and  C_4 
REMARK    4  A    between atoms: C_7  and  O_6 
REMARK    5  A    between atoms: C_9  and  C_10 
REMARK    6  A    between atoms: N_15  and  C_14 
REMARK    7  A    between atoms: N_20  and  C_19 
REMARK       I    between atoms: C_22  and  N_20 
ROOT
ATOM      1  C   LIG d   1      -6.631  93.370 117.561  0.00  0.00     0.161 C 
ATOM      2  C   LIG d   1      -7.345  92.441 116.786  0.00  0.00     0.016 C 
ATOM      3  C   LIG d   1      -6.869  91.142 116.494  0.00  0.00     0.038 C 
ATOM      4  C   LIG d   1      -5.707  90.628 117.087  0.00  0.00     0.028 C 
ATOM      5  C   LIG d   1      -4.696  91.703 117.472  0.00  0.00    -0.047 C 
ATOM      6  C   LIG d   1      -5.413  92.788 118.308  0.00  0.00     0.091 C 
ENDROOT
BRANCH   1   7
ATOM      7  O   LIG d   1      -7.523  94.021 118.488  0.00  0.00    -0.368 OA
BRANCH   7   8
ATOM      8  C   LIG d   1      -7.776  95.427 118.247  0.00  0.00     0.119 C 
BRANCH   8   9
ATOM      9  C   LIG d   1      -7.101  96.221 119.382  0.00  0.00     0.028 C 
ATOM     10  C   LIG d   1      -6.164  97.320 118.853  0.00  0.00     0.006 C 
ENDBRANCH   8   9
BRANCH   8  11
ATOM     11  C   LIG d   1      -9.269  95.751 118.358  0.00  0.00     0.028 C 
ATOM     12  C   LIG d   1      -9.803  95.614 119.793  0.00  0.00     0.006 C 
ENDBRANCH   8  11
ENDBRANCH   7   8
ENDBRANCH   1   7
BRANCH   6  13
ATOM     13  N   LIG d   1      -4.515  93.921 118.656  0.00  0.00    -0.311 N 
ATOM     14  C   LIG d   1      -3.859  94.008 119.811  0.00  0.00     0.210 C 
ATOM     15  C   LIG d   1      -3.003  95.268 119.975  0.00  0.00     0.109 C 
ATOM     16  O   LIG d   1      -3.879  93.146 120.703  0.00  0.00    -0.276 OA
ATOM     17  H   LIG d   1      -4.417  94.649 117.976  0.00  0.00     0.149 HD
ENDBRANCH   6  13
BRANCH   5  18
ATOM     18  N   LIG d   1      -3.598  91.042 118.202  0.00  0.00     0.381 N 
ATOM     19  H   LIG d   1      -3.654  91.268 119.175  0.00  0.00    -0.090 HD
ATOM     20  H   LIG d   1      -2.721  91.383 117.849  0.00  0.00    -0.090 HD
ATOM     21  H   LIG d   1      -3.653  90.055 118.079  0.00  0.00    -0.090 HD
ENDBRANCH   5  18
BRANCH   3  22
ATOM     22  C   LIG d   1      -7.539  90.357 115.568  0.00  0.00     0.382 C 
ATOM     23  O   LIG d   1      -7.395  90.575 114.341  0.00  0.00    -0.241 OA
ATOM     24  O   LIG d   1      -8.320  89.462 115.945  0.00  0.00    -0.241 OA
ENDBRANCH   3  22
TORSDOF 7
ENDMDL
MODEL 2
REMARK VINA RESULT:      -4.8      0.829      1.598
REMARK  7 active torsions:
REMARK  status: ('A' for Active; 'I' for Inactive)
REMARK    1  A    between atoms: C_2  and  C_3 
REMARK    2  A    between atoms: C_3  and  O_6 
REMARK    3  A    between atoms: C_3  and  C_4 
REMARK    4  A    between atoms: C_7  and  O_6 
REMARK    5  A    between atoms: C_9  and  C_10 
REMARK    6  A    between atoms: N_15  and  C_14 
REMARK    7  A    between atoms: N_20  and  C_19 
REMARK       I    between atoms: C_22  and  N_20 
ROOT
ATOM      1  C   LIG d   1      -6.424  93.106 117.971  0.00  0.00     0.161 C 
ATOM      2  C   LIG d   1      -7.217  92.241 117.199  0.00  0.00     0.016 C 
ATOM      3  C   LIG d   1      -6.723  91.060 116.599  0.00  0.00     0.038 C 
ATOM      4  C   LIG d   1      -5.430  90.581 116.858  0.00  0.00     0.028 C 
ATOM      5  C   LIG d   1      -4.439  91.681 117.222  0.00  0.00    -0.047 C 
ATOM      6  C   LIG d   1      -5.040  92.543 118.357  0.00  0.00     0.091 C 
ENDROOT
BRANCH   1   7
ATOM      7  O   LIG d   1      -7.147  93.509 119.151  0.00  0.00    -0.368 OA
BRANCH   7   8
ATOM      8  C   LIG d   1      -6.892  94.854 119.626  0.00  0.00     0.119 C 
BRANCH   8   9
ATOM      9  C   LIG d   1      -7.950  95.174 120.699  0.00  0.00     0.028 C 
ATOM     10  C   LIG d   1      -9.210  94.303 120.559  0.00  0.00     0.006 C 
ENDBRANCH   8   9
BRANCH   8  11
ATOM     11  C   LIG d   1      -7.112  95.888 118.518  0.00  0.00     0.028 C 
ATOM     12  C   LIG d   1      -6.592  97.284 118.894  0.00  0.00     0.006 C 
ENDBRANCH   8  11
ENDBRANCH   7   8
ENDBRANCH   1   7
BRANCH   6  13
ATOM     13  N   LIG d   1      -4.170  93.693 118.716  0.00  0.00    -0.311 N 
ATOM     14  C   LIG d   1      -3.263  93.651 119.690  0.00  0.00     0.210 C 
ATOM     15  C   LIG d   1      -2.487  94.953 119.908  0.00  0.00     0.109 C 
ATOM     16  O   LIG d   1      -3.004  92.648 120.372  0.00  0.00    -0.276 OA
ATOM     17  H   LIG d   1      -4.292  94.538 118.192  0.00  0.00     0.149 HD
ENDBRANCH   6  13
BRANCH   5  18
ATOM     18  N   LIG d   1      -3.170  91.031 117.600  0.00  0.00     0.381 N 
ATOM     19  H   LIG d   1      -2.811  91.448 118.436  0.00  0.00    -0.090 HD
ATOM     20  H   LIG d   1      -2.501  91.172 116.864  0.00  0.00    -0.090 HD
ATOM     21  H   LIG d   1      -3.316  90.056 117.744  0.00  0.00    -0.090 HD
ENDBRANCH   5  18
BRANCH   3  22
ATOM     22  C   LIG d   1      -7.514  90.364 115.698  0.00  0.00     0.382 C 
ATOM     23  O   LIG d   1      -7.416  90.596 114.468  0.00  0.00    -0.241 OA
ATOM     24  O   LIG d   1      -8.357  89.540 116.101  0.00  0.00    -0.241 OA
ENDBRANCH   3  22
TORSDOF 7
ENDMDL
MODEL 3
REMARK VINA RESULT:      -4.7      2.123      5.741
REMARK  7 active torsions:
REMARK  status: ('A' for Active; 'I' for Inactive)
REMARK    1  A    between atoms: C_2  and  C_3 
REMARK    2  A    between atoms: C_3  and  O_6 
REMARK    3  A    between atoms: C_3  and  C_4 
REMARK    4  A    between atoms: C_7  and  O_6 
REMARK    5  A    between atoms: C_9  and  C_10 
REMARK    6  A    between atoms: N_15  and  C_14 
REMARK    7  A    between atoms: N_20  and  C_19 
REMARK       I    between atoms: C_22  and  N_20 
ROOT
ATOM      1  C   LIG d   1      -5.383  92.887 118.633  0.00  0.00     0.161 C 
ATOM      2  C   LIG d   1      -5.903  94.058 119.210  0.00  0.00     0.016 C 
ATOM      3  C   LIG d   1      -7.032  94.741 118.701  0.00  0.00     0.038 C 
ATOM      4  C   LIG d   1      -7.813  94.212 117.664  0.00  0.00     0.028 C 
ATOM      5  C   LIG d   1      -7.035  93.294 116.727  0.00  0.00    -0.047 C 
ATOM      6  C   LIG d   1      -6.289  92.234 117.568  0.00  0.00     0.091 C 
ENDROOT
BRANCH   1   7
ATOM      7  O   LIG d   1      -5.059  91.936 119.666  0.00  0.00    -0.368 OA
BRANCH   7   8
ATOM      8  C   LIG d   1      -3.663  91.861 120.049  0.00  0.00     0.119 C 
BRANCH   8   9
ATOM      9  C   LIG d   1      -2.919  92.987 119.305  0.00  0.00     0.028 C 
ATOM     10  C   LIG d   1      -2.043  93.832 120.245  0.00  0.00     0.006 C 
ENDBRANCH   8   9
BRANCH   8  11
ATOM     11  C   LIG d   1      -3.021  90.559 119.561  0.00  0.00     0.028 C 
ATOM     12  C   LIG d   1      -2.325  90.712 118.199  0.00  0.00     0.006 C 
ENDBRANCH   8  11
ENDBRANCH   7   8
ENDBRANCH   1   7
BRANCH   6  13
ATOM     13  N   LIG d   1      -5.436  91.347 116.735  0.00  0.00    -0.311 N 
ATOM     14  C   LIG d   1      -5.886  90.243 116.141  0.00  0.00     0.210 C 
ATOM     15  C   LIG d   1      -4.835  89.463 115.345  0.00  0.00     0.109 C 
ATOM     16  O   LIG d   1      -7.063  89.854 116.171  0.00  0.00    -0.276 OA
ATOM     17  H   LIG d   1      -4.474  91.605 116.631  0.00  0.00     0.149 HD
ENDBRANCH   6  13
BRANCH   5  18
ATOM     18  N   LIG d   1      -7.999  92.706 115.777  0.00  0.00     0.381 N 
ATOM     19  H   LIG d   1      -8.906  93.101 115.926  0.00  0.00    -0.090 HD
ATOM     20  H   LIG d   1      -8.055  91.716 115.943  0.00  0.00    -0.090 HD
ATOM     21  H   LIG d   1      -7.704  92.877 114.842  0.00  0.00    -0.090 HD
ENDBRANCH   5  18
BRANCH   3  22
ATOM     22  C   LIG d   1      -7.365  95.989 119.207  0.00  0.00     0.382 C 
ATOM     23  O   LIG d   1      -8.522  96.200 119.642  0.00  0.00    -0.241 OA
ATOM     24  O   LIG d   1      -6.536  96.918 119.191  0.00  0.00    -0.241 OA
ENDBRANCH   3  22
TORSDOF 7
ENDMDL
MODEL 4
REMARK VINA RESULT:      -4.5      2.347      5.716
REMARK  7 active torsions:
REMARK  status: ('A' for Active; 'I' for Inactive)
REMARK    1  A    between atoms: C_2  and  C_3 
REMARK    2  A    between atoms: C_3  and  O_6 
REMARK    3  A    between atoms: C_3  and  C_4 
REMARK    4  A    between atoms: C_7  and  O_6 
REMARK    5  A    between atoms: C_9  and  C_10 
REMARK    6  A    between atoms: N_15  and  C_14 
REMARK    7  A    between atoms: N_20  and  C_19 
REMARK       I    between atoms: C_22  and  N_20 
ROOT
ATOM      1  C   LIG d   1      -4.092  92.481 118.348  0.00  0.00     0.161 C 
ATOM      2  C   LIG d   1      -2.800  91.948 118.493  0.00  0.00     0.016 C 
ATOM      3  C   LIG d   1      -1.786  92.563 119.262  0.00  0.00     0.038 C 
ATOM      4  C   LIG d   1      -2.042  93.683 120.067  0.00  0.00     0.028 C 
ATOM      5  C   LIG d   1      -3.192  94.545 119.557  0.00  0.00    -0.047 C 
ATOM      6  C   LIG d   1      -4.423  93.643 119.308  0.00  0.00     0.091 C 
ENDROOT
BRANCH   1   7
ATOM      7  O   LIG d   1      -5.071  91.432 118.475  0.00  0.00    -0.368 OA
BRANCH   7   8
ATOM      8  C   LIG d   1      -5.640  90.937 117.238  0.00  0.00     0.119 C 
BRANCH   8   9
ATOM      9  C   LIG d   1      -4.628  89.949 116.626  0.00  0.00     0.028 C 
ATOM     10  C   LIG d   1      -5.043  89.479 115.222  0.00  0.00     0.006 C 
ENDBRANCH   8   9
BRANCH   8  11
ATOM     11  C   LIG d   1      -5.787  92.058 116.205  0.00  0.00     0.028 C 
ATOM     12  C   LIG d   1      -7.255  92.409 115.913  0.00  0.00     0.006 C 
ENDBRANCH   8  11
ENDBRANCH   7   8
ENDBRANCH   1   7
BRANCH   6  13
ATOM     13  N   LIG d   1      -5.567  94.394 118.728  0.00  0.00    -0.311 N 
ATOM     14  C   LIG d   1      -6.819  94.276 119.167  0.00  0.00     0.210 C 
ATOM     15  C   LIG d   1      -7.850  95.124 118.416  0.00  0.00     0.109 C 
ATOM     16  O   LIG d   1      -7.168  93.575 120.128  0.00  0.00    -0.276 OA
ATOM     17  H   LIG d   1      -5.369  95.009 117.964  0.00  0.00     0.149 HD
ENDBRANCH   6  13
BRANCH   5  18
ATOM     18  N   LIG d   1      -3.440  95.597 120.561  0.00  0.00     0.381 N 
ATOM     19  H   LIG d   1      -3.337  95.218 121.481  0.00  0.00    -0.090 HD
ATOM     20  H   LIG d   1      -4.384  95.927 120.460  0.00  0.00    -0.090 HD
ATOM     21  H   LIG d   1      -2.802  96.351 120.430  0.00  0.00    -0.090 HD
ENDBRANCH   5  18
BRANCH   3  22
ATOM     22  C   LIG d   1      -0.488  92.080 119.200  0.00  0.00     0.382 C 
ATOM     23  O   LIG d   1       0.478  92.881 119.157  0.00  0.00    -0.241 OA
ATOM     24  O   LIG d   1      -0.271  90.855 119.141  0.00  0.00    -0.241 OA
ENDBRANCH   3  22
TORSDOF 7
ENDMDL
MODEL 5
REMARK VINA RESULT:      -4.4      2.144      2.620
REMARK  7 active torsions:
REMARK  status: ('A' for Active; 'I' for Inactive)
REMARK    1  A    between atoms: C_2  and  C_3 
REMARK    2  A    between atoms: C_3  and  O_6 
REMARK    3  A    between atoms: C_3  and  C_4 
REMARK    4  A    between atoms: C_7  and  O_6 
REMARK    5  A    between atoms: C_9  and  C_10 
REMARK    6  A    between atoms: N_15  and  C_14 
REMARK    7  A    between atoms: N_20  and  C_19 
REMARK       I    between atoms: C_22  and  N_20 
ROOT
ATOM      1  C   LIG d   1      -4.432  93.175 118.580  0.00  0.00     0.161 C 
ATOM      2  C   LIG d   1      -5.146  92.289 117.756  0.00  0.00     0.016 C 
ATOM      3  C   LIG d   1      -4.706  90.980 117.454  0.00  0.00     0.038 C 
ATOM      4  C   LIG d   1      -3.588  90.411 118.082  0.00  0.00     0.028 C 
ATOM      5  C   LIG d   1      -2.556  91.440 118.532  0.00  0.00    -0.047 C 
ATOM      6  C   LIG d   1      -3.267  92.533 119.363  0.00  0.00     0.091 C 
ENDROOT
BRANCH   1   7
ATOM      7  O   LIG d   1      -5.337  93.839 119.485  0.00  0.00    -0.368 OA
BRANCH   7   8
ATOM      8  C   LIG d   1      -6.729  93.868 119.085  0.00  0.00     0.119 C 
BRANCH   8   9
ATOM      9  C   LIG d   1      -7.007  95.256 118.476  0.00  0.00     0.028 C 
ATOM     10  C   LIG d   1      -8.508  95.515 118.265  0.00  0.00     0.006 C 
ENDBRANCH   8   9
BRANCH   8  11
ATOM     11  C   LIG d   1      -7.659  93.765 120.298  0.00  0.00     0.028 C 
ATOM     12  C   LIG d   1      -8.137  92.328 120.561  0.00  0.00     0.006 C 
ENDBRANCH   8  11
ENDBRANCH   7   8
ENDBRANCH   1   7
BRANCH   6  13
ATOM     13  N   LIG d   1      -2.345  93.624 119.772  0.00  0.00    -0.311 N 
ATOM     14  C   LIG d   1      -1.619  94.333 118.908  0.00  0.00     0.210 C 
ATOM     15  C   LIG d   1      -0.718  95.397 119.542  0.00  0.00     0.109 C 
ATOM     16  O   LIG d   1      -1.661  94.203 117.676  0.00  0.00    -0.276 OA
ATOM     17  H   LIG d   1      -2.273  93.817 120.751  0.00  0.00     0.149 HD
ENDBRANCH   6  13
BRANCH   5  18
ATOM     18  N   LIG d   1      -1.513  90.724 119.290  0.00  0.00     0.381 N 
ATOM     19  H   LIG d   1      -1.077  90.041 118.704  0.00  0.00    -0.090 HD
ATOM     20  H   LIG d   1      -1.943  90.247 120.063  0.00  0.00    -0.090 HD
ATOM     21  H   LIG d   1      -0.832  91.369 119.625  0.00  0.00    -0.090 HD
ENDBRANCH   5  18
BRANCH   3  22
ATOM     22  C   LIG d   1      -5.364  90.240 116.484  0.00  0.00     0.382 C 
ATOM     23  O   LIG d   1      -4.706  89.577 115.647  0.00  0.00    -0.241 OA
ATOM     24  O   LIG d   1      -6.607  90.263 116.408  0.00  0.00    -0.241 OA
ENDBRANCH   3  22
TORSDOF 7
ENDMDL
MODEL 6
REMARK VINA RESULT:      -4.0     10.198     12.733
REMARK  7 active torsions:
REMARK  status: ('A' for Active; 'I' for Inactive)
REMARK    1  A    between atoms: C_2  and  C_3 
REMARK    2  A    between atoms: C_3  and  O_6 
REMARK    3  A    between atoms: C_3  and  C_4 
REMARK    4  A    between atoms: C_7  and  O_6 
REMARK    5  A    between atoms: C_9  and  C_10 
REMARK    6  A    between atoms: N_15  and  C_14 
REMARK    7  A    between atoms: N_20  and  C_19 
REMARK       I    between atoms: C_22  and  N_20 
ROOT
ATOM      1  C   LIG d   1       4.463  88.457 116.726  0.00  0.00     0.161 C 
ATOM      2  C   LIG d   1       3.150  88.949 116.641  0.00  0.00     0.016 C 
ATOM      3  C   LIG d   1       2.759  90.214 117.137  0.00  0.00     0.038 C 
ATOM      4  C   LIG d   1       3.694  91.142 117.620  0.00  0.00     0.028 C 
ATOM      5  C   LIG d   1       4.952  90.494 118.188  0.00  0.00    -0.047 C 
ATOM      6  C   LIG d   1       5.518  89.500 117.148  0.00  0.00     0.091 C 
ENDROOT
BRANCH   1   7
ATOM      7  O   LIG d   1       4.836  87.845 115.476  0.00  0.00    -0.368 OA
BRANCH   7   8
ATOM      8  C   LIG d   1       4.136  88.318 114.299  0.00  0.00     0.119 C 
BRANCH   8   9
ATOM      9  C   LIG d   1       3.807  87.089 113.430  0.00  0.00     0.028 C 
ATOM     10  C   LIG d   1       4.154  85.765 114.131  0.00  0.00     0.006 C 
ENDBRANCH   8   9
BRANCH   8  11
ATOM     11  C   LIG d   1       5.039  89.199 113.430  0.00  0.00     0.028 C 
ATOM     12  C   LIG d   1       6.533  88.902 113.631  0.00  0.00     0.006 C 
ENDBRANCH   8  11
ENDBRANCH   7   8
ENDBRANCH   1   7
BRANCH   6  13
ATOM     13  N   LIG d   1       6.703  88.761 117.658  0.00  0.00    -0.311 N 
ATOM     14  C   LIG d   1       7.958  89.114 117.389  0.00  0.00     0.210 C 
ATOM     15  C   LIG d   1       9.030  88.203 117.996  0.00  0.00     0.109 C 
ATOM     16  O   LIG d   1       8.287  90.114 116.733  0.00  0.00    -0.276 OA
ATOM     17  H   LIG d   1       6.528  87.954 118.225  0.00  0.00     0.149 HD
ENDBRANCH   6  13
BRANCH   5  18
ATOM     18  N   LIG d   1       5.896  91.576 118.527  0.00  0.00     0.381 N 
ATOM     19  H   LIG d   1       5.686  91.937 119.436  0.00  0.00    -0.090 HD
ATOM     20  H   LIG d   1       5.790  92.321 117.860  0.00  0.00    -0.090 HD
ATOM     21  H   LIG d   1       6.831  91.232 118.506  0.00  0.00    -0.090 HD
ENDBRANCH   5  18
BRANCH   3  22
ATOM     22  C   LIG d   1       1.414  90.546 117.191  0.00  0.00     0.382 C 
ATOM     23  O   LIG d   1       1.009  91.391 118.025  0.00  0.00    -0.241 OA
ATOM     24  O   LIG d   1       0.593  89.978 116.445  0.00  0.00    -0.241 OA
ENDBRANCH   3  22
TORSDOF 7
ENDMDL
MODEL 7
REMARK VINA RESULT:      -4.0      4.205      6.405
REMARK  7 active torsions:
REMARK  status: ('A' for Active; 'I' for Inactive)
REMARK    1  A    between atoms: C_2  and  C_3 
REMARK    2  A    between atoms: C_3  and  O_6 
REMARK    3  A    between atoms: C_3  and  C_4 
REMARK    4  A    between atoms: C_7  and  O_6 
REMARK    5  A    between atoms: C_9  and  C_10 
REMARK    6  A    between atoms: N_15  and  C_14 
REMARK    7  A    between atoms: N_20  and  C_19 
REMARK       I    between atoms: C_22  and  N_20 
ROOT
ATOM      1  C   LIG d   1      -1.534  92.240 118.574  0.00  0.00     0.161 C 
ATOM      2  C   LIG d   1      -0.749  91.286 117.904  0.00  0.00     0.016 C 
ATOM      3  C   LIG d   1       0.661  91.241 117.989  0.00  0.00     0.038 C 
ATOM      4  C   LIG d   1       1.378  92.058 118.876  0.00  0.00     0.028 C 
ATOM      5  C   LIG d   1       0.672  93.372 119.193  0.00  0.00    -0.047 C 
ATOM      6  C   LIG d   1      -0.778  93.070 119.634  0.00  0.00     0.091 C 
ENDROOT
BRANCH   1   7
ATOM      7  O   LIG d   1      -2.683  91.601 119.164  0.00  0.00    -0.368 OA
BRANCH   7   8
ATOM      8  C   LIG d   1      -3.941  91.783 118.469  0.00  0.00     0.119 C 
BRANCH   8   9
ATOM      9  C   LIG d   1      -4.908  92.489 119.439  0.00  0.00     0.028 C 
ATOM     10  C   LIG d   1      -6.367  92.436 118.955  0.00  0.00     0.006 C 
ENDBRANCH   8   9
BRANCH   8  11
ATOM     11  C   LIG d   1      -4.599  90.438 118.147  0.00  0.00     0.028 C 
ATOM     12  C   LIG d   1      -4.374  89.997 116.692  0.00  0.00     0.006 C 
ENDBRANCH   8  11
ENDBRANCH   7   8
ENDBRANCH   1   7
BRANCH   6  13
ATOM     13  N   LIG d   1      -1.565  94.306 119.881  0.00  0.00    -0.311 N 
ATOM     14  C   LIG d   1      -1.811  95.219 118.943  0.00  0.00     0.210 C 
ATOM     15  C   LIG d   1      -2.625  96.428 119.415  0.00  0.00     0.109 C 
ATOM     16  O   LIG d   1      -1.461  95.126 117.757  0.00  0.00    -0.276 OA
ATOM     17  H   LIG d   1      -1.914  94.446 120.809  0.00  0.00     0.149 HD
ENDBRANCH   6  13
BRANCH   5  18
ATOM     18  N   LIG d   1       1.460  94.062 120.232  0.00  0.00     0.381 N 
ATOM     19  H   LIG d   1       0.850  94.410 120.945  0.00  0.00    -0.090 HD
ATOM     20  H   LIG d   1       1.935  94.843 119.815  0.00  0.00    -0.090 HD
ATOM     21  H   LIG d   1       2.123  93.434 120.630  0.00  0.00    -0.090 HD
ENDBRANCH   5  18
BRANCH   3  22
ATOM     22  C   LIG d   1       1.373  90.396 117.151  0.00  0.00     0.382 C 
ATOM     23  O   LIG d   1       0.798  89.424 116.604  0.00  0.00    -0.241 OA
ATOM     24  O   LIG d   1       2.593  90.568 116.969  0.00  0.00    -0.241 OA
ENDBRANCH   3  22
TORSDOF 7
ENDMDL
MODEL 8
REMARK VINA RESULT:      -3.9     10.089     12.811
REMARK  7 active torsions:
REMARK  status: ('A' for Active; 'I' for Inactive)
REMARK    1  A    between atoms: C_2  and  C_3 
REMARK    2  A    between atoms: C_3  and  O_6 
REMARK    3  A    between atoms: C_3  and  C_4 
REMARK    4  A    between atoms: C_7  and  O_6 
REMARK    5  A    between atoms: C_9  and  C_10 
REMARK    6  A    between atoms: N_15  and  C_14 
REMARK    7  A    between atoms: N_20  and  C_19 
REMARK       I    between atoms: C_22  and  N_20 
ROOT
ATOM      1  C   LIG d   1       4.894  89.804 117.309  0.00  0.00     0.161 C 
ATOM      2  C   LIG d   1       5.773  90.369 118.248  0.00  0.00     0.016 C 
ATOM      3  C   LIG d   1       7.181  90.319 118.125  0.00  0.00     0.038 C 
ATOM      4  C   LIG d   1       7.807  89.829 116.969  0.00  0.00     0.028 C 
ATOM      5  C   LIG d   1       6.974  88.794 116.221  0.00  0.00    -0.047 C 
ATOM      6  C   LIG d   1       5.557  89.364 115.986  0.00  0.00     0.091 C 
ENDROOT
BRANCH   1   7
ATOM      7  O   LIG d   1       3.809  90.716 117.046  0.00  0.00    -0.368 OA
BRANCH   7   8
ATOM      8  C   LIG d   1       2.592  90.491 117.799  0.00  0.00     0.119 C 
BRANCH   8   9
ATOM      9  C   LIG d   1       1.515  90.011 116.806  0.00  0.00     0.028 C 
ATOM     10  C   LIG d   1       0.141  90.646 117.079  0.00  0.00     0.006 C 
ENDBRANCH   8   9
BRANCH   8  11
ATOM     11  C   LIG d   1       2.050  91.798 118.385  0.00  0.00     0.028 C 
ATOM     12  C   LIG d   1       2.946  92.371 119.494  0.00  0.00     0.006 C 
ENDBRANCH   8  11
ENDBRANCH   7   8
ENDBRANCH   1   7
BRANCH   6  13
ATOM     13  N   LIG d   1       4.652  88.382 115.335  0.00  0.00    -0.311 N 
ATOM     14  C   LIG d   1       4.085  88.584 114.146  0.00  0.00     0.210 C 
ATOM     15  C   LIG d   1       3.170  87.453 113.666  0.00  0.00     0.109 C 
ATOM     16  O   LIG d   1       4.278  89.578 113.430  0.00  0.00    -0.276 OA
ATOM     17  H   LIG d   1       4.465  87.534 115.832  0.00  0.00     0.149 HD
ENDBRANCH   6  13
BRANCH   5  18
ATOM     18  N   LIG d   1       7.683  88.472 114.968  0.00  0.00     0.381 N 
ATOM     19  H   LIG d   1       7.159  88.809 114.186  0.00  0.00    -0.090 HD
ATOM     20  H   LIG d   1       7.764  87.474 114.887  0.00  0.00    -0.090 HD
ATOM     21  H   LIG d   1       8.589  88.886 114.973  0.00  0.00    -0.090 HD
ENDBRANCH   5  18
BRANCH   3  22
ATOM     22  C   LIG d   1       7.978  90.726 119.184  0.00  0.00     0.382 C 
ATOM     23  O   LIG d   1       8.582  89.873 119.878  0.00  0.00    -0.241 OA
ATOM     24  O   LIG d   1       8.066  91.932 119.482  0.00  0.00    -0.241 OA
ENDBRANCH   3  22
TORSDOF 7
ENDMDL
MODEL 9
REMARK VINA RESULT:      -3.8      2.613      6.286
REMARK  7 active torsions:
REMARK  status: ('A' for Active; 'I' for Inactive)
REMARK    1  A    between atoms: C_2  and  C_3 
REMARK    2  A    between atoms: C_3  and  O_6 
REMARK    3  A    between atoms: C_3  and  C_4 
REMARK    4  A    between atoms: C_7  and  O_6 
REMARK    5  A    between atoms: C_9  and  C_10 
REMARK    6  A    between atoms: N_15  and  C_14 
REMARK    7  A    between atoms: N_20  and  C_19 
REMARK       I    between atoms: C_22  and  N_20 
ROOT
ATOM      1  C   LIG d   1      -4.300  93.090 118.862  0.00  0.00     0.161 C 
ATOM      2  C   LIG d   1      -4.472  94.346 119.467  0.00  0.00     0.016 C 
ATOM      3  C   LIG d   1      -5.704  94.792 119.999  0.00  0.00     0.038 C 
ATOM      4  C   LIG d   1      -6.818  93.946 120.098  0.00  0.00     0.028 C 
ATOM      5  C   LIG d   1      -6.837  92.843 119.044  0.00  0.00    -0.047 C 
ATOM      6  C   LIG d   1      -5.476  92.110 119.061  0.00  0.00     0.091 C 
ENDROOT
BRANCH   1   7
ATOM      7  O   LIG d   1      -3.069  92.493 119.316  0.00  0.00    -0.368 OA
BRANCH   7   8
ATOM      8  C   LIG d   1      -1.970  92.502 118.372  0.00  0.00     0.119 C 
BRANCH   8   9
ATOM      9  C   LIG d   1      -1.437  91.060 118.268  0.00  0.00     0.028 C 
ATOM     10  C   LIG d   1      -0.059  90.991 117.590  0.00  0.00     0.006 C 
ENDBRANCH   8   9
BRANCH   8  11
ATOM     11  C   LIG d   1      -0.793  93.333 118.894  0.00  0.00     0.028 C 
ATOM     12  C   LIG d   1      -0.905  94.821 118.526  0.00  0.00     0.006 C 
ENDBRANCH   8  11
ENDBRANCH   7   8
ENDBRANCH   1   7
BRANCH   6  13
ATOM     13  N   LIG d   1      -5.378  91.071 118.003  0.00  0.00    -0.311 N 
ATOM     14  C   LIG d   1      -5.484  91.337 116.702  0.00  0.00     0.210 C 
ATOM     15  C   LIG d   1      -5.375  90.117 115.782  0.00  0.00     0.109 C 
ATOM     16  O   LIG d   1      -5.627  92.471 116.221  0.00  0.00    -0.276 OA
ATOM     17  H   LIG d   1      -5.232  90.127 118.303  0.00  0.00     0.149 HD
ENDBRANCH   6  13
BRANCH   5  18
ATOM     18  N   LIG d   1      -7.975  91.955 119.349  0.00  0.00     0.381 N 
ATOM     19  H   LIG d   1      -8.405  91.652 118.498  0.00  0.00    -0.090 HD
ATOM     20  H   LIG d   1      -8.655  92.469 119.880  0.00  0.00    -0.090 HD
ATOM     21  H   LIG d   1      -7.662  91.166 119.871  0.00  0.00    -0.090 HD
ENDBRANCH   5  18
BRANCH   3  22
ATOM     22  C   LIG d   1      -5.841  96.111 120.402  0.00  0.00     0.382 C 
ATOM     23  O   LIG d   1      -4.853  96.731 120.867  0.00  0.00    -0.241 OA
ATOM     24  O   LIG d   1      -6.950  96.676 120.349  0.00  0.00    -0.241 OA
ENDBRANCH   3  22
TORSDOF 7
ENDMDL
