MODEL 1
REMARK VINA RESULT:      -4.9      0.000      0.000
REMARK  7 active torsions:
REMARK  status: ('A' for Active; 'I' for Inactive)
REMARK    1  A    between atoms: C_2  and  C_3 
REMARK    2  A    between atoms: C_3  and  O_6 
REMARK    3  A    between atoms: C_3  and  C_4 
REMARK    4  A    between atoms: C_7  and  O_6 
REMARK    5  A    between atoms: C_9  and  C_10 
REMARK    6  A    between atoms: N_15  and  C_14 
REMARK    7  A    between atoms: N_20  and  C_19 
REMARK       I    between atoms: C_22  and  N_20 
ROOT
ATOM      1  C   LIG d   1      -5.015  91.865 118.637  0.00  0.00     0.161 C 
ATOM      2  C   LIG d   1      -6.076  91.555 117.771  0.00  0.00     0.016 C 
ATOM      3  C   LIG d   1      -5.949  90.686 116.663  0.00  0.00     0.038 C 
ATOM      4  C   LIG d   1      -4.780  89.944 116.434  0.00  0.00     0.028 C 
ATOM      5  C   LIG d   1      -3.523  90.607 116.987  0.00  0.00    -0.047 C 
ATOM      6  C   LIG d   1      -3.763  90.979 118.468  0.00  0.00     0.091 C 
ENDROOT
BRANCH   1   7
ATOM      7  O   LIG d   1      -5.473  91.829 120.004  0.00  0.00    -0.368 OA
BRANCH   7   8
ATOM      8  C   LIG d   1      -5.529  93.104 120.690  0.00  0.00     0.119 C 
BRANCH   8   9
ATOM      9  C   LIG d   1      -7.015  93.435 120.930  0.00  0.00     0.028 C 
ATOM     10  C   LIG d   1      -7.597  94.348 119.837  0.00  0.00     0.006 C 
ENDBRANCH   8   9
BRANCH   8  11
ATOM     11  C   LIG d   1      -4.999  94.237 119.806  0.00  0.00     0.028 C 
ATOM     12  C   LIG d   1      -3.748  94.912 120.391  0.00  0.00     0.006 C 
ENDBRANCH   8  11
ENDBRANCH   7   8
ENDBRANCH   1   7
BRANCH   6  13
ATOM     13  N   LIG d   1      -2.612  91.708 119.063  0.00  0.00    -0.311 N 
ATOM     14  C   LIG d   1      -1.622  91.105 119.718  0.00  0.00     0.210 C 
ATOM     15  C   LIG d   1      -0.544  92.045 120.268  0.00  0.00     0.109 C 
ATOM     16  O   LIG d   1      -1.516  89.879 119.868  0.00  0.00    -0.276 OA
ATOM     17  H   LIG d   1      -2.602  92.704 118.961  0.00  0.00     0.149 HD
ENDBRANCH   6  13
BRANCH   5  18
ATOM     18  N   LIG d   1      -2.404  89.665 116.801  0.00  0.00     0.381 N 
ATOM     19  H   LIG d   1      -1.811  89.680 117.607  0.00  0.00    -0.090 HD
ATOM     20  H   LIG d   1      -1.862  89.956 116.006  0.00  0.00    -0.090 HD
ATOM     21  H   LIG d   1      -2.754  88.744 116.654  0.00  0.00    -0.090 HD
ENDBRANCH   5  18
BRANCH   3  22
ATOM     22  C   LIG d   1      -6.985  90.582 115.748  0.00  0.00     0.382 C 
ATOM     23  O   LIG d   1      -8.037  89.972 116.058  0.00  0.00    -0.241 OA
ATOM     24  O   LIG d   1      -6.864  91.053 114.601  0.00  0.00    -0.241 OA
ENDBRANCH   3  22
TORSDOF 7
ENDMDL
MODEL 2
REMARK VINA RESULT:      -4.8      6.311      9.185
REMARK  7 active torsions:
REMARK  status: ('A' for Active; 'I' for Inactive)
REMARK    1  A    between atoms: C_2  and  C_3 
REMARK    2  A    between atoms: C_3  and  O_6 
REMARK    3  A    between atoms: C_3  and  C_4 
REMARK    4  A    between atoms: C_7  and  O_6 
REMARK    5  A    between atoms: C_9  and  C_10 
REMARK    6  A    between atoms: N_15  and  C_14 
REMARK    7  A    between atoms: N_20  and  C_19 
REMARK       I    between atoms: C_22  and  N_20 
ROOT
ATOM      1  C   LIG d   1       1.821  88.606 116.065  0.00  0.00     0.161 C 
ATOM      2  C   LIG d   1       0.558  88.974 116.559  0.00  0.00     0.016 C 
ATOM      3  C   LIG d   1       0.319  90.179 117.261  0.00  0.00     0.038 C 
ATOM      4  C   LIG d   1       1.301  91.173 117.384  0.00  0.00     0.028 C 
ATOM      5  C   LIG d   1       2.724  90.627 117.340  0.00  0.00    -0.047 C 
ATOM      6  C   LIG d   1       2.879  89.728 116.092  0.00  0.00     0.091 C 
ENDROOT
BRANCH   1   7
ATOM      7  O   LIG d   1       1.687  88.076 114.731  0.00  0.00    -0.368 OA
BRANCH   7   8
ATOM      8  C   LIG d   1       1.830  86.640 114.598  0.00  0.00     0.119 C 
BRANCH   8   9
ATOM      9  C   LIG d   1       2.801  86.378 113.430  0.00  0.00     0.028 C 
ATOM     10  C   LIG d   1       4.003  85.515 113.848  0.00  0.00     0.006 C 
ENDBRANCH   8   9
BRANCH   8  11
ATOM     11  C   LIG d   1       0.510  85.985 114.183  0.00  0.00     0.028 C 
ATOM     12  C   LIG d   1      -0.326  85.516 115.385  0.00  0.00     0.006 C 
ENDBRANCH   8  11
ENDBRANCH   7   8
ENDBRANCH   1   7
BRANCH   6  13
ATOM     13  N   LIG d   1       4.217  89.086 116.019  0.00  0.00    -0.311 N 
ATOM     14  C   LIG d   1       4.935  89.013 114.899  0.00  0.00     0.210 C 
ATOM     15  C   LIG d   1       6.279  88.291 115.039  0.00  0.00     0.109 C 
ATOM     16  O   LIG d   1       4.600  89.505 113.811  0.00  0.00    -0.276 OA
ATOM     17  H   LIG d   1       4.579  88.688 116.863  0.00  0.00     0.149 HD
ENDBRANCH   6  13
BRANCH   5  18
ATOM     18  N   LIG d   1       3.644  91.780 117.340  0.00  0.00     0.381 N 
ATOM     19  H   LIG d   1       3.326  92.467 116.686  0.00  0.00    -0.090 HD
ATOM     20  H   LIG d   1       4.555  91.469 117.053  0.00  0.00    -0.090 HD
ATOM     21  H   LIG d   1       3.692  92.178 118.252  0.00  0.00    -0.090 HD
ENDBRANCH   5  18
BRANCH   3  22
ATOM     22  C   LIG d   1      -0.904  90.380 117.882  0.00  0.00     0.382 C 
ATOM     23  O   LIG d   1      -1.877  89.638 117.606  0.00  0.00    -0.241 OA
ATOM     24  O   LIG d   1      -1.058  91.322 118.682  0.00  0.00    -0.241 OA
ENDBRANCH   3  22
TORSDOF 7
ENDMDL
MODEL 3
REMARK VINA RESULT:      -4.7      6.899     10.136
REMARK  7 active torsions:
REMARK  status: ('A' for Active; 'I' for Inactive)
REMARK    1  A    between atoms: C_2  and  C_3 
REMARK    2  A    between atoms: C_3  and  O_6 
REMARK    3  A    between atoms: C_3  and  C_4 
REMARK    4  A    between atoms: C_7  and  O_6 
REMARK    5  A    between atoms: C_9  and  C_10 
REMARK    6  A    between atoms: N_15  and  C_14 
REMARK    7  A    between atoms: N_20  and  C_19 
REMARK       I    between atoms: C_22  and  N_20 
ROOT
ATOM      1  C   LIG d   1       2.932  88.932 116.032  0.00  0.00     0.161 C 
ATOM      2  C   LIG d   1       3.465  90.066 116.666  0.00  0.00     0.016 C 
ATOM      3  C   LIG d   1       2.671  91.045 117.307  0.00  0.00     0.038 C 
ATOM      4  C   LIG d   1       1.290  90.876 117.489  0.00  0.00     0.028 C 
ATOM      5  C   LIG d   1       0.642  89.995 116.427  0.00  0.00    -0.047 C 
ATOM      6  C   LIG d   1       1.438  88.674 116.317  0.00  0.00     0.091 C 
ENDROOT
BRANCH   1   7
ATOM      7  O   LIG d   1       3.715  87.770 116.372  0.00  0.00    -0.368 OA
BRANCH   7   8
ATOM      8  C   LIG d   1       4.608  87.280 115.341  0.00  0.00     0.119 C 
BRANCH   8   9
ATOM      9  C   LIG d   1       6.033  87.738 115.707  0.00  0.00     0.028 C 
ATOM     10  C   LIG d   1       6.906  86.583 116.224  0.00  0.00     0.006 C 
ENDBRANCH   8   9
BRANCH   8  11
ATOM     11  C   LIG d   1       4.307  87.930 113.988  0.00  0.00     0.028 C 
ATOM     12  C   LIG d   1       5.500  88.723 113.430  0.00  0.00     0.006 C 
ENDBRANCH   8  11
ENDBRANCH   7   8
ENDBRANCH   1   7
BRANCH   6  13
ATOM     13  N   LIG d   1       0.921  87.789 115.241  0.00  0.00    -0.311 N 
ATOM     14  C   LIG d   1       0.734  86.479 115.396  0.00  0.00     0.210 C 
ATOM     15  C   LIG d   1       0.212  85.749 114.154  0.00  0.00     0.109 C 
ATOM     16  O   LIG d   1       0.920  85.858 116.453  0.00  0.00    -0.276 OA
ATOM     17  H   LIG d   1       0.714  88.216 114.359  0.00  0.00     0.149 HD
ENDBRANCH   6  13
BRANCH   5  18
ATOM     18  N   LIG d   1      -0.766  89.792 116.815  0.00  0.00     0.381 N 
ATOM     19  H   LIG d   1      -1.314  89.583 116.004  0.00  0.00    -0.090 HD
ATOM     20  H   LIG d   1      -1.117  90.640 117.223  0.00  0.00    -0.090 HD
ATOM     21  H   LIG d   1      -0.834  89.046 117.472  0.00  0.00    -0.090 HD
ENDBRANCH   5  18
BRANCH   3  22
ATOM     22  C   LIG d   1       3.253  92.228 117.738  0.00  0.00     0.382 C 
ATOM     23  O   LIG d   1       3.919  92.927 116.938  0.00  0.00    -0.241 OA
ATOM     24  O   LIG d   1       3.157  92.581 118.929  0.00  0.00    -0.241 OA
ENDBRANCH   3  22
TORSDOF 7
ENDMDL
MODEL 4
REMARK VINA RESULT:      -4.6      4.942      7.750
REMARK  7 active torsions:
REMARK  status: ('A' for Active; 'I' for Inactive)
REMARK    1  A    between atoms: C_2  and  C_3 
REMARK    2  A    between atoms: C_3  and  O_6 
REMARK    3  A    between atoms: C_3  and  C_4 
REMARK    4  A    between atoms: C_7  and  O_6 
REMARK    5  A    between atoms: C_9  and  C_10 
REMARK    6  A    between atoms: N_15  and  C_14 
REMARK    7  A    between atoms: N_20  and  C_19 
REMARK       I    between atoms: C_22  and  N_20 
ROOT
ATOM      1  C   LIG d   1       0.823  89.462 117.137  0.00  0.00     0.161 C 
ATOM      2  C   LIG d   1      -0.557  89.219 117.036  0.00  0.00     0.016 C 
ATOM      3  C   LIG d   1      -1.539  90.055 117.616  0.00  0.00     0.038 C 
ATOM      4  C   LIG d   1      -1.210  91.282 118.211  0.00  0.00     0.028 C 
ATOM      5  C   LIG d   1       0.205  91.321 118.778  0.00  0.00    -0.047 C 
ATOM      6  C   LIG d   1       1.196  90.855 117.687  0.00  0.00     0.091 C 
ENDROOT
BRANCH   1   7
ATOM      7  O   LIG d   1       1.452  89.244 115.858  0.00  0.00    -0.368 OA
BRANCH   7   8
ATOM      8  C   LIG d   1       2.333  88.097 115.769  0.00  0.00     0.119 C 
BRANCH   8   9
ATOM      9  C   LIG d   1       3.741  88.621 115.429  0.00  0.00     0.028 C 
ATOM     10  C   LIG d   1       4.332  87.947 114.179  0.00  0.00     0.006 C 
ENDBRANCH   8   9
BRANCH   8  11
ATOM     11  C   LIG d   1       1.946  87.187 114.600  0.00  0.00     0.028 C 
ATOM     12  C   LIG d   1       0.702  86.333 114.896  0.00  0.00     0.006 C 
ENDBRANCH   8  11
ENDBRANCH   7   8
ENDBRANCH   1   7
BRANCH   6  13
ATOM     13  N   LIG d   1       2.594  90.782 118.184  0.00  0.00    -0.311 N 
ATOM     14  C   LIG d   1       3.570  91.576 117.747  0.00  0.00     0.210 C 
ATOM     15  C   LIG d   1       4.943  91.321 118.377  0.00  0.00     0.109 C 
ATOM     16  O   LIG d   1       3.423  92.488 116.919  0.00  0.00    -0.276 OA
ATOM     17  H   LIG d   1       2.795  90.091 118.880  0.00  0.00     0.149 HD
ENDBRANCH   6  13
BRANCH   5  18
ATOM     18  N   LIG d   1       0.462  92.697 119.243  0.00  0.00     0.381 N 
ATOM     19  H   LIG d   1       1.228  93.089 118.733  0.00  0.00    -0.090 HD
ATOM     20  H   LIG d   1       0.711  92.670 120.216  0.00  0.00    -0.090 HD
ATOM     21  H   LIG d   1      -0.352  93.257 119.117  0.00  0.00    -0.090 HD
ENDBRANCH   5  18
BRANCH   3  22
ATOM     22  C   LIG d   1      -2.864  89.646 117.639  0.00  0.00     0.382 C 
ATOM     23  O   LIG d   1      -3.473  89.554 118.732  0.00  0.00    -0.241 OA
ATOM     24  O   LIG d   1      -3.444  89.326 116.584  0.00  0.00    -0.241 OA
ENDBRANCH   3  22
TORSDOF 7
ENDMDL
MODEL 5
REMARK VINA RESULT:      -4.6      4.736      8.583
REMARK  7 active torsions:
REMARK  status: ('A' for Active; 'I' for Inactive)
REMARK    1  A    between atoms: C_2  and  C_3 
REMARK    2  A    between atoms: C_3  and  O_6 
REMARK    3  A    between atoms: C_3  and  C_4 
REMARK    4  A    between atoms: C_7  and  O_6 
REMARK    5  A    between atoms: C_9  and  C_10 
REMARK    6  A    between atoms: N_15  and  C_14 
REMARK    7  A    between atoms: N_20  and  C_19 
REMARK       I    between atoms: C_22  and  N_20 
ROOT
ATOM      1  C   LIG d   1       1.095  89.573 116.579  0.00  0.00     0.161 C 
ATOM      2  C   LIG d   1       2.378  90.109 116.778  0.00  0.00     0.016 C 
ATOM      3  C   LIG d   1       2.611  91.363 117.388  0.00  0.00     0.038 C 
ATOM      4  C   LIG d   1       1.577  92.102 117.981  0.00  0.00     0.028 C 
ATOM      5  C   LIG d   1       0.210  91.839 117.359  0.00  0.00    -0.047 C 
ATOM      6  C   LIG d   1      -0.038  90.314 117.319  0.00  0.00     0.091 C 
ENDROOT
BRANCH   1   7
ATOM      7  O   LIG d   1       1.090  88.174 116.928  0.00  0.00    -0.368 OA
BRANCH   7   8
ATOM      8  C   LIG d   1       2.005  87.329 116.188  0.00  0.00     0.119 C 
BRANCH   8   9
ATOM      9  C   LIG d   1       1.195  86.637 115.074  0.00  0.00     0.028 C 
ATOM     10  C   LIG d   1      -0.198  86.192 115.550  0.00  0.00     0.006 C 
ENDBRANCH   8   9
BRANCH   8  11
ATOM     11  C   LIG d   1       2.546  86.193 117.061  0.00  0.00     0.028 C 
ATOM     12  C   LIG d   1       2.501  86.523 118.562  0.00  0.00     0.006 C 
ENDBRANCH   8  11
ENDBRANCH   7   8
ENDBRANCH   1   7
BRANCH   6  13
ATOM     13  N   LIG d   1      -1.317  89.965 116.648  0.00  0.00    -0.311 N 
ATOM     14  C   LIG d   1      -2.454  89.744 117.306  0.00  0.00     0.210 C 
ATOM     15  C   LIG d   1      -3.651  89.378 116.423  0.00  0.00     0.109 C 
ATOM     16  O   LIG d   1      -2.591  89.847 118.534  0.00  0.00    -0.276 OA
ATOM     17  H   LIG d   1      -1.303  89.891 115.649  0.00  0.00     0.149 HD
ENDBRANCH   6  13
BRANCH   5  18
ATOM     18  N   LIG d   1      -0.792  92.567 118.160  0.00  0.00     0.381 N 
ATOM     19  H   LIG d   1      -0.331  93.158 118.823  0.00  0.00    -0.090 HD
ATOM     20  H   LIG d   1      -1.351  91.902 118.664  0.00  0.00    -0.090 HD
ATOM     21  H   LIG d   1      -1.372  93.115 117.563  0.00  0.00    -0.090 HD
ENDBRANCH   5  18
BRANCH   3  22
ATOM     22  C   LIG d   1       3.886  91.907 117.374  0.00  0.00     0.382 C 
ATOM     23  O   LIG d   1       4.061  93.083 116.972  0.00  0.00    -0.241 OA
ATOM     24  O   LIG d   1       4.869  91.223 117.717  0.00  0.00    -0.241 OA
ENDBRANCH   3  22
TORSDOF 7
ENDMDL
MODEL 6
REMARK VINA RESULT:      -4.4      5.045      8.036
REMARK  7 active torsions:
REMARK  status: ('A' for Active; 'I' for Inactive)
REMARK    1  A    between atoms: C_2  and  C_3 
REMARK    2  A    between atoms: C_3  and  O_6 
REMARK    3  A    between atoms: C_3  and  C_4 
REMARK    4  A    between atoms: C_7  and  O_6 
REMARK    5  A    between atoms: C_9  and  C_10 
REMARK    6  A    between atoms: N_15  and  C_14 
REMARK    7  A    between atoms: N_20  and  C_19 
REMARK       I    between atoms: C_22  and  N_20 
ROOT
ATOM      1  C   LIG d   1       1.518  90.480 117.524  0.00  0.00     0.161 C 
ATOM      2  C   LIG d   1       2.253  91.630 117.857  0.00  0.00     0.016 C 
ATOM      3  C   LIG d   1       3.602  91.827 117.484  0.00  0.00     0.038 C 
ATOM      4  C   LIG d   1       4.268  90.947 116.618  0.00  0.00     0.028 C 
ATOM      5  C   LIG d   1       3.728  89.522 116.669  0.00  0.00    -0.047 C 
ATOM      6  C   LIG d   1       2.193  89.560 116.485  0.00  0.00     0.091 C 
ENDROOT
BRANCH   1   7
ATOM      7  O   LIG d   1       0.199  90.854 117.079  0.00  0.00    -0.368 OA
BRANCH   7   8
ATOM      8  C   LIG d   1      -0.881  90.614 118.015  0.00  0.00     0.119 C 
BRANCH   8   9
ATOM      9  C   LIG d   1      -1.891  89.677 117.326  0.00  0.00     0.028 C 
ATOM     10  C   LIG d   1      -3.346  90.132 117.529  0.00  0.00     0.006 C 
ENDBRANCH   8   9
BRANCH   8  11
ATOM     11  C   LIG d   1      -1.657  91.901 118.311  0.00  0.00     0.028 C 
ATOM     12  C   LIG d   1      -1.021  93.142 117.667  0.00  0.00     0.006 C 
ENDBRANCH   8  11
ENDBRANCH   7   8
ENDBRANCH   1   7
BRANCH   6  13
ATOM     13  N   LIG d   1       1.574  88.215 116.606  0.00  0.00    -0.311 N 
ATOM     14  C   LIG d   1       1.307  87.434 115.560  0.00  0.00     0.210 C 
ATOM     15  C   LIG d   1       0.650  86.094 115.905  0.00  0.00     0.109 C 
ATOM     16  O   LIG d   1       1.581  87.710 114.383  0.00  0.00    -0.276 OA
ATOM     17  H   LIG d   1       1.347  87.898 117.528  0.00  0.00     0.149 HD
ENDBRANCH   6  13
BRANCH   5  18
ATOM     18  N   LIG d   1       4.417  88.746 115.620  0.00  0.00     0.381 N 
ATOM     19  H   LIG d   1       4.121  89.060 114.717  0.00  0.00    -0.090 HD
ATOM     20  H   LIG d   1       4.166  87.778 115.715  0.00  0.00    -0.090 HD
ATOM     21  H   LIG d   1       5.403  88.852 115.711  0.00  0.00    -0.090 HD
ENDBRANCH   5  18
BRANCH   3  22
ATOM     22  C   LIG d   1       4.313  92.894 118.013  0.00  0.00     0.382 C 
ATOM     23  O   LIG d   1       4.601  93.876 117.288  0.00  0.00    -0.241 OA
ATOM     24  O   LIG d   1       4.707  92.867 119.194  0.00  0.00    -0.241 OA
ENDBRANCH   3  22
TORSDOF 7
ENDMDL
MODEL 7
REMARK VINA RESULT:      -4.3      6.863      9.737
REMARK  7 active torsions:
REMARK  status: ('A' for Active; 'I' for Inactive)
REMARK    1  A    between atoms: C_2  and  C_3 
REMARK    2  A    between atoms: C_3  and  O_6 
REMARK    3  A    between atoms: C_3  and  C_4 
REMARK    4  A    between atoms: C_7  and  O_6 
REMARK    5  A    between atoms: C_9  and  C_10 
REMARK    6  A    between atoms: N_15  and  C_14 
REMARK    7  A    between atoms: N_20  and  C_19 
REMARK       I    between atoms: C_22  and  N_20 
ROOT
ATOM      1  C   LIG d   1       2.872  88.855 115.825  0.00  0.00     0.161 C 
ATOM      2  C   LIG d   1       3.368  90.000 116.468  0.00  0.00     0.016 C 
ATOM      3  C   LIG d   1       2.560  90.876 117.230  0.00  0.00     0.038 C 
ATOM      4  C   LIG d   1       1.221  90.581 117.526  0.00  0.00     0.028 C 
ATOM      5  C   LIG d   1       0.550  89.697 116.480  0.00  0.00    -0.047 C 
ATOM      6  C   LIG d   1       1.437  88.456 116.228  0.00  0.00     0.091 C 
ENDROOT
BRANCH   1   7
ATOM      7  O   LIG d   1       3.775  87.750 116.029  0.00  0.00    -0.368 OA
BRANCH   7   8
ATOM      8  C   LIG d   1       4.578  87.798 117.234  0.00  0.00     0.119 C 
BRANCH   8   9
ATOM      9  C   LIG d   1       6.004  87.349 116.858  0.00  0.00     0.028 C 
ATOM     10  C   LIG d   1       6.580  88.151 115.678  0.00  0.00     0.006 C 
ENDBRANCH   8   9
BRANCH   8  11
ATOM     11  C   LIG d   1       4.092  86.779 118.269  0.00  0.00     0.028 C 
ATOM     12  C   LIG d   1       3.142  87.393 119.308  0.00  0.00     0.006 C 
ENDBRANCH   8  11
ENDBRANCH   7   8
ENDBRANCH   1   7
BRANCH   6  13
ATOM     13  N   LIG d   1       0.895  87.580 115.157  0.00  0.00    -0.311 N 
ATOM     14  C   LIG d   1       0.645  86.283 115.327  0.00  0.00     0.210 C 
ATOM     15  C   LIG d   1       0.109  85.560 114.087  0.00  0.00     0.109 C 
ATOM     16  O   LIG d   1       0.787  85.669 116.395  0.00  0.00    -0.276 OA
ATOM     17  H   LIG d   1       0.721  88.003 114.266  0.00  0.00     0.149 HD
ENDBRANCH   6  13
BRANCH   5  18
ATOM     18  N   LIG d   1      -0.794  89.355 116.982  0.00  0.00     0.381 N 
ATOM     19  H   LIG d   1      -0.944  89.788 117.871  0.00  0.00    -0.090 HD
ATOM     20  H   LIG d   1      -0.852  88.359 117.102  0.00  0.00    -0.090 HD
ATOM     21  H   LIG d   1      -1.487  89.660 116.334  0.00  0.00    -0.090 HD
ENDBRANCH   5  18
BRANCH   3  22
ATOM     22  C   LIG d   1       3.082  92.083 117.670  0.00  0.00     0.382 C 
ATOM     23  O   LIG d   1       2.764  92.528 118.800  0.00  0.00    -0.241 OA
ATOM     24  O   LIG d   1       3.830  92.754 116.934  0.00  0.00    -0.241 OA
ENDBRANCH   3  22
TORSDOF 7
ENDMDL
MODEL 8
REMARK VINA RESULT:      -4.2      5.284      8.218
REMARK  7 active torsions:
REMARK  status: ('A' for Active; 'I' for Inactive)
REMARK    1  A    between atoms: C_2  and  C_3 
REMARK    2  A    between atoms: C_3  and  O_6 
REMARK    3  A    between atoms: C_3  and  C_4 
REMARK    4  A    between atoms: C_7  and  O_6 
REMARK    5  A    between atoms: C_9  and  C_10 
REMARK    6  A    between atoms: N_15  and  C_14 
REMARK    7  A    between atoms: N_20  and  C_19 
REMARK       I    between atoms: C_22  and  N_20 
ROOT
ATOM      1  C   LIG d   1       2.276  91.279 117.219  0.00  0.00     0.161 C 
ATOM      2  C   LIG d   1       1.179  91.999 117.719  0.00  0.00     0.016 C 
ATOM      3  C   LIG d   1      -0.143  91.498 117.725  0.00  0.00     0.038 C 
ATOM      4  C   LIG d   1      -0.436  90.174 117.366  0.00  0.00     0.028 C 
ATOM      5  C   LIG d   1       0.563  89.579 116.380  0.00  0.00    -0.047 C 
ATOM      6  C   LIG d   1       1.994  89.791 116.926  0.00  0.00     0.091 C 
ENDROOT
BRANCH   1   7
ATOM      7  O   LIG d   1       3.397  91.409 118.116  0.00  0.00    -0.368 OA
BRANCH   7   8
ATOM      8  C   LIG d   1       4.593  92.008 117.560  0.00  0.00     0.119 C 
BRANCH   8   9
ATOM      9  C   LIG d   1       5.798  91.445 118.339  0.00  0.00     0.028 C 
ATOM     10  C   LIG d   1       6.213  90.049 117.848  0.00  0.00     0.006 C 
ENDBRANCH   8   9
BRANCH   8  11
ATOM     11  C   LIG d   1       4.623  93.520 117.804  0.00  0.00     0.028 C 
ATOM     12  C   LIG d   1       5.910  93.985 118.504  0.00  0.00     0.006 C 
ENDBRANCH   8  11
ENDBRANCH   7   8
ENDBRANCH   1   7
BRANCH   6  13
ATOM     13  N   LIG d   1       3.037  89.312 115.982  0.00  0.00    -0.311 N 
ATOM     14  C   LIG d   1       3.577  88.096 116.040  0.00  0.00     0.210 C 
ATOM     15  C   LIG d   1       4.650  87.813 114.984  0.00  0.00     0.109 C 
ATOM     16  O   LIG d   1       3.245  87.213 116.845  0.00  0.00    -0.276 OA
ATOM     17  H   LIG d   1       3.343  89.954 115.276  0.00  0.00     0.149 HD
ENDBRANCH   6  13
BRANCH   5  18
ATOM     18  N   LIG d   1       0.218  88.156 116.199  0.00  0.00     0.381 N 
ATOM     19  H   LIG d   1       1.053  87.607 116.161  0.00  0.00    -0.090 HD
ATOM     20  H   LIG d   1      -0.271  88.048 115.328  0.00  0.00    -0.090 HD
ATOM     21  H   LIG d   1      -0.357  87.847 116.952  0.00  0.00    -0.090 HD
ENDBRANCH   5  18
BRANCH   3  22
ATOM     22  C   LIG d   1      -1.195  92.339 118.055  0.00  0.00     0.382 C 
ATOM     23  O   LIG d   1      -2.303  91.855 118.389  0.00  0.00    -0.241 OA
ATOM     24  O   LIG d   1      -1.063  93.575 117.981  0.00  0.00    -0.241 OA
ENDBRANCH   3  22
TORSDOF 7
ENDMDL
MODEL 9
REMARK VINA RESULT:      -4.1      3.372      7.640
REMARK  7 active torsions:
REMARK  status: ('A' for Active; 'I' for Inactive)
REMARK    1  A    between atoms: C_2  and  C_3 
REMARK    2  A    between atoms: C_3  and  O_6 
REMARK    3  A    between atoms: C_3  and  C_4 
REMARK    4  A    between atoms: C_7  and  O_6 
REMARK    5  A    between atoms: C_9  and  C_10 
REMARK    6  A    between atoms: N_15  and  C_14 
REMARK    7  A    between atoms: N_20  and  C_19 
REMARK       I    between atoms: C_22  and  N_20 
ROOT
ATOM      1  C   LIG d   1      -0.315  91.615 117.632  0.00  0.00     0.161 C 
ATOM      2  C   LIG d   1       0.815  92.105 118.308  0.00  0.00     0.016 C 
ATOM      3  C   LIG d   1       0.755  92.720 119.580  0.00  0.00     0.038 C 
ATOM      4  C   LIG d   1      -0.428  92.751 120.333  0.00  0.00     0.028 C 
ATOM      5  C   LIG d   1      -1.691  92.721 119.480  0.00  0.00    -0.047 C 
ATOM      6  C   LIG d   1      -1.598  91.540 118.487  0.00  0.00     0.091 C 
ENDROOT
BRANCH   1   7
ATOM      7  O   LIG d   1      -0.020  90.327 117.057  0.00  0.00    -0.368 OA
BRANCH   7   8
ATOM      8  C   LIG d   1       1.259  89.748 117.414  0.00  0.00     0.119 C 
BRANCH   8   9
ATOM      9  C   LIG d   1       1.810  89.035 116.164  0.00  0.00     0.028 C 
ATOM     10  C   LIG d   1       3.344  88.937 116.171  0.00  0.00     0.006 C 
ENDBRANCH   8   9
BRANCH   8  11
ATOM     11  C   LIG d   1       1.099  88.650 118.470  0.00  0.00     0.028 C 
ATOM     12  C   LIG d   1       1.842  88.967 119.777  0.00  0.00     0.006 C 
ENDBRANCH   8  11
ENDBRANCH   7   8
ENDBRANCH   1   7
BRANCH   6  13
ATOM     13  N   LIG d   1      -2.755  91.489 117.556  0.00  0.00    -0.311 N 
ATOM     14  C   LIG d   1      -3.648  90.501 117.551  0.00  0.00     0.210 C 
ATOM     15  C   LIG d   1      -4.752  90.632 116.497  0.00  0.00     0.109 C 
ATOM     16  O   LIG d   1      -3.648  89.543 118.339  0.00  0.00    -0.276 OA
ATOM     17  H   LIG d   1      -2.849  92.242 116.903  0.00  0.00     0.149 HD
ENDBRANCH   6  13
BRANCH   5  18
ATOM     18  N   LIG d   1      -2.844  92.619 120.393  0.00  0.00     0.381 N 
ATOM     19  H   LIG d   1      -2.523  92.477 121.330  0.00  0.00    -0.090 HD
ATOM     20  H   LIG d   1      -3.400  91.825 120.127  0.00  0.00    -0.090 HD
ATOM     21  H   LIG d   1      -3.393  93.449 120.345  0.00  0.00    -0.090 HD
ENDBRANCH   5  18
BRANCH   3  22
ATOM     22  C   LIG d   1       1.880  93.349 120.093  0.00  0.00     0.382 C 
ATOM     23  O   LIG d   1       3.024  92.966 119.749  0.00  0.00    -0.241 OA
ATOM     24  O   LIG d   1       1.765  94.264 120.930  0.00  0.00    -0.241 OA
ENDBRANCH   3  22
TORSDOF 7
ENDMDL
