MODEL 1
REMARK VINA RESULT:      -5.3      0.000      0.000
REMARK  7 active torsions:
REMARK  status: ('A' for Active; 'I' for Inactive)
REMARK    1  A    between atoms: C_2  and  C_3 
REMARK    2  A    between atoms: C_3  and  O_6 
REMARK    3  A    between atoms: C_3  and  C_4 
REMARK    4  A    between atoms: C_7  and  O_6 
REMARK    5  A    between atoms: C_9  and  C_10 
REMARK    6  A    between atoms: N_15  and  C_14 
REMARK    7  A    between atoms: N_20  and  C_19 
REMARK       I    between atoms: C_22  and  N_20 
ROOT
ATOM      1  C   LIG d   1      -4.586  92.577 117.669  0.00  0.00     0.161 C 
ATOM      2  C   LIG d   1      -5.924  93.003 117.630  0.00  0.00     0.016 C 
ATOM      3  C   LIG d   1      -6.917  92.378 116.841  0.00  0.00     0.038 C 
ATOM      4  C   LIG d   1      -6.670  91.183 116.149  0.00  0.00     0.028 C 
ATOM      5  C   LIG d   1      -5.208  91.000 115.757  0.00  0.00    -0.047 C 
ATOM      6  C   LIG d   1      -4.324  91.207 117.008  0.00  0.00     0.091 C 
ENDROOT
BRANCH   1   7
ATOM      7  O   LIG d   1      -4.114  92.574 119.031  0.00  0.00    -0.368 OA
BRANCH   7   8
ATOM      8  C   LIG d   1      -3.128  93.581 119.366  0.00  0.00     0.119 C 
BRANCH   8   9
ATOM      9  C   LIG d   1      -3.834  94.658 120.212  0.00  0.00     0.028 C 
ATOM     10  C   LIG d   1      -4.213  95.898 119.385  0.00  0.00     0.006 C 
ENDBRANCH   8   9
BRANCH   8  11
ATOM     11  C   LIG d   1      -2.629  94.310 118.116  0.00  0.00     0.028 C 
ATOM     12  C   LIG d   1      -1.122  94.121 117.877  0.00  0.00     0.006 C 
ENDBRANCH   8  11
ENDBRANCH   7   8
ENDBRANCH   1   7
BRANCH   6  13
ATOM     13  N   LIG d   1      -2.873  91.129 116.696  0.00  0.00    -0.311 N 
ATOM     14  C   LIG d   1      -1.997  90.457 117.441  0.00  0.00     0.210 C 
ATOM     15  C   LIG d   1      -0.547  90.522 116.953  0.00  0.00     0.109 C 
ATOM     16  O   LIG d   1      -2.289  89.786 118.443  0.00  0.00    -0.276 OA
ATOM     17  H   LIG d   1      -2.554  91.619 115.883  0.00  0.00     0.149 HD
ENDBRANCH   6  13
BRANCH   5  18
ATOM     18  N   LIG d   1      -5.069  89.655 115.168  0.00  0.00     0.381 N 
ATOM     19  H   LIG d   1      -4.277  89.633 114.557  0.00  0.00    -0.090 HD
ATOM     20  H   LIG d   1      -5.891  89.451 114.627  0.00  0.00    -0.090 HD
ATOM     21  H   LIG d   1      -4.960  88.976 115.889  0.00  0.00    -0.090 HD
ENDBRANCH   5  18
BRANCH   3  22
ATOM     22  C   LIG d   1      -8.162  92.972 116.706  0.00  0.00     0.382 C 
ATOM     23  O   LIG d   1      -8.572  93.774 117.580  0.00  0.00    -0.241 OA
ATOM     24  O   LIG d   1      -8.900  92.682 115.745  0.00  0.00    -0.241 OA
ENDBRANCH   3  22
TORSDOF 7
ENDMDL
MODEL 2
REMARK VINA RESULT:      -5.3      2.221      3.487
REMARK  7 active torsions:
REMARK  status: ('A' for Active; 'I' for Inactive)
REMARK    1  A    between atoms: C_2  and  C_3 
REMARK    2  A    between atoms: C_3  and  O_6 
REMARK    3  A    between atoms: C_3  and  C_4 
REMARK    4  A    between atoms: C_7  and  O_6 
REMARK    5  A    between atoms: C_9  and  C_10 
REMARK    6  A    between atoms: N_15  and  C_14 
REMARK    7  A    between atoms: N_20  and  C_19 
REMARK       I    between atoms: C_22  and  N_20 
ROOT
ATOM      1  C   LIG d   1      -5.521  93.017 117.846  0.00  0.00     0.161 C 
ATOM      2  C   LIG d   1      -6.071  94.167 118.437  0.00  0.00     0.016 C 
ATOM      3  C   LIG d   1      -7.365  94.653 118.136  0.00  0.00     0.038 C 
ATOM      4  C   LIG d   1      -8.259  93.933 117.331  0.00  0.00     0.028 C 
ATOM      5  C   LIG d   1      -7.568  93.029 116.316  0.00  0.00    -0.047 C 
ATOM      6  C   LIG d   1      -6.524  92.156 117.050  0.00  0.00     0.091 C 
ENDROOT
BRANCH   1   7
ATOM      7  O   LIG d   1      -4.863  92.219 118.850  0.00  0.00    -0.368 OA
BRANCH   7   8
ATOM      8  C   LIG d   1      -3.434  92.417 118.985  0.00  0.00     0.119 C 
BRANCH   8   9
ATOM      9  C   LIG d   1      -2.894  92.850 117.608  0.00  0.00     0.028 C 
ATOM     10  C   LIG d   1      -1.868  93.991 117.712  0.00  0.00     0.006 C 
ENDBRANCH   8   9
BRANCH   8  11
ATOM     11  C   LIG d   1      -2.717  91.103 119.307  0.00  0.00     0.028 C 
ATOM     12  C   LIG d   1      -3.300  89.903 118.542  0.00  0.00     0.006 C 
ENDBRANCH   8  11
ENDBRANCH   7   8
ENDBRANCH   1   7
BRANCH   6  13
ATOM     13  N   LIG d   1      -5.743  91.302 116.117  0.00  0.00    -0.311 N 
ATOM     14  C   LIG d   1      -6.032  90.025 115.876  0.00  0.00     0.210 C 
ATOM     15  C   LIG d   1      -5.088  89.322 114.896  0.00  0.00     0.109 C 
ATOM     16  O   LIG d   1      -7.001  89.416 116.356  0.00  0.00    -0.276 OA
ATOM     17  H   LIG d   1      -4.959  91.725 115.660  0.00  0.00     0.149 HD
ENDBRANCH   6  13
BRANCH   5  18
ATOM     18  N   LIG d   1      -8.613  92.237 115.640  0.00  0.00     0.381 N 
ATOM     19  H   LIG d   1      -9.425  92.802 115.493  0.00  0.00    -0.090 HD
ATOM     20  H   LIG d   1      -8.869  91.465 116.232  0.00  0.00    -0.090 HD
ATOM     21  H   LIG d   1      -8.272  91.897 114.768  0.00  0.00    -0.090 HD
ENDBRANCH   5  18
BRANCH   3  22
ATOM     22  C   LIG d   1      -7.759  95.894 118.612  0.00  0.00     0.382 C 
ATOM     23  O   LIG d   1      -8.200  96.006 119.782  0.00  0.00    -0.241 OA
ATOM     24  O   LIG d   1      -7.723  96.896 117.872  0.00  0.00    -0.241 OA
ENDBRANCH   3  22
TORSDOF 7
ENDMDL
MODEL 3
REMARK VINA RESULT:      -5.2      2.496      4.287
REMARK  7 active torsions:
REMARK  status: ('A' for Active; 'I' for Inactive)
REMARK    1  A    between atoms: C_2  and  C_3 
REMARK    2  A    between atoms: C_3  and  O_6 
REMARK    3  A    between atoms: C_3  and  C_4 
REMARK    4  A    between atoms: C_7  and  O_6 
REMARK    5  A    between atoms: C_9  and  C_10 
REMARK    6  A    between atoms: N_15  and  C_14 
REMARK    7  A    between atoms: N_20  and  C_19 
REMARK       I    between atoms: C_22  and  N_20 
ROOT
ATOM      1  C   LIG d   1      -4.769  92.706 117.549  0.00  0.00     0.161 C 
ATOM      2  C   LIG d   1      -4.774  91.570 116.722  0.00  0.00     0.016 C 
ATOM      3  C   LIG d   1      -5.918  91.122 116.022  0.00  0.00     0.038 C 
ATOM      4  C   LIG d   1      -7.104  91.871 115.983  0.00  0.00     0.028 C 
ATOM      5  C   LIG d   1      -7.301  92.758 117.208  0.00  0.00    -0.047 C 
ATOM      6  C   LIG d   1      -6.022  93.598 117.430  0.00  0.00     0.091 C 
ENDROOT
BRANCH   1   7
ATOM      7  O   LIG d   1      -3.577  93.480 117.308  0.00  0.00    -0.368 OA
BRANCH   7   8
ATOM      8  C   LIG d   1      -2.475  93.255 118.221  0.00  0.00     0.119 C 
BRANCH   8   9
ATOM      9  C   LIG d   1      -2.716  94.134 119.463  0.00  0.00     0.028 C 
ATOM     10  C   LIG d   1      -2.684  95.636 119.134  0.00  0.00     0.006 C 
ENDBRANCH   8   9
BRANCH   8  11
ATOM     11  C   LIG d   1      -1.151  93.746 117.627  0.00  0.00     0.028 C 
ATOM     12  C   LIG d   1       0.041  92.857 118.016  0.00  0.00     0.006 C 
ENDBRANCH   8  11
ENDBRANCH   7   8
ENDBRANCH   1   7
BRANCH   6  13
ATOM     13  N   LIG d   1      -6.098  94.432 118.658  0.00  0.00    -0.311 N 
ATOM     14  C   LIG d   1      -6.591  95.670 118.674  0.00  0.00     0.210 C 
ATOM     15  C   LIG d   1      -6.558  96.361 120.040  0.00  0.00     0.109 C 
ATOM     16  O   LIG d   1      -7.082  96.248 117.693  0.00  0.00    -0.276 OA
ATOM     17  H   LIG d   1      -5.750  94.029 119.505  0.00  0.00     0.149 HD
ENDBRANCH   6  13
BRANCH   5  18
ATOM     18  N   LIG d   1      -8.500  93.583 116.972  0.00  0.00     0.381 N 
ATOM     19  H   LIG d   1      -8.247  94.551 116.951  0.00  0.00    -0.090 HD
ATOM     20  H   LIG d   1      -9.145  93.443 117.730  0.00  0.00    -0.090 HD
ATOM     21  H   LIG d   1      -8.928  93.325 116.110  0.00  0.00    -0.090 HD
ENDBRANCH   5  18
BRANCH   3  22
ATOM     22  C   LIG d   1      -5.896  89.891 115.385  0.00  0.00     0.382 C 
ATOM     23  O   LIG d   1      -6.802  89.590 114.570  0.00  0.00    -0.241 OA
ATOM     24  O   LIG d   1      -5.005  89.060 115.646  0.00  0.00    -0.241 OA
ENDBRANCH   3  22
TORSDOF 7
ENDMDL
MODEL 4
REMARK VINA RESULT:      -5.2      2.586      4.749
REMARK  7 active torsions:
REMARK  status: ('A' for Active; 'I' for Inactive)
REMARK    1  A    between atoms: C_2  and  C_3 
REMARK    2  A    between atoms: C_3  and  O_6 
REMARK    3  A    between atoms: C_3  and  C_4 
REMARK    4  A    between atoms: C_7  and  O_6 
REMARK    5  A    between atoms: C_9  and  C_10 
REMARK    6  A    between atoms: N_15  and  C_14 
REMARK    7  A    between atoms: N_20  and  C_19 
REMARK       I    between atoms: C_22  and  N_20 
ROOT
ATOM      1  C   LIG d   1      -6.010  91.776 118.270  0.00  0.00     0.161 C 
ATOM      2  C   LIG d   1      -5.398  90.839 117.420  0.00  0.00     0.016 C 
ATOM      3  C   LIG d   1      -5.833  90.586 116.099  0.00  0.00     0.038 C 
ATOM      4  C   LIG d   1      -6.823  91.366 115.482  0.00  0.00     0.028 C 
ATOM      5  C   LIG d   1      -7.809  91.983 116.467  0.00  0.00    -0.047 C 
ATOM      6  C   LIG d   1      -7.020  92.715 117.577  0.00  0.00     0.091 C 
ENDROOT
BRANCH   1   7
ATOM      7  O   LIG d   1      -5.002  92.544 118.957  0.00  0.00    -0.368 OA
BRANCH   7   8
ATOM      8  C   LIG d   1      -4.461  93.677 118.234  0.00  0.00     0.119 C 
BRANCH   8   9
ATOM      9  C   LIG d   1      -3.013  93.326 117.841  0.00  0.00     0.028 C 
ATOM     10  C   LIG d   1      -2.034  94.479 118.119  0.00  0.00     0.006 C 
ENDBRANCH   8   9
BRANCH   8  11
ATOM     11  C   LIG d   1      -4.349  94.911 119.135  0.00  0.00     0.028 C 
ATOM     12  C   LIG d   1      -4.889  94.664 120.552  0.00  0.00     0.006 C 
ENDBRANCH   8  11
ENDBRANCH   7   8
ENDBRANCH   1   7
BRANCH   6  13
ATOM     13  N   LIG d   1      -7.907  93.276 118.628  0.00  0.00    -0.311 N 
ATOM     14  C   LIG d   1      -8.134  94.580 118.777  0.00  0.00     0.210 C 
ATOM     15  C   LIG d   1      -9.066  94.946 119.937  0.00  0.00     0.109 C 
ATOM     16  O   LIG d   1      -7.678  95.466 118.038  0.00  0.00    -0.276 OA
ATOM     17  H   LIG d   1      -8.343  92.625 119.252  0.00  0.00     0.149 HD
ENDBRANCH   6  13
BRANCH   5  18
ATOM     18  N   LIG d   1      -8.700  92.878 115.705  0.00  0.00     0.381 N 
ATOM     19  H   LIG d   1      -8.472  93.832 115.904  0.00  0.00    -0.090 HD
ATOM     20  H   LIG d   1      -9.649  92.714 115.991  0.00  0.00    -0.090 HD
ATOM     21  H   LIG d   1      -8.604  92.703 114.729  0.00  0.00    -0.090 HD
ENDBRANCH   5  18
BRANCH   3  22
ATOM     22  C   LIG d   1      -5.304  89.515 115.395  0.00  0.00     0.382 C 
ATOM     23  O   LIG d   1      -5.749  89.232 114.256  0.00  0.00    -0.241 OA
ATOM     24  O   LIG d   1      -4.417  88.802 115.901  0.00  0.00    -0.241 OA
ENDBRANCH   3  22
TORSDOF 7
ENDMDL
MODEL 5
REMARK VINA RESULT:      -5.2      2.506      4.133
REMARK  7 active torsions:
REMARK  status: ('A' for Active; 'I' for Inactive)
REMARK    1  A    between atoms: C_2  and  C_3 
REMARK    2  A    between atoms: C_3  and  O_6 
REMARK    3  A    between atoms: C_3  and  C_4 
REMARK    4  A    between atoms: C_7  and  O_6 
REMARK    5  A    between atoms: C_9  and  C_10 
REMARK    6  A    between atoms: N_15  and  C_14 
REMARK    7  A    between atoms: N_20  and  C_19 
REMARK       I    between atoms: C_22  and  N_20 
ROOT
ATOM      1  C   LIG d   1      -6.290  93.533 118.080  0.00  0.00     0.161 C 
ATOM      2  C   LIG d   1      -6.963  92.416 117.557  0.00  0.00     0.016 C 
ATOM      3  C   LIG d   1      -6.301  91.315 116.966  0.00  0.00     0.038 C 
ATOM      4  C   LIG d   1      -4.904  91.189 116.993  0.00  0.00     0.028 C 
ATOM      5  C   LIG d   1      -4.176  92.527 117.058  0.00  0.00    -0.047 C 
ATOM      6  C   LIG d   1      -4.763  93.362 118.218  0.00  0.00     0.091 C 
ENDROOT
BRANCH   1   7
ATOM      7  O   LIG d   1      -6.870  93.904 119.346  0.00  0.00    -0.368 OA
BRANCH   7   8
ATOM      8  C   LIG d   1      -7.312  95.279 119.466  0.00  0.00     0.119 C 
BRANCH   8   9
ATOM      9  C   LIG d   1      -8.701  95.262 120.133  0.00  0.00     0.028 C 
ATOM     10  C   LIG d   1      -9.334  93.860 120.135  0.00  0.00     0.006 C 
ENDBRANCH   8   9
BRANCH   8  11
ATOM     11  C   LIG d   1      -7.530  95.917 118.091  0.00  0.00     0.028 C 
ATOM     12  C   LIG d   1      -6.899  97.313 117.975  0.00  0.00     0.006 C 
ENDBRANCH   8  11
ENDBRANCH   7   8
ENDBRANCH   1   7
BRANCH   6  13
ATOM     13  N   LIG d   1      -4.164  94.720 118.299  0.00  0.00    -0.311 N 
ATOM     14  C   LIG d   1      -3.133  95.021 119.086  0.00  0.00     0.210 C 
ATOM     15  C   LIG d   1      -2.684  96.484 119.033  0.00  0.00     0.109 C 
ATOM     16  O   LIG d   1      -2.526  94.207 119.799  0.00  0.00    -0.276 OA
ATOM     17  H   LIG d   1      -4.575  95.435 117.730  0.00  0.00     0.149 HD
ENDBRANCH   6  13
BRANCH   5  18
ATOM     18  N   LIG d   1      -2.737  92.244 117.220  0.00  0.00     0.381 N 
ATOM     19  H   LIG d   1      -2.366  92.794 117.969  0.00  0.00    -0.090 HD
ATOM     20  H   LIG d   1      -2.258  92.499 116.374  0.00  0.00    -0.090 HD
ATOM     21  H   LIG d   1      -2.599  91.276 117.409  0.00  0.00    -0.090 HD
ENDBRANCH   5  18
BRANCH   3  22
ATOM     22  C   LIG d   1      -7.037  90.345 116.303  0.00  0.00     0.382 C 
ATOM     23  O   LIG d   1      -6.559  89.197 116.142  0.00  0.00    -0.241 OA
ATOM     24  O   LIG d   1      -8.155  90.617 115.826  0.00  0.00    -0.241 OA
ENDBRANCH   3  22
TORSDOF 7
ENDMDL
MODEL 6
REMARK VINA RESULT:      -4.8      2.657      4.495
REMARK  7 active torsions:
REMARK  status: ('A' for Active; 'I' for Inactive)
REMARK    1  A    between atoms: C_2  and  C_3 
REMARK    2  A    between atoms: C_3  and  O_6 
REMARK    3  A    between atoms: C_3  and  C_4 
REMARK    4  A    between atoms: C_7  and  O_6 
REMARK    5  A    between atoms: C_9  and  C_10 
REMARK    6  A    between atoms: N_15  and  C_14 
REMARK    7  A    between atoms: N_20  and  C_19 
REMARK       I    between atoms: C_22  and  N_20 
ROOT
ATOM      1  C   LIG d   1      -5.445  92.234 118.974  0.00  0.00     0.161 C 
ATOM      2  C   LIG d   1      -5.661  91.127 118.138  0.00  0.00     0.016 C 
ATOM      3  C   LIG d   1      -6.607  91.118 117.086  0.00  0.00     0.038 C 
ATOM      4  C   LIG d   1      -7.298  92.276 116.702  0.00  0.00     0.028 C 
ATOM      5  C   LIG d   1      -7.482  93.277 117.837  0.00  0.00    -0.047 C 
ATOM      6  C   LIG d   1      -6.111  93.543 118.499  0.00  0.00     0.091 C 
ENDROOT
BRANCH   1   7
ATOM      7  O   LIG d   1      -4.031  92.433 119.167  0.00  0.00    -0.368 OA
BRANCH   7   8
ATOM      8  C   LIG d   1      -3.283  92.859 118.002  0.00  0.00     0.119 C 
BRANCH   8   9
ATOM      9  C   LIG d   1      -2.000  92.007 117.939  0.00  0.00     0.028 C 
ATOM     10  C   LIG d   1      -2.278  90.558 117.507  0.00  0.00     0.006 C 
ENDBRANCH   8   9
BRANCH   8  11
ATOM     11  C   LIG d   1      -2.802  94.306 118.146  0.00  0.00     0.028 C 
ATOM     12  C   LIG d   1      -2.561  94.710 119.609  0.00  0.00     0.006 C 
ENDBRANCH   8  11
ENDBRANCH   7   8
ENDBRANCH   1   7
BRANCH   6  13
ATOM     13  N   LIG d   1      -6.214  94.447 119.675  0.00  0.00    -0.311 N 
ATOM     14  C   LIG d   1      -6.079  95.770 119.596  0.00  0.00     0.210 C 
ATOM     15  C   LIG d   1      -6.202  96.513 120.930  0.00  0.00     0.109 C 
ATOM     16  O   LIG d   1      -5.901  96.401 118.544  0.00  0.00    -0.276 OA
ATOM     17  H   LIG d   1      -6.389  94.021 120.564  0.00  0.00     0.149 HD
ENDBRANCH   6  13
BRANCH   5  18
ATOM     18  N   LIG d   1      -8.093  94.492 117.266  0.00  0.00     0.381 N 
ATOM     19  H   LIG d   1      -8.096  95.223 117.949  0.00  0.00    -0.090 HD
ATOM     20  H   LIG d   1      -9.046  94.290 117.017  0.00  0.00    -0.090 HD
ATOM     21  H   LIG d   1      -7.585  94.783 116.460  0.00  0.00    -0.090 HD
ENDBRANCH   5  18
BRANCH   3  22
ATOM     22  C   LIG d   1      -6.897  89.930 116.433  0.00  0.00     0.382 C 
ATOM     23  O   LIG d   1      -8.091  89.577 116.275  0.00  0.00    -0.241 OA
ATOM     24  O   LIG d   1      -5.980  89.185 116.039  0.00  0.00    -0.241 OA
ENDBRANCH   3  22
TORSDOF 7
ENDMDL
MODEL 7
REMARK VINA RESULT:      -4.7      2.270      4.370
REMARK  7 active torsions:
REMARK  status: ('A' for Active; 'I' for Inactive)
REMARK    1  A    between atoms: C_2  and  C_3 
REMARK    2  A    between atoms: C_3  and  O_6 
REMARK    3  A    between atoms: C_3  and  C_4 
REMARK    4  A    between atoms: C_7  and  O_6 
REMARK    5  A    between atoms: C_9  and  C_10 
REMARK    6  A    between atoms: N_15  and  C_14 
REMARK    7  A    between atoms: N_20  and  C_19 
REMARK       I    between atoms: C_22  and  N_20 
ROOT
ATOM      1  C   LIG d   1      -3.583  90.869 117.704  0.00  0.00     0.161 C 
ATOM      2  C   LIG d   1      -4.721  90.331 117.080  0.00  0.00     0.016 C 
ATOM      3  C   LIG d   1      -5.879  91.087 116.788  0.00  0.00     0.038 C 
ATOM      4  C   LIG d   1      -5.920  92.478 116.965  0.00  0.00     0.028 C 
ATOM      5  C   LIG d   1      -4.981  92.978 118.058  0.00  0.00    -0.047 C 
ATOM      6  C   LIG d   1      -3.567  92.408 117.803  0.00  0.00     0.091 C 
ENDROOT
BRANCH   1   7
ATOM      7  O   LIG d   1      -2.394  90.397 117.041  0.00  0.00    -0.368 OA
BRANCH   7   8
ATOM      8  C   LIG d   1      -1.600  89.428 117.769  0.00  0.00     0.119 C 
BRANCH   8   9
ATOM      9  C   LIG d   1      -0.154  89.527 117.245  0.00  0.00     0.028 C 
ATOM     10  C   LIG d   1       0.174  90.921 116.686  0.00  0.00     0.006 C 
ENDBRANCH   8   9
BRANCH   8  11
ATOM     11  C   LIG d   1      -2.046  87.996 117.460  0.00  0.00     0.028 C 
ATOM     12  C   LIG d   1      -0.984  86.948 117.829  0.00  0.00     0.006 C 
ENDBRANCH   8  11
ENDBRANCH   7   8
ENDBRANCH   1   7
BRANCH   6  13
ATOM     13  N   LIG d   1      -2.605  92.780 118.873  0.00  0.00    -0.311 N 
ATOM     14  C   LIG d   1      -1.532  93.541 118.663  0.00  0.00     0.210 C 
ATOM     15  C   LIG d   1      -0.662  93.787 119.899  0.00  0.00     0.109 C 
ATOM     16  O   LIG d   1      -1.237  94.062 117.577  0.00  0.00    -0.276 OA
ATOM     17  H   LIG d   1      -2.786  92.426 119.792  0.00  0.00     0.149 HD
ENDBRANCH   6  13
BRANCH   5  18
ATOM     18  N   LIG d   1      -5.022  94.452 118.041  0.00  0.00     0.381 N 
ATOM     19  H   LIG d   1      -5.858  94.773 118.488  0.00  0.00    -0.090 HD
ATOM     20  H   LIG d   1      -5.035  94.766 117.086  0.00  0.00    -0.090 HD
ATOM     21  H   LIG d   1      -4.224  94.821 118.509  0.00  0.00    -0.090 HD
ENDBRANCH   5  18
BRANCH   3  22
ATOM     22  C   LIG d   1      -7.027  90.445 116.350  0.00  0.00     0.382 C 
ATOM     23  O   LIG d   1      -7.050  89.194 116.260  0.00  0.00    -0.241 OA
ATOM     24  O   LIG d   1      -8.026  91.103 116.002  0.00  0.00    -0.241 OA
ENDBRANCH   3  22
TORSDOF 7
ENDMDL
MODEL 8
REMARK VINA RESULT:      -4.5      2.459      4.581
REMARK  7 active torsions:
REMARK  status: ('A' for Active; 'I' for Inactive)
REMARK    1  A    between atoms: C_2  and  C_3 
REMARK    2  A    between atoms: C_3  and  O_6 
REMARK    3  A    between atoms: C_3  and  C_4 
REMARK    4  A    between atoms: C_7  and  O_6 
REMARK    5  A    between atoms: C_9  and  C_10 
REMARK    6  A    between atoms: N_15  and  C_14 
REMARK    7  A    between atoms: N_20  and  C_19 
REMARK       I    between atoms: C_22  and  N_20 
ROOT
ATOM      1  C   LIG d   1      -4.699  93.036 117.725  0.00  0.00     0.161 C 
ATOM      2  C   LIG d   1      -4.465  94.150 118.547  0.00  0.00     0.016 C 
ATOM      3  C   LIG d   1      -5.466  95.087 118.893  0.00  0.00     0.038 C 
ATOM      4  C   LIG d   1      -6.814  94.887 118.560  0.00  0.00     0.028 C 
ATOM      5  C   LIG d   1      -7.010  94.042 117.306  0.00  0.00    -0.047 C 
ATOM      6  C   LIG d   1      -6.188  92.741 117.445  0.00  0.00     0.091 C 
ENDROOT
BRANCH   1   7
ATOM      7  O   LIG d   1      -4.055  91.873 118.283  0.00  0.00    -0.368 OA
BRANCH   7   8
ATOM      8  C   LIG d   1      -2.987  91.295 117.492  0.00  0.00     0.119 C 
BRANCH   8   9
ATOM      9  C   LIG d   1      -3.295  89.795 117.324  0.00  0.00     0.028 C 
ATOM     10  C   LIG d   1      -2.424  88.912 118.234  0.00  0.00     0.006 C 
ENDBRANCH   8   9
BRANCH   8  11
ATOM     11  C   LIG d   1      -1.649  91.354 118.234  0.00  0.00     0.028 C 
ATOM     12  C   LIG d   1      -0.709  92.437 117.682  0.00  0.00     0.006 C 
ENDBRANCH   8  11
ENDBRANCH   7   8
ENDBRANCH   1   7
BRANCH   6  13
ATOM     13  N   LIG d   1      -6.257  91.894 116.225  0.00  0.00    -0.311 N 
ATOM     14  C   LIG d   1      -6.875  90.715 116.185  0.00  0.00     0.210 C 
ATOM     15  C   LIG d   1      -6.810  89.997 114.833  0.00  0.00     0.109 C 
ATOM     16  O   LIG d   1      -7.498  90.211 117.131  0.00  0.00    -0.276 OA
ATOM     17  H   LIG d   1      -5.804  92.242 115.402  0.00  0.00     0.149 HD
ENDBRANCH   6  13
BRANCH   5  18
ATOM     18  N   LIG d   1      -8.457  93.799 117.155  0.00  0.00     0.381 N 
ATOM     19  H   LIG d   1      -8.971  94.458 117.704  0.00  0.00    -0.090 HD
ATOM     20  H   LIG d   1      -8.668  92.876 117.492  0.00  0.00    -0.090 HD
ATOM     21  H   LIG d   1      -8.718  93.878 116.197  0.00  0.00    -0.090 HD
ENDBRANCH   5  18
BRANCH   3  22
ATOM     22  C   LIG d   1      -5.115  96.259 119.545  0.00  0.00     0.382 C 
ATOM     23  O   LIG d   1      -5.014  97.330 118.899  0.00  0.00    -0.241 OA
ATOM     24  O   LIG d   1      -4.853  96.251 120.763  0.00  0.00    -0.241 OA
ENDBRANCH   3  22
TORSDOF 7
ENDMDL
MODEL 9
REMARK VINA RESULT:      -4.5      2.214      4.371
REMARK  7 active torsions:
REMARK  status: ('A' for Active; 'I' for Inactive)
REMARK    1  A    between atoms: C_2  and  C_3 
REMARK    2  A    between atoms: C_3  and  O_6 
REMARK    3  A    between atoms: C_3  and  C_4 
REMARK    4  A    between atoms: C_7  and  O_6 
REMARK    5  A    between atoms: C_9  and  C_10 
REMARK    6  A    between atoms: N_15  and  C_14 
REMARK    7  A    between atoms: N_20  and  C_19 
REMARK       I    between atoms: C_22  and  N_20 
ROOT
ATOM      1  C   LIG d   1      -6.178  91.577 118.340  0.00  0.00     0.161 C 
ATOM      2  C   LIG d   1      -6.892  92.778 118.190  0.00  0.00     0.016 C 
ATOM      3  C   LIG d   1      -6.295  94.056 118.286  0.00  0.00     0.038 C 
ATOM      4  C   LIG d   1      -4.905  94.218 118.390  0.00  0.00     0.028 C 
ATOM      5  C   LIG d   1      -4.204  93.036 119.050  0.00  0.00    -0.047 C 
ATOM      6  C   LIG d   1      -4.643  91.734 118.342  0.00  0.00     0.091 C 
ENDROOT
BRANCH   1   7
ATOM      7  O   LIG d   1      -6.584  90.637 117.325  0.00  0.00    -0.368 OA
BRANCH   7   8
ATOM      8  C   LIG d   1      -6.913  91.199 116.031  0.00  0.00     0.119 C 
BRANCH   8   9
ATOM      9  C   LIG d   1      -8.151  90.450 115.501  0.00  0.00     0.028 C 
ATOM     10  C   LIG d   1      -8.343  89.083 116.178  0.00  0.00     0.006 C 
ENDBRANCH   8   9
BRANCH   8  11
ATOM     11  C   LIG d   1      -5.806  90.927 115.008  0.00  0.00     0.028 C 
ATOM     12  C   LIG d   1      -4.952  89.700 115.366  0.00  0.00     0.006 C 
ENDBRANCH   8  11
ENDBRANCH   7   8
ENDBRANCH   1   7
BRANCH   6  13
ATOM     13  N   LIG d   1      -4.068  90.521 118.980  0.00  0.00    -0.311 N 
ATOM     14  C   LIG d   1      -2.945  89.936 118.566  0.00  0.00     0.210 C 
ATOM     15  C   LIG d   1      -2.540  88.685 119.351  0.00  0.00     0.109 C 
ATOM     16  O   LIG d   1      -2.230  90.354 117.643  0.00  0.00    -0.276 OA
ATOM     17  H   LIG d   1      -4.568  90.133 119.756  0.00  0.00     0.149 HD
ENDBRANCH   6  13
BRANCH   5  18
ATOM     18  N   LIG d   1      -2.751  93.277 118.968  0.00  0.00     0.381 N 
ATOM     19  H   LIG d   1      -2.476  93.928 119.676  0.00  0.00    -0.090 HD
ATOM     20  H   LIG d   1      -2.538  93.677 118.071  0.00  0.00    -0.090 HD
ATOM     21  H   LIG d   1      -2.256  92.420 119.084  0.00  0.00    -0.090 HD
ENDBRANCH   5  18
BRANCH   3  22
ATOM     22  C   LIG d   1      -7.095  95.188 118.320  0.00  0.00     0.382 C 
ATOM     23  O   LIG d   1      -6.599  96.297 118.634  0.00  0.00    -0.241 OA
ATOM     24  O   LIG d   1      -8.315  95.106 118.083  0.00  0.00    -0.241 OA
ENDBRANCH   3  22
TORSDOF 7
ENDMDL
