MODEL 1
REMARK VINA RESULT:      -5.9      0.000      0.000
REMARK  7 active torsions:
REMARK  status: ('A' for Active; 'I' for Inactive)
REMARK    1  A    between atoms: C_2  and  C_3 
REMARK    2  A    between atoms: C_3  and  O_6 
REMARK    3  A    between atoms: C_3  and  C_4 
REMARK    4  A    between atoms: C_7  and  O_6 
REMARK    5  A    between atoms: C_9  and  C_10 
REMARK    6  A    between atoms: N_15  and  C_14 
REMARK    7  A    between atoms: N_20  and  C_19 
REMARK       I    between atoms: C_22  and  N_20 
ROOT
ATOM      1  C   LIG d   1      -5.806  92.141 118.469  0.00  0.00     0.161 C 
ATOM      2  C   LIG d   1      -4.768  92.493 119.348  0.00  0.00     0.016 C 
ATOM      3  C   LIG d   1      -3.430  92.067 119.183  0.00  0.00     0.038 C 
ATOM      4  C   LIG d   1      -3.007  91.380 118.035  0.00  0.00     0.028 C 
ATOM      5  C   LIG d   1      -4.116  90.570 117.372  0.00  0.00    -0.047 C 
ATOM      6  C   LIG d   1      -5.342  91.484 117.152  0.00  0.00     0.091 C 
ENDROOT
BRANCH   1   7
ATOM      7  O   LIG d   1      -6.624  93.295 118.193  0.00  0.00    -0.368 OA
BRANCH   7   8
ATOM      8  C   LIG d   1      -7.088  94.038 119.346  0.00  0.00     0.119 C 
BRANCH   8   9
ATOM      9  C   LIG d   1      -8.491  94.582 119.013  0.00  0.00     0.028 C 
ATOM     10  C   LIG d   1      -9.579  94.001 119.931  0.00  0.00     0.006 C 
ENDBRANCH   8   9
BRANCH   8  11
ATOM     11  C   LIG d   1      -6.222  95.277 119.596  0.00  0.00     0.028 C 
ATOM     12  C   LIG d   1      -6.659  96.069 120.839  0.00  0.00     0.006 C 
ENDBRANCH   8  11
ENDBRANCH   7   8
ENDBRANCH   1   7
BRANCH   6  13
ATOM     13  N   LIG d   1      -6.503  90.749 116.584  0.00  0.00    -0.311 N 
ATOM     14  C   LIG d   1      -6.749  90.665 115.278  0.00  0.00     0.210 C 
ATOM     15  C   LIG d   1      -8.009  89.877 114.907  0.00  0.00     0.109 C 
ATOM     16  O   LIG d   1      -6.026  91.142 114.390  0.00  0.00    -0.276 OA
ATOM     17  H   LIG d   1      -7.124  90.306 117.232  0.00  0.00     0.149 HD
ENDBRANCH   6  13
BRANCH   5  18
ATOM     18  N   LIG d   1      -3.574  90.017 116.116  0.00  0.00     0.381 N 
ATOM     19  H   LIG d   1      -4.314  89.620 115.573  0.00  0.00    -0.090 HD
ATOM     20  H   LIG d   1      -2.919  89.288 116.337  0.00  0.00    -0.090 HD
ATOM     21  H   LIG d   1      -3.119  90.735 115.596  0.00  0.00    -0.090 HD
ENDBRANCH   5  18
BRANCH   3  22
ATOM     22  C   LIG d   1      -2.506  92.295 120.192  0.00  0.00     0.382 C 
ATOM     23  O   LIG d   1      -1.856  91.336 120.674  0.00  0.00    -0.241 OA
ATOM     24  O   LIG d   1      -2.347  93.439 120.656  0.00  0.00    -0.241 OA
ENDBRANCH   3  22
TORSDOF 7
ENDMDL
MODEL 2
REMARK VINA RESULT:      -5.5      1.739      4.680
REMARK  7 active torsions:
REMARK  status: ('A' for Active; 'I' for Inactive)
REMARK    1  A    between atoms: C_2  and  C_3 
REMARK    2  A    between atoms: C_3  and  O_6 
REMARK    3  A    between atoms: C_3  and  C_4 
REMARK    4  A    between atoms: C_7  and  O_6 
REMARK    5  A    between atoms: C_9  and  C_10 
REMARK    6  A    between atoms: N_15  and  C_14 
REMARK    7  A    between atoms: N_20  and  C_19 
REMARK       I    between atoms: C_22  and  N_20 
ROOT
ATOM      1  C   LIG d   1      -5.448  92.881 118.781  0.00  0.00     0.161 C 
ATOM      2  C   LIG d   1      -6.263  92.143 117.906  0.00  0.00     0.016 C 
ATOM      3  C   LIG d   1      -5.764  91.168 117.013  0.00  0.00     0.038 C 
ATOM      4  C   LIG d   1      -4.424  90.754 117.041  0.00  0.00     0.028 C 
ATOM      5  C   LIG d   1      -3.469  91.826 117.556  0.00  0.00    -0.047 C 
ATOM      6  C   LIG d   1      -3.999  92.364 118.905  0.00  0.00     0.091 C 
ENDROOT
BRANCH   1   7
ATOM      7  O   LIG d   1      -6.067  92.953 120.081  0.00  0.00    -0.368 OA
BRANCH   7   8
ATOM      8  C   LIG d   1      -6.501  94.268 120.508  0.00  0.00     0.119 C 
BRANCH   8   9
ATOM      9  C   LIG d   1      -8.042  94.262 120.532  0.00  0.00     0.028 C 
ATOM     10  C   LIG d   1      -8.651  94.696 119.188  0.00  0.00     0.006 C 
ENDBRANCH   8   9
BRANCH   8  11
ATOM     11  C   LIG d   1      -6.115  95.341 119.485  0.00  0.00     0.028 C 
ATOM     12  C   LIG d   1      -5.197  96.423 120.075  0.00  0.00     0.006 C 
ENDBRANCH   8  11
ENDBRANCH   7   8
ENDBRANCH   1   7
BRANCH   6  13
ATOM     13  N   LIG d   1      -3.170  93.476 119.437  0.00  0.00    -0.311 N 
ATOM     14  C   LIG d   1      -2.232  93.310 120.368  0.00  0.00     0.210 C 
ATOM     15  C   LIG d   1      -1.506  94.591 120.791  0.00  0.00     0.109 C 
ATOM     16  O   LIG d   1      -1.910  92.219 120.861  0.00  0.00    -0.276 OA
ATOM     17  H   LIG d   1      -3.343  94.391 119.070  0.00  0.00     0.149 HD
ENDBRANCH   6  13
BRANCH   5  18
ATOM     18  N   LIG d   1      -2.130  91.217 117.663  0.00  0.00     0.381 N 
ATOM     19  H   LIG d   1      -1.742  91.408 118.565  0.00  0.00    -0.090 HD
ATOM     20  H   LIG d   1      -1.530  91.625 116.968  0.00  0.00    -0.090 HD
ATOM     21  H   LIG d   1      -2.191  90.232 117.522  0.00  0.00    -0.090 HD
ENDBRANCH   5  18
BRANCH   3  22
ATOM     22  C   LIG d   1      -6.601  90.625 116.050  0.00  0.00     0.382 C 
ATOM     23  O   LIG d   1      -7.560  91.297 115.601  0.00  0.00    -0.241 OA
ATOM     24  O   LIG d   1      -6.435  89.454 115.657  0.00  0.00    -0.241 OA
ENDBRANCH   3  22
TORSDOF 7
ENDMDL
MODEL 3
REMARK VINA RESULT:      -5.1      2.992      6.917
REMARK  7 active torsions:
REMARK  status: ('A' for Active; 'I' for Inactive)
REMARK    1  A    between atoms: C_2  and  C_3 
REMARK    2  A    between atoms: C_3  and  O_6 
REMARK    3  A    between atoms: C_3  and  C_4 
REMARK    4  A    between atoms: C_7  and  O_6 
REMARK    5  A    between atoms: C_9  and  C_10 
REMARK    6  A    between atoms: N_15  and  C_14 
REMARK    7  A    between atoms: N_20  and  C_19 
REMARK       I    between atoms: C_22  and  N_20 
ROOT
ATOM      1  C   LIG d   1      -2.808  91.203 117.661  0.00  0.00     0.161 C 
ATOM      2  C   LIG d   1      -3.557  90.448 116.742  0.00  0.00     0.016 C 
ATOM      3  C   LIG d   1      -4.929  90.672 116.486  0.00  0.00     0.038 C 
ATOM      4  C   LIG d   1      -5.613  91.772 117.023  0.00  0.00     0.028 C 
ATOM      5  C   LIG d   1      -5.031  92.262 118.344  0.00  0.00    -0.047 C 
ATOM      6  C   LIG d   1      -3.510  92.478 118.173  0.00  0.00     0.091 C 
ENDROOT
BRANCH   1   7
ATOM      7  O   LIG d   1      -1.525  91.531 117.092  0.00  0.00    -0.368 OA
BRANCH   7   8
ATOM      8  C   LIG d   1      -0.413  90.701 117.508  0.00  0.00     0.119 C 
BRANCH   8   9
ATOM      9  C   LIG d   1       0.334  91.453 118.627  0.00  0.00     0.028 C 
ATOM     10  C   LIG d   1       1.375  92.442 118.076  0.00  0.00     0.006 C 
ENDBRANCH   8   9
BRANCH   8  11
ATOM     11  C   LIG d   1       0.610  90.533 116.380  0.00  0.00     0.028 C 
ATOM     12  C   LIG d   1       1.061  89.076 116.196  0.00  0.00     0.006 C 
ENDBRANCH   8  11
ENDBRANCH   7   8
ENDBRANCH   1   7
BRANCH   6  13
ATOM     13  N   LIG d   1      -2.847  92.877 119.442  0.00  0.00    -0.311 N 
ATOM     14  C   LIG d   1      -1.977  93.881 119.531  0.00  0.00     0.210 C 
ATOM     15  C   LIG d   1      -1.396  94.111 120.930  0.00  0.00     0.109 C 
ATOM     16  O   LIG d   1      -1.656  94.624 118.591  0.00  0.00    -0.276 OA
ATOM     17  H   LIG d   1      -3.075  92.347 120.261  0.00  0.00     0.149 HD
ENDBRANCH   6  13
BRANCH   5  18
ATOM     18  N   LIG d   1      -5.751  93.493 118.720  0.00  0.00     0.381 N 
ATOM     19  H   LIG d   1      -6.667  93.263 119.050  0.00  0.00    -0.090 HD
ATOM     20  H   LIG d   1      -5.846  94.075 117.906  0.00  0.00    -0.090 HD
ATOM     21  H   LIG d   1      -5.248  93.980 119.428  0.00  0.00    -0.090 HD
ENDBRANCH   5  18
BRANCH   3  22
ATOM     22  C   LIG d   1      -5.641  89.766 115.714  0.00  0.00     0.382 C 
ATOM     23  O   LIG d   1      -5.101  89.234 114.714  0.00  0.00    -0.241 OA
ATOM     24  O   LIG d   1      -6.830  89.507 115.980  0.00  0.00    -0.241 OA
ENDBRANCH   3  22
TORSDOF 7
ENDMDL
MODEL 4
REMARK VINA RESULT:      -5.0      6.519      9.458
REMARK  7 active torsions:
REMARK  status: ('A' for Active; 'I' for Inactive)
REMARK    1  A    between atoms: C_2  and  C_3 
REMARK    2  A    between atoms: C_3  and  O_6 
REMARK    3  A    between atoms: C_3  and  C_4 
REMARK    4  A    between atoms: C_7  and  O_6 
REMARK    5  A    between atoms: C_9  and  C_10 
REMARK    6  A    between atoms: N_15  and  C_14 
REMARK    7  A    between atoms: N_20  and  C_19 
REMARK       I    between atoms: C_22  and  N_20 
ROOT
ATOM      1  C   LIG d   1       1.705  90.228 115.754  0.00  0.00     0.161 C 
ATOM      2  C   LIG d   1       3.021  89.929 115.367  0.00  0.00     0.016 C 
ATOM      3  C   LIG d   1       4.160  90.536 115.947  0.00  0.00     0.038 C 
ATOM      4  C   LIG d   1       4.063  91.377 117.065  0.00  0.00     0.028 C 
ATOM      5  C   LIG d   1       2.724  92.099 117.165  0.00  0.00    -0.047 C 
ATOM      6  C   LIG d   1       1.584  91.061 117.048  0.00  0.00     0.091 C 
ENDROOT
BRANCH   1   7
ATOM      7  O   LIG d   1       0.940  89.012 115.869  0.00  0.00    -0.368 OA
BRANCH   7   8
ATOM      8  C   LIG d   1       1.706  87.789 116.007  0.00  0.00     0.119 C 
BRANCH   8   9
ATOM      9  C   LIG d   1       0.938  86.677 115.266  0.00  0.00     0.028 C 
ATOM     10  C   LIG d   1       0.383  85.609 116.224  0.00  0.00     0.006 C 
ENDBRANCH   8   9
BRANCH   8  11
ATOM     11  C   LIG d   1       1.770  87.334 117.468  0.00  0.00     0.028 C 
ATOM     12  C   LIG d   1       3.172  87.487 118.078  0.00  0.00     0.006 C 
ENDBRANCH   8  11
ENDBRANCH   7   8
ENDBRANCH   1   7
BRANCH   6  13
ATOM     13  N   LIG d   1       0.239  91.693 117.052  0.00  0.00    -0.311 N 
ATOM     14  C   LIG d   1      -0.531  91.771 118.136  0.00  0.00     0.210 C 
ATOM     15  C   LIG d   1      -1.889  92.445 117.917  0.00  0.00     0.109 C 
ATOM     16  O   LIG d   1      -0.205  91.375 119.265  0.00  0.00    -0.276 OA
ATOM     17  H   LIG d   1      -0.091  92.069 116.185  0.00  0.00     0.149 HD
ENDBRANCH   6  13
BRANCH   5  18
ATOM     18  N   LIG d   1       2.708  92.833 118.445  0.00  0.00     0.381 N 
ATOM     19  H   LIG d   1       1.785  93.172 118.629  0.00  0.00    -0.090 HD
ATOM     20  H   LIG d   1       3.326  93.622 118.375  0.00  0.00    -0.090 HD
ATOM     21  H   LIG d   1       3.003  92.234 119.185  0.00  0.00    -0.090 HD
ENDBRANCH   5  18
BRANCH   3  22
ATOM     22  C   LIG d   1       5.409  90.332 115.381  0.00  0.00     0.382 C 
ATOM     23  O   LIG d   1       5.503  89.908 114.204  0.00  0.00    -0.241 OA
ATOM     24  O   LIG d   1       6.444  90.526 116.048  0.00  0.00    -0.241 OA
ENDBRANCH   3  22
TORSDOF 7
ENDMDL
MODEL 5
REMARK VINA RESULT:      -4.9      6.462      9.612
REMARK  7 active torsions:
REMARK  status: ('A' for Active; 'I' for Inactive)
REMARK    1  A    between atoms: C_2  and  C_3 
REMARK    2  A    between atoms: C_3  and  O_6 
REMARK    3  A    between atoms: C_3  and  C_4 
REMARK    4  A    between atoms: C_7  and  O_6 
REMARK    5  A    between atoms: C_9  and  C_10 
REMARK    6  A    between atoms: N_15  and  C_14 
REMARK    7  A    between atoms: N_20  and  C_19 
REMARK       I    between atoms: C_22  and  N_20 
ROOT
ATOM      1  C   LIG d   1       1.800  89.686 116.846  0.00  0.00     0.161 C 
ATOM      2  C   LIG d   1       0.733  90.090 117.666  0.00  0.00     0.016 C 
ATOM      3  C   LIG d   1       0.638  91.379 118.240  0.00  0.00     0.038 C 
ATOM      4  C   LIG d   1       1.532  92.407 117.907  0.00  0.00     0.028 C 
ATOM      5  C   LIG d   1       2.906  91.900 117.481  0.00  0.00    -0.047 C 
ATOM      6  C   LIG d   1       2.727  90.828 116.381  0.00  0.00     0.091 C 
ENDROOT
BRANCH   1   7
ATOM      7  O   LIG d   1       1.294  88.958 115.709  0.00  0.00    -0.368 OA
BRANCH   7   8
ATOM      8  C   LIG d   1       1.570  87.536 115.688  0.00  0.00     0.119 C 
BRANCH   8   9
ATOM      9  C   LIG d   1       2.361  87.238 114.399  0.00  0.00     0.028 C 
ATOM     10  C   LIG d   1       3.585  86.344 114.656  0.00  0.00     0.006 C 
ENDBRANCH   8   9
BRANCH   8  11
ATOM     11  C   LIG d   1       0.280  86.719 115.571  0.00  0.00     0.028 C 
ATOM     12  C   LIG d   1       0.265  85.494 116.499  0.00  0.00     0.006 C 
ENDBRANCH   8  11
ENDBRANCH   7   8
ENDBRANCH   1   7
BRANCH   6  13
ATOM     13  N   LIG d   1       4.018  90.219 115.968  0.00  0.00    -0.311 N 
ATOM     14  C   LIG d   1       4.386  90.072 114.696  0.00  0.00     0.210 C 
ATOM     15  C   LIG d   1       5.748  89.402 114.490  0.00  0.00     0.109 C 
ATOM     16  O   LIG d   1       3.727  90.462 113.720  0.00  0.00    -0.276 OA
ATOM     17  H   LIG d   1       4.628  89.904 116.697  0.00  0.00     0.149 HD
ENDBRANCH   6  13
BRANCH   5  18
ATOM     18  N   LIG d   1       3.691  93.065 117.031  0.00  0.00     0.381 N 
ATOM     19  H   LIG d   1       4.143  92.854 116.163  0.00  0.00    -0.090 HD
ATOM     20  H   LIG d   1       4.400  93.263 117.715  0.00  0.00    -0.090 HD
ATOM     21  H   LIG d   1       3.095  93.855 116.921  0.00  0.00    -0.090 HD
ENDBRANCH   5  18
BRANCH   3  22
ATOM     22  C   LIG d   1      -0.339  91.638 119.189  0.00  0.00     0.382 C 
ATOM     23  O   LIG d   1      -1.411  92.196 118.850  0.00  0.00    -0.241 OA
ATOM     24  O   LIG d   1      -0.145  91.360 120.388  0.00  0.00    -0.241 OA
ENDBRANCH   3  22
TORSDOF 7
ENDMDL
MODEL 6
REMARK VINA RESULT:      -4.9      6.511      9.446
REMARK  7 active torsions:
REMARK  status: ('A' for Active; 'I' for Inactive)
REMARK    1  A    between atoms: C_2  and  C_3 
REMARK    2  A    between atoms: C_3  and  O_6 
REMARK    3  A    between atoms: C_3  and  C_4 
REMARK    4  A    between atoms: C_7  and  O_6 
REMARK    5  A    between atoms: C_9  and  C_10 
REMARK    6  A    between atoms: N_15  and  C_14 
REMARK    7  A    between atoms: N_20  and  C_19 
REMARK       I    between atoms: C_22  and  N_20 
ROOT
ATOM      1  C   LIG d   1       1.802  89.768 116.815  0.00  0.00     0.161 C 
ATOM      2  C   LIG d   1       0.753  90.174 117.656  0.00  0.00     0.016 C 
ATOM      3  C   LIG d   1       0.698  91.445 118.274  0.00  0.00     0.038 C 
ATOM      4  C   LIG d   1       1.620  92.457 117.970  0.00  0.00     0.028 C 
ATOM      5  C   LIG d   1       2.976  91.926 117.518  0.00  0.00    -0.047 C 
ATOM      6  C   LIG d   1       2.759  90.898 116.383  0.00  0.00     0.091 C 
ENDROOT
BRANCH   1   7
ATOM      7  O   LIG d   1       1.268  89.095 115.658  0.00  0.00    -0.368 OA
BRANCH   7   8
ATOM      8  C   LIG d   1       1.600  87.691 115.528  0.00  0.00     0.119 C 
BRANCH   8   9
ATOM      9  C   LIG d   1       0.291  86.890 115.673  0.00  0.00     0.028 C 
ATOM     10  C   LIG d   1       0.070  85.911 114.508  0.00  0.00     0.006 C 
ENDBRANCH   8   9
BRANCH   8  11
ATOM     11  C   LIG d   1       2.493  87.220 116.679  0.00  0.00     0.028 C 
ATOM     12  C   LIG d   1       3.801  86.575 116.193  0.00  0.00     0.006 C 
ENDBRANCH   8  11
ENDBRANCH   7   8
ENDBRANCH   1   7
BRANCH   6  13
ATOM     13  N   LIG d   1       4.030  90.267 115.940  0.00  0.00    -0.311 N 
ATOM     14  C   LIG d   1       4.337  90.058 114.661  0.00  0.00     0.210 C 
ATOM     15  C   LIG d   1       5.688  89.375 114.424  0.00  0.00     0.109 C 
ATOM     16  O   LIG d   1       3.634  90.402 113.699  0.00  0.00    -0.276 OA
ATOM     17  H   LIG d   1       4.672  89.985 116.654  0.00  0.00     0.149 HD
ENDBRANCH   6  13
BRANCH   5  18
ATOM     18  N   LIG d   1       3.792  93.082 117.102  0.00  0.00     0.381 N 
ATOM     19  H   LIG d   1       3.355  93.545 116.330  0.00  0.00    -0.090 HD
ATOM     20  H   LIG d   1       4.693  92.754 116.804  0.00  0.00    -0.090 HD
ATOM     21  H   LIG d   1       3.897  93.717 117.863  0.00  0.00    -0.090 HD
ENDBRANCH   5  18
BRANCH   3  22
ATOM     22  C   LIG d   1      -0.265  91.699 119.239  0.00  0.00     0.382 C 
ATOM     23  O   LIG d   1      -0.071  91.347 120.427  0.00  0.00    -0.241 OA
ATOM     24  O   LIG d   1      -1.345  92.236 118.927  0.00  0.00    -0.241 OA
ENDBRANCH   3  22
TORSDOF 7
ENDMDL
MODEL 7
REMARK VINA RESULT:      -4.9      2.361      6.053
REMARK  7 active torsions:
REMARK  status: ('A' for Active; 'I' for Inactive)
REMARK    1  A    between atoms: C_2  and  C_3 
REMARK    2  A    between atoms: C_3  and  O_6 
REMARK    3  A    between atoms: C_3  and  C_4 
REMARK    4  A    between atoms: C_7  and  O_6 
REMARK    5  A    between atoms: C_9  and  C_10 
REMARK    6  A    between atoms: N_15  and  C_14 
REMARK    7  A    between atoms: N_20  and  C_19 
REMARK       I    between atoms: C_22  and  N_20 
ROOT
ATOM      1  C   LIG d   1      -4.054  91.114 117.269  0.00  0.00     0.161 C 
ATOM      2  C   LIG d   1      -4.235  90.316 116.127  0.00  0.00     0.016 C 
ATOM      3  C   LIG d   1      -5.457  90.237 115.419  0.00  0.00     0.038 C 
ATOM      4  C   LIG d   1      -6.543  91.072 115.718  0.00  0.00     0.028 C 
ATOM      5  C   LIG d   1      -6.574  91.526 117.174  0.00  0.00    -0.047 C 
ATOM      6  C   LIG d   1      -5.195  92.116 117.545  0.00  0.00     0.091 C 
ENDROOT
BRANCH   1   7
ATOM      7  O   LIG d   1      -2.791  91.803 117.188  0.00  0.00    -0.368 OA
BRANCH   7   8
ATOM      8  C   LIG d   1      -1.768  91.368 118.118  0.00  0.00     0.119 C 
BRANCH   8   9
ATOM      9  C   LIG d   1      -1.903  92.228 119.390  0.00  0.00     0.028 C 
ATOM     10  C   LIG d   1      -1.813  93.734 119.092  0.00  0.00     0.006 C 
ENDBRANCH   8   9
BRANCH   8  11
ATOM     11  C   LIG d   1      -0.364  91.660 117.579  0.00  0.00     0.028 C 
ATOM     12  C   LIG d   1       0.101  90.627 116.540  0.00  0.00     0.006 C 
ENDBRANCH   8  11
ENDBRANCH   7   8
ENDBRANCH   1   7
BRANCH   6  13
ATOM     13  N   LIG d   1      -5.112  92.508 118.976  0.00  0.00    -0.311 N 
ATOM     14  C   LIG d   1      -5.414  93.727 119.421  0.00  0.00     0.210 C 
ATOM     15  C   LIG d   1      -5.241  93.926 120.930  0.00  0.00     0.109 C 
ATOM     16  O   LIG d   1      -5.839  94.653 118.713  0.00  0.00    -0.276 OA
ATOM     17  H   LIG d   1      -4.806  91.809 119.624  0.00  0.00     0.149 HD
ENDBRANCH   6  13
BRANCH   5  18
ATOM     18  N   LIG d   1      -7.675  92.498 117.314  0.00  0.00     0.381 N 
ATOM     19  H   LIG d   1      -7.601  92.969 118.193  0.00  0.00    -0.090 HD
ATOM     20  H   LIG d   1      -8.550  92.003 117.294  0.00  0.00    -0.090 HD
ATOM     21  H   LIG d   1      -7.643  93.160 116.570  0.00  0.00    -0.090 HD
ENDBRANCH   5  18
BRANCH   3  22
ATOM     22  C   LIG d   1      -5.613  89.285 114.422  0.00  0.00     0.382 C 
ATOM     23  O   LIG d   1      -6.704  89.190 113.811  0.00  0.00    -0.241 OA
ATOM     24  O   LIG d   1      -4.690  88.490 114.158  0.00  0.00    -0.241 OA
ENDBRANCH   3  22
TORSDOF 7
ENDMDL
MODEL 8
REMARK VINA RESULT:      -4.8      7.819     10.720
REMARK  7 active torsions:
REMARK  status: ('A' for Active; 'I' for Inactive)
REMARK    1  A    between atoms: C_2  and  C_3 
REMARK    2  A    between atoms: C_3  and  O_6 
REMARK    3  A    between atoms: C_3  and  C_4 
REMARK    4  A    between atoms: C_7  and  O_6 
REMARK    5  A    between atoms: C_9  and  C_10 
REMARK    6  A    between atoms: N_15  and  C_14 
REMARK    7  A    between atoms: N_20  and  C_19 
REMARK       I    between atoms: C_22  and  N_20 
ROOT
ATOM      1  C   LIG d   1       3.229  89.054 117.677  0.00  0.00     0.161 C 
ATOM      2  C   LIG d   1       2.600  87.955 117.068  0.00  0.00     0.016 C 
ATOM      3  C   LIG d   1       1.365  88.045 116.386  0.00  0.00     0.038 C 
ATOM      4  C   LIG d   1       0.744  89.278 116.135  0.00  0.00     0.028 C 
ATOM      5  C   LIG d   1       1.085  90.348 117.166  0.00  0.00    -0.047 C 
ATOM      6  C   LIG d   1       2.621  90.427 117.319  0.00  0.00     0.091 C 
ENDROOT
BRANCH   1   7
ATOM      7  O   LIG d   1       4.639  89.037 117.380  0.00  0.00    -0.368 OA
BRANCH   7   8
ATOM      8  C   LIG d   1       5.033  89.641 116.123  0.00  0.00     0.119 C 
BRANCH   8   9
ATOM      9  C   LIG d   1       5.495  88.505 115.190  0.00  0.00     0.028 C 
ATOM     10  C   LIG d   1       5.505  88.928 113.711  0.00  0.00     0.006 C 
ENDBRANCH   8   9
BRANCH   8  11
ATOM     11  C   LIG d   1       6.256  90.545 116.298  0.00  0.00     0.028 C 
ATOM     12  C   LIG d   1       6.668  90.712 117.769  0.00  0.00     0.006 C 
ENDBRANCH   8  11
ENDBRANCH   7   8
ENDBRANCH   1   7
BRANCH   6  13
ATOM     13  N   LIG d   1       3.038  91.391 118.370  0.00  0.00    -0.311 N 
ATOM     14  C   LIG d   1       3.478  92.620 118.104  0.00  0.00     0.210 C 
ATOM     15  C   LIG d   1       3.875  93.445 119.333  0.00  0.00     0.109 C 
ATOM     16  O   LIG d   1       3.546  93.117 116.970  0.00  0.00    -0.276 OA
ATOM     17  H   LIG d   1       2.985  91.081 119.320  0.00  0.00     0.149 HD
ENDBRANCH   6  13
BRANCH   5  18
ATOM     18  N   LIG d   1       0.484  91.615 116.709  0.00  0.00     0.381 N 
ATOM     19  H   LIG d   1       0.176  91.521 115.762  0.00  0.00    -0.090 HD
ATOM     20  H   LIG d   1       1.182  92.337 116.743  0.00  0.00    -0.090 HD
ATOM     21  H   LIG d   1      -0.285  91.858 117.294  0.00  0.00    -0.090 HD
ENDBRANCH   5  18
BRANCH   3  22
ATOM     22  C   LIG d   1       0.718  86.887 115.981  0.00  0.00     0.382 C 
ATOM     23  O   LIG d   1       0.571  85.937 116.787  0.00  0.00    -0.241 OA
ATOM     24  O   LIG d   1       0.319  86.764 114.807  0.00  0.00    -0.241 OA
ENDBRANCH   3  22
TORSDOF 7
ENDMDL
MODEL 9
REMARK VINA RESULT:      -4.8      7.332     10.033
REMARK  7 active torsions:
REMARK  status: ('A' for Active; 'I' for Inactive)
REMARK    1  A    between atoms: C_2  and  C_3 
REMARK    2  A    between atoms: C_3  and  O_6 
REMARK    3  A    between atoms: C_3  and  C_4 
REMARK    4  A    between atoms: C_7  and  O_6 
REMARK    5  A    between atoms: C_9  and  C_10 
REMARK    6  A    between atoms: N_15  and  C_14 
REMARK    7  A    between atoms: N_20  and  C_19 
REMARK       I    between atoms: C_22  and  N_20 
ROOT
ATOM      1  C   LIG d   1       2.846  89.380 116.279  0.00  0.00     0.161 C 
ATOM      2  C   LIG d   1       3.316  90.578 116.843  0.00  0.00     0.016 C 
ATOM      3  C   LIG d   1       2.465  91.610 117.299  0.00  0.00     0.038 C 
ATOM      4  C   LIG d   1       1.072  91.450 117.360  0.00  0.00     0.028 C 
ATOM      5  C   LIG d   1       0.530  90.460 116.335  0.00  0.00    -0.047 C 
ATOM      6  C   LIG d   1       1.330  89.141 116.441  0.00  0.00     0.091 C 
ENDROOT
BRANCH   1   7
ATOM      7  O   LIG d   1       3.588  88.265 116.811  0.00  0.00    -0.368 OA
BRANCH   7   8
ATOM      8  C   LIG d   1       4.497  87.609 115.894  0.00  0.00     0.119 C 
BRANCH   8   9
ATOM      9  C   LIG d   1       5.921  88.097 116.225  0.00  0.00     0.028 C 
ATOM     10  C   LIG d   1       6.194  88.127 117.738  0.00  0.00     0.006 C 
ENDBRANCH   8   9
BRANCH   8  11
ATOM     11  C   LIG d   1       4.244  88.048 114.449  0.00  0.00     0.028 C 
ATOM     12  C   LIG d   1       5.462  88.737 113.813  0.00  0.00     0.006 C 
ENDBRANCH   8  11
ENDBRANCH   7   8
ENDBRANCH   1   7
BRANCH   6  13
ATOM     13  N   LIG d   1       0.920  88.146 115.416  0.00  0.00    -0.311 N 
ATOM     14  C   LIG d   1       0.726  86.856 115.683  0.00  0.00     0.210 C 
ATOM     15  C   LIG d   1       0.325  85.999 114.477  0.00  0.00     0.109 C 
ATOM     16  O   LIG d   1       0.816  86.345 116.809  0.00  0.00    -0.276 OA
ATOM     17  H   LIG d   1       0.793  88.481 114.480  0.00  0.00     0.149 HD
ENDBRANCH   6  13
BRANCH   5  18
ATOM     18  N   LIG d   1      -0.910  90.286 116.602  0.00  0.00     0.381 N 
ATOM     19  H   LIG d   1      -1.117  90.565 117.540  0.00  0.00    -0.090 HD
ATOM     20  H   LIG d   1      -1.144  89.314 116.503  0.00  0.00    -0.090 HD
ATOM     21  H   LIG d   1      -1.444  90.830 115.961  0.00  0.00    -0.090 HD
ENDBRANCH   5  18
BRANCH   3  22
ATOM     22  C   LIG d   1       3.004  92.835 117.662  0.00  0.00     0.382 C 
ATOM     23  O   LIG d   1       3.691  93.487 116.838  0.00  0.00    -0.241 OA
ATOM     24  O   LIG d   1       2.848  93.277 118.816  0.00  0.00    -0.241 OA
ENDBRANCH   3  22
TORSDOF 7
ENDMDL
