MODEL 1
REMARK VINA RESULT:      -5.2      0.000      0.000
REMARK  7 active torsions:
REMARK  status: ('A' for Active; 'I' for Inactive)
REMARK    1  A    between atoms: C_2  and  C_3 
REMARK    2  A    between atoms: C_3  and  O_6 
REMARK    3  A    between atoms: C_3  and  C_4 
REMARK    4  A    between atoms: C_7  and  O_6 
REMARK    5  A    between atoms: C_9  and  C_10 
REMARK    6  A    between atoms: N_15  and  C_14 
REMARK    7  A    between atoms: N_20  and  C_19 
REMARK       I    between atoms: C_22  and  N_20 
ROOT
ATOM      1  C   LIG d   1      -5.822  92.896 117.184  0.00  0.00     0.161 C 
ATOM      2  C   LIG d   1      -6.993  92.281 116.709  0.00  0.00     0.016 C 
ATOM      3  C   LIG d   1      -7.004  91.023 116.064  0.00  0.00     0.038 C 
ATOM      4  C   LIG d   1      -5.856  90.221 115.984  0.00  0.00     0.028 C 
ATOM      5  C   LIG d   1      -4.557  91.019 116.000  0.00  0.00    -0.047 C 
ATOM      6  C   LIG d   1      -4.577  91.986 117.205  0.00  0.00     0.091 C 
ENDROOT
BRANCH   1   7
ATOM      7  O   LIG d   1      -6.059  93.452 118.493  0.00  0.00    -0.368 OA
BRANCH   7   8
ATOM      8  C   LIG d   1      -5.991  94.896 118.593  0.00  0.00     0.119 C 
BRANCH   8   9
ATOM      9  C   LIG d   1      -5.113  95.235 119.813  0.00  0.00     0.028 C 
ATOM     10  C   LIG d   1      -4.029  96.275 119.485  0.00  0.00     0.006 C 
ENDBRANCH   8   9
BRANCH   8  11
ATOM     11  C   LIG d   1      -7.365  95.498 118.903  0.00  0.00     0.028 C 
ATOM     12  C   LIG d   1      -8.052  96.086 117.661  0.00  0.00     0.006 C 
ENDBRANCH   8  11
ENDBRANCH   7   8
ENDBRANCH   1   7
BRANCH   6  13
ATOM     13  N   LIG d   1      -3.378  92.864 117.247  0.00  0.00    -0.311 N 
ATOM     14  C   LIG d   1      -2.573  92.956 118.303  0.00  0.00     0.210 C 
ATOM     15  C   LIG d   1      -1.406  93.936 118.144  0.00  0.00     0.109 C 
ATOM     16  O   LIG d   1      -2.695  92.295 119.345  0.00  0.00    -0.276 OA
ATOM     17  H   LIG d   1      -3.186  93.413 116.431  0.00  0.00     0.149 HD
ENDBRANCH   6  13
BRANCH   5  18
ATOM     18  N   LIG d   1      -3.442  90.054 116.051  0.00  0.00     0.381 N 
ATOM     19  H   LIG d   1      -2.627  90.456 115.634  0.00  0.00    -0.090 HD
ATOM     20  H   LIG d   1      -3.695  89.237 115.524  0.00  0.00    -0.090 HD
ATOM     21  H   LIG d   1      -3.251  89.803 116.996  0.00  0.00    -0.090 HD
ENDBRANCH   5  18
BRANCH   3  22
ATOM     22  C   LIG d   1      -8.166  90.574 115.455  0.00  0.00     0.382 C 
ATOM     23  O   LIG d   1      -8.768  91.308 114.634  0.00  0.00    -0.241 OA
ATOM     24  O   LIG d   1      -8.644  89.462 115.748  0.00  0.00    -0.241 OA
ENDBRANCH   3  22
TORSDOF 7
ENDMDL
MODEL 2
REMARK VINA RESULT:      -4.9      1.221      1.442
REMARK  7 active torsions:
REMARK  status: ('A' for Active; 'I' for Inactive)
REMARK    1  A    between atoms: C_2  and  C_3 
REMARK    2  A    between atoms: C_3  and  O_6 
REMARK    3  A    between atoms: C_3  and  C_4 
REMARK    4  A    between atoms: C_7  and  O_6 
REMARK    5  A    between atoms: C_9  and  C_10 
REMARK    6  A    between atoms: N_15  and  C_14 
REMARK    7  A    between atoms: N_20  and  C_19 
REMARK       I    between atoms: C_22  and  N_20 
ROOT
ATOM      1  C   LIG d   1      -6.098  93.306 117.263  0.00  0.00     0.161 C 
ATOM      2  C   LIG d   1      -6.986  92.603 116.431  0.00  0.00     0.016 C 
ATOM      3  C   LIG d   1      -6.686  91.345 115.861  0.00  0.00     0.038 C 
ATOM      4  C   LIG d   1      -5.531  90.629 116.209  0.00  0.00     0.028 C 
ATOM      5  C   LIG d   1      -4.376  91.521 116.650  0.00  0.00    -0.047 C 
ATOM      6  C   LIG d   1      -4.879  92.491 117.743  0.00  0.00     0.091 C 
ENDROOT
BRANCH   1   7
ATOM      7  O   LIG d   1      -6.812  93.850 118.391  0.00  0.00    -0.368 OA
BRANCH   7   8
ATOM      8  C   LIG d   1      -6.777  95.291 118.533  0.00  0.00     0.119 C 
BRANCH   8   9
ATOM      9  C   LIG d   1      -7.239  95.627 119.964  0.00  0.00     0.028 C 
ATOM     10  C   LIG d   1      -6.059  95.881 120.918  0.00  0.00     0.006 C 
ENDBRANCH   8   9
BRANCH   8  11
ATOM     11  C   LIG d   1      -7.794  95.968 117.609  0.00  0.00     0.028 C 
ATOM     12  C   LIG d   1      -8.934  96.653 118.378  0.00  0.00     0.006 C 
ENDBRANCH   8  11
ENDBRANCH   7   8
ENDBRANCH   1   7
BRANCH   6  13
ATOM     13  N   LIG d   1      -3.833  93.456 118.170  0.00  0.00    -0.311 N 
ATOM     14  C   LIG d   1      -3.472  93.632 119.441  0.00  0.00     0.210 C 
ATOM     15  C   LIG d   1      -2.388  94.691 119.664  0.00  0.00     0.109 C 
ATOM     16  O   LIG d   1      -3.924  92.989 120.400  0.00  0.00    -0.276 OA
ATOM     17  H   LIG d   1      -3.391  93.997 117.453  0.00  0.00     0.149 HD
ENDBRANCH   6  13
BRANCH   5  18
ATOM     18  N   LIG d   1      -3.286  90.642 117.114  0.00  0.00     0.381 N 
ATOM     19  H   LIG d   1      -2.726  90.356 116.335  0.00  0.00    -0.090 HD
ATOM     20  H   LIG d   1      -3.686  89.821 117.533  0.00  0.00    -0.090 HD
ATOM     21  H   LIG d   1      -2.721  91.122 117.779  0.00  0.00    -0.090 HD
ENDBRANCH   5  18
BRANCH   3  22
ATOM     22  C   LIG d   1      -7.530  90.807 114.901  0.00  0.00     0.382 C 
ATOM     23  O   LIG d   1      -7.183  89.785 114.263  0.00  0.00    -0.241 OA
ATOM     24  O   LIG d   1      -8.615  91.358 114.634  0.00  0.00    -0.241 OA
ENDBRANCH   3  22
TORSDOF 7
ENDMDL
MODEL 3
REMARK VINA RESULT:      -4.9      1.767      4.935
REMARK  7 active torsions:
REMARK  status: ('A' for Active; 'I' for Inactive)
REMARK    1  A    between atoms: C_2  and  C_3 
REMARK    2  A    between atoms: C_3  and  O_6 
REMARK    3  A    between atoms: C_3  and  C_4 
REMARK    4  A    between atoms: C_7  and  O_6 
REMARK    5  A    between atoms: C_9  and  C_10 
REMARK    6  A    between atoms: N_15  and  C_14 
REMARK    7  A    between atoms: N_20  and  C_19 
REMARK       I    between atoms: C_22  and  N_20 
ROOT
ATOM      1  C   LIG d   1      -6.042  93.350 118.359  0.00  0.00     0.161 C 
ATOM      2  C   LIG d   1      -5.045  93.619 119.312  0.00  0.00     0.016 C 
ATOM      3  C   LIG d   1      -3.776  92.995 119.307  0.00  0.00     0.038 C 
ATOM      4  C   LIG d   1      -3.361  92.167 118.254  0.00  0.00     0.028 C 
ATOM      5  C   LIG d   1      -4.515  91.473 117.538  0.00  0.00    -0.047 C 
ATOM      6  C   LIG d   1      -5.568  92.532 117.140  0.00  0.00     0.091 C 
ENDROOT
BRANCH   1   7
ATOM      7  O   LIG d   1      -6.652  94.583 117.929  0.00  0.00    -0.368 OA
BRANCH   7   8
ATOM      8  C   LIG d   1      -6.671  95.658 118.901  0.00  0.00     0.119 C 
BRANCH   8   9
ATOM      9  C   LIG d   1      -8.142  96.066 119.111  0.00  0.00     0.028 C 
ATOM     10  C   LIG d   1      -8.860  96.375 117.786  0.00  0.00     0.006 C 
ENDBRANCH   8   9
BRANCH   8  11
ATOM     11  C   LIG d   1      -5.975  96.910 118.360  0.00  0.00     0.028 C 
ATOM     12  C   LIG d   1      -4.804  97.370 119.242  0.00  0.00     0.006 C 
ENDBRANCH   8  11
ENDBRANCH   7   8
ENDBRANCH   1   7
BRANCH   6  13
ATOM     13  N   LIG d   1      -6.770  91.928 116.508  0.00  0.00    -0.311 N 
ATOM     14  C   LIG d   1      -6.950  91.860 115.191  0.00  0.00     0.210 C 
ATOM     15  C   LIG d   1      -8.268  91.215 114.751  0.00  0.00     0.109 C 
ATOM     16  O   LIG d   1      -6.129  92.243 114.344  0.00  0.00    -0.276 OA
ATOM     17  H   LIG d   1      -7.473  91.564 117.122  0.00  0.00     0.149 HD
ENDBRANCH   6  13
BRANCH   5  18
ATOM     18  N   LIG d   1      -3.953  90.752 116.380  0.00  0.00     0.381 N 
ATOM     19  H   LIG d   1      -3.054  91.127 116.152  0.00  0.00    -0.090 HD
ATOM     20  H   LIG d   1      -4.559  90.884 115.590  0.00  0.00    -0.090 HD
ATOM     21  H   LIG d   1      -3.873  89.781 116.589  0.00  0.00    -0.090 HD
ENDBRANCH   5  18
BRANCH   3  22
ATOM     22  C   LIG d   1      -2.922  93.168 120.385  0.00  0.00     0.382 C 
ATOM     23  O   LIG d   1      -2.304  92.184 120.859  0.00  0.00    -0.241 OA
ATOM     24  O   LIG d   1      -2.795  94.286 120.919  0.00  0.00    -0.241 OA
ENDBRANCH   3  22
TORSDOF 7
ENDMDL
MODEL 4
REMARK VINA RESULT:      -4.8      2.679      4.442
REMARK  7 active torsions:
REMARK  status: ('A' for Active; 'I' for Inactive)
REMARK    1  A    between atoms: C_2  and  C_3 
REMARK    2  A    between atoms: C_3  and  O_6 
REMARK    3  A    between atoms: C_3  and  C_4 
REMARK    4  A    between atoms: C_7  and  O_6 
REMARK    5  A    between atoms: C_9  and  C_10 
REMARK    6  A    between atoms: N_15  and  C_14 
REMARK    7  A    between atoms: N_20  and  C_19 
REMARK       I    between atoms: C_22  and  N_20 
ROOT
ATOM      1  C   LIG d   1      -4.620  93.101 119.396  0.00  0.00     0.161 C 
ATOM      2  C   LIG d   1      -3.766  92.103 118.897  0.00  0.00     0.016 C 
ATOM      3  C   LIG d   1      -3.985  91.432 117.672  0.00  0.00     0.038 C 
ATOM      4  C   LIG d   1      -4.998  91.823 116.784  0.00  0.00     0.028 C 
ATOM      5  C   LIG d   1      -6.186  92.486 117.473  0.00  0.00    -0.047 C 
ATOM      6  C   LIG d   1      -5.667  93.619 118.388  0.00  0.00     0.091 C 
ENDROOT
BRANCH   1   7
ATOM      7  O   LIG d   1      -3.840  94.197 119.914  0.00  0.00    -0.368 OA
BRANCH   7   8
ATOM      8  C   LIG d   1      -3.408  95.186 118.947  0.00  0.00     0.119 C 
BRANCH   8   9
ATOM      9  C   LIG d   1      -1.868  95.148 118.903  0.00  0.00     0.028 C 
ATOM     10  C   LIG d   1      -1.332  94.637 117.555  0.00  0.00     0.006 C 
ENDBRANCH   8   9
BRANCH   8  11
ATOM     11  C   LIG d   1      -3.766  96.604 119.403  0.00  0.00     0.028 C 
ATOM     12  C   LIG d   1      -4.442  96.633 120.782  0.00  0.00     0.006 C 
ENDBRANCH   8  11
ENDBRANCH   7   8
ENDBRANCH   1   7
BRANCH   6  13
ATOM     13  N   LIG d   1      -6.758  94.264 119.164  0.00  0.00    -0.311 N 
ATOM     14  C   LIG d   1      -7.330  95.413 118.809  0.00  0.00     0.210 C 
ATOM     15  C   LIG d   1      -8.421  95.914 119.761  0.00  0.00     0.109 C 
ATOM     16  O   LIG d   1      -7.060  96.049 117.779  0.00  0.00    -0.276 OA
ATOM     17  H   LIG d   1      -7.060  93.800 119.998  0.00  0.00     0.149 HD
ENDBRANCH   6  13
BRANCH   5  18
ATOM     18  N   LIG d   1      -7.101  92.966 116.420  0.00  0.00     0.381 N 
ATOM     19  H   LIG d   1      -7.699  93.677 116.790  0.00  0.00    -0.090 HD
ATOM     20  H   LIG d   1      -7.674  92.200 116.114  0.00  0.00    -0.090 HD
ATOM     21  H   LIG d   1      -6.578  93.327 115.653  0.00  0.00    -0.090 HD
ENDBRANCH   5  18
BRANCH   3  22
ATOM     22  C   LIG d   1      -3.210  90.330 117.344  0.00  0.00     0.382 C 
ATOM     23  O   LIG d   1      -3.579  89.554 116.430  0.00  0.00    -0.241 OA
ATOM     24  O   LIG d   1      -2.169  90.078 117.980  0.00  0.00    -0.241 OA
ENDBRANCH   3  22
TORSDOF 7
ENDMDL
MODEL 5
REMARK VINA RESULT:      -4.8      1.451      2.106
REMARK  7 active torsions:
REMARK  status: ('A' for Active; 'I' for Inactive)
REMARK    1  A    between atoms: C_2  and  C_3 
REMARK    2  A    between atoms: C_3  and  O_6 
REMARK    3  A    between atoms: C_3  and  C_4 
REMARK    4  A    between atoms: C_7  and  O_6 
REMARK    5  A    between atoms: C_9  and  C_10 
REMARK    6  A    between atoms: N_15  and  C_14 
REMARK    7  A    between atoms: N_20  and  C_19 
REMARK       I    between atoms: C_22  and  N_20 
ROOT
ATOM      1  C   LIG d   1      -6.060  93.650 117.779  0.00  0.00     0.161 C 
ATOM      2  C   LIG d   1      -6.771  92.787 116.928  0.00  0.00     0.016 C 
ATOM      3  C   LIG d   1      -6.208  91.624 116.353  0.00  0.00     0.038 C 
ATOM      4  C   LIG d   1      -4.934  91.161 116.713  0.00  0.00     0.028 C 
ATOM      5  C   LIG d   1      -3.996  92.270 117.178  0.00  0.00    -0.047 C 
ATOM      6  C   LIG d   1      -4.705  93.101 118.271  0.00  0.00     0.091 C 
ENDROOT
BRANCH   1   7
ATOM      7  O   LIG d   1      -6.887  94.021 118.900  0.00  0.00    -0.368 OA
BRANCH   7   8
ATOM      8  C   LIG d   1      -6.889  95.426 119.253  0.00  0.00     0.119 C 
BRANCH   8   9
ATOM      9  C   LIG d   1      -8.229  95.726 119.953  0.00  0.00     0.028 C 
ATOM     10  C   LIG d   1      -9.251  96.380 119.009  0.00  0.00     0.006 C 
ENDBRANCH   8   9
BRANCH   8  11
ATOM     11  C   LIG d   1      -6.877  96.314 118.005  0.00  0.00     0.028 C 
ATOM     12  C   LIG d   1      -5.811  97.420 118.071  0.00  0.00     0.006 C 
ENDBRANCH   8  11
ENDBRANCH   7   8
ENDBRANCH   1   7
BRANCH   6  13
ATOM     13  N   LIG d   1      -3.888  94.259 118.721  0.00  0.00    -0.311 N 
ATOM     14  C   LIG d   1      -3.082  94.219 119.781  0.00  0.00     0.210 C 
ATOM     15  C   LIG d   1      -2.346  95.528 120.083  0.00  0.00     0.109 C 
ATOM     16  O   LIG d   1      -2.881  93.214 120.480  0.00  0.00    -0.276 OA
ATOM     17  H   LIG d   1      -3.966  95.105 118.193  0.00  0.00     0.149 HD
ENDBRANCH   6  13
BRANCH   5  18
ATOM     18  N   LIG d   1      -2.753  91.632 117.652  0.00  0.00     0.381 N 
ATOM     19  H   LIG d   1      -2.273  91.211 116.881  0.00  0.00    -0.090 HD
ATOM     20  H   LIG d   1      -2.988  90.909 118.309  0.00  0.00    -0.090 HD
ATOM     21  H   LIG d   1      -2.167  92.310 118.087  0.00  0.00    -0.090 HD
ENDBRANCH   5  18
BRANCH   3  22
ATOM     22  C   LIG d   1      -6.909  90.933 115.376  0.00  0.00     0.382 C 
ATOM     23  O   LIG d   1      -7.287  91.526 114.338  0.00  0.00    -0.241 OA
ATOM     24  O   LIG d   1      -7.205  89.734 115.540  0.00  0.00    -0.241 OA
ENDBRANCH   3  22
TORSDOF 7
ENDMDL
MODEL 6
REMARK VINA RESULT:      -4.8      2.335      4.546
REMARK  7 active torsions:
REMARK  status: ('A' for Active; 'I' for Inactive)
REMARK    1  A    between atoms: C_2  and  C_3 
REMARK    2  A    between atoms: C_3  and  O_6 
REMARK    3  A    between atoms: C_3  and  C_4 
REMARK    4  A    between atoms: C_7  and  O_6 
REMARK    5  A    between atoms: C_9  and  C_10 
REMARK    6  A    between atoms: N_15  and  C_14 
REMARK    7  A    between atoms: N_20  and  C_19 
REMARK       I    between atoms: C_22  and  N_20 
ROOT
ATOM      1  C   LIG d   1      -4.287  91.324 117.618  0.00  0.00     0.161 C 
ATOM      2  C   LIG d   1      -5.126  90.796 116.622  0.00  0.00     0.016 C 
ATOM      3  C   LIG d   1      -6.251  91.481 116.110  0.00  0.00     0.038 C 
ATOM      4  C   LIG d   1      -6.529  92.813 116.454  0.00  0.00     0.028 C 
ATOM      5  C   LIG d   1      -6.004  93.205 117.830  0.00  0.00    -0.047 C 
ATOM      6  C   LIG d   1      -4.510  92.819 117.926  0.00  0.00     0.091 C 
ENDROOT
BRANCH   1   7
ATOM      7  O   LIG d   1      -2.908  91.082 117.274  0.00  0.00    -0.368 OA
BRANCH   7   8
ATOM      8  C   LIG d   1      -2.178  90.195 118.156  0.00  0.00     0.119 C 
BRANCH   8   9
ATOM      9  C   LIG d   1      -0.706  90.653 118.157  0.00  0.00     0.028 C 
ATOM     10  C   LIG d   1      -0.250  91.159 119.536  0.00  0.00     0.006 C 
ENDBRANCH   8   9
BRANCH   8  11
ATOM     11  C   LIG d   1      -2.156  88.763 117.613  0.00  0.00     0.028 C 
ATOM     12  C   LIG d   1      -0.750  88.305 117.196  0.00  0.00     0.006 C 
ENDBRANCH   8  11
ENDBRANCH   7   8
ENDBRANCH   1   7
BRANCH   6  13
ATOM     13  N   LIG d   1      -3.939  93.092 119.270  0.00  0.00    -0.311 N 
ATOM     14  C   LIG d   1      -2.834  93.810 119.466  0.00  0.00     0.210 C 
ATOM     15  C   LIG d   1      -2.407  93.953 120.930  0.00  0.00     0.109 C 
ATOM     16  O   LIG d   1      -2.186  94.370 118.569  0.00  0.00    -0.276 OA
ATOM     17  H   LIG d   1      -4.419  92.702 120.057  0.00  0.00     0.149 HD
ENDBRANCH   6  13
BRANCH   5  18
ATOM     18  N   LIG d   1      -6.240  94.651 118.002  0.00  0.00     0.381 N 
ATOM     19  H   LIG d   1      -6.762  94.811 118.840  0.00  0.00    -0.090 HD
ATOM     20  H   LIG d   1      -6.780  94.987 117.224  0.00  0.00    -0.090 HD
ATOM     21  H   LIG d   1      -5.370  95.135 118.046  0.00  0.00    -0.090 HD
ENDBRANCH   5  18
BRANCH   3  22
ATOM     22  C   LIG d   1      -7.136  90.819 115.272  0.00  0.00     0.382 C 
ATOM     23  O   LIG d   1      -7.600  91.402 114.263  0.00  0.00    -0.241 OA
ATOM     24  O   LIG d   1      -7.512  89.661 115.538  0.00  0.00    -0.241 OA
ENDBRANCH   3  22
TORSDOF 7
ENDMDL
MODEL 7
REMARK VINA RESULT:      -4.7      2.196      4.230
REMARK  7 active torsions:
REMARK  status: ('A' for Active; 'I' for Inactive)
REMARK    1  A    between atoms: C_2  and  C_3 
REMARK    2  A    between atoms: C_3  and  O_6 
REMARK    3  A    between atoms: C_3  and  C_4 
REMARK    4  A    between atoms: C_7  and  O_6 
REMARK    5  A    between atoms: C_9  and  C_10 
REMARK    6  A    between atoms: N_15  and  C_14 
REMARK    7  A    between atoms: N_20  and  C_19 
REMARK       I    between atoms: C_22  and  N_20 
ROOT
ATOM      1  C   LIG d   1      -4.305  92.152 118.132  0.00  0.00     0.161 C 
ATOM      2  C   LIG d   1      -4.520  91.194 117.127  0.00  0.00     0.016 C 
ATOM      3  C   LIG d   1      -5.546  91.299 116.159  0.00  0.00     0.038 C 
ATOM      4  C   LIG d   1      -6.336  92.451 116.038  0.00  0.00     0.028 C 
ATOM      5  C   LIG d   1      -6.488  93.221 117.346  0.00  0.00    -0.047 C 
ATOM      6  C   LIG d   1      -5.086  93.469 117.948  0.00  0.00     0.091 C 
ENDROOT
BRANCH   1   7
ATOM      7  O   LIG d   1      -2.894  92.419 118.258  0.00  0.00    -0.368 OA
BRANCH   7   8
ATOM      8  C   LIG d   1      -2.305  92.135 119.551  0.00  0.00     0.119 C 
BRANCH   8   9
ATOM      9  C   LIG d   1      -1.559  93.403 120.009  0.00  0.00     0.028 C 
ATOM     10  C   LIG d   1      -1.203  94.331 118.834  0.00  0.00     0.006 C 
ENDBRANCH   8   9
BRANCH   8  11
ATOM     11  C   LIG d   1      -1.230  91.048 119.447  0.00  0.00     0.028 C 
ATOM     12  C   LIG d   1      -1.816  89.658 119.152  0.00  0.00     0.006 C 
ENDBRANCH   8  11
ENDBRANCH   7   8
ENDBRANCH   1   7
BRANCH   6  13
ATOM     13  N   LIG d   1      -5.149  94.144 119.271  0.00  0.00    -0.311 N 
ATOM     14  C   LIG d   1      -4.691  95.376 119.488  0.00  0.00     0.210 C 
ATOM     15  C   LIG d   1      -4.835  95.874 120.929  0.00  0.00     0.109 C 
ATOM     16  O   LIG d   1      -4.209  96.115 118.617  0.00  0.00    -0.276 OA
ATOM     17  H   LIG d   1      -5.553  93.627 120.027  0.00  0.00     0.149 HD
ENDBRANCH   6  13
BRANCH   5  18
ATOM     18  N   LIG d   1      -7.218  94.468 117.047  0.00  0.00     0.381 N 
ATOM     19  H   LIG d   1      -6.619  95.102 116.556  0.00  0.00    -0.090 HD
ATOM     20  H   LIG d   1      -7.493  94.899 117.912  0.00  0.00    -0.090 HD
ATOM     21  H   LIG d   1      -8.023  94.268 116.496  0.00  0.00    -0.090 HD
ENDBRANCH   5  18
BRANCH   3  22
ATOM     22  C   LIG d   1      -5.815  90.225 115.324  0.00  0.00     0.382 C 
ATOM     23  O   LIG d   1      -4.884  89.468 114.957  0.00  0.00    -0.241 OA
ATOM     24  O   LIG d   1      -6.969  90.029 114.899  0.00  0.00    -0.241 OA
ENDBRANCH   3  22
TORSDOF 7
ENDMDL
MODEL 8
REMARK VINA RESULT:      -4.3      6.453      9.086
REMARK  7 active torsions:
REMARK  status: ('A' for Active; 'I' for Inactive)
REMARK    1  A    between atoms: C_2  and  C_3 
REMARK    2  A    between atoms: C_3  and  O_6 
REMARK    3  A    between atoms: C_3  and  C_4 
REMARK    4  A    between atoms: C_7  and  O_6 
REMARK    5  A    between atoms: C_9  and  C_10 
REMARK    6  A    between atoms: N_15  and  C_14 
REMARK    7  A    between atoms: N_20  and  C_19 
REMARK       I    between atoms: C_22  and  N_20 
ROOT
ATOM      1  C   LIG d   1       1.244  88.526 116.811  0.00  0.00     0.161 C 
ATOM      2  C   LIG d   1      -0.139  88.346 116.974  0.00  0.00     0.016 C 
ATOM      3  C   LIG d   1      -1.020  89.385 117.353  0.00  0.00     0.038 C 
ATOM      4  C   LIG d   1      -0.596  90.718 117.449  0.00  0.00     0.028 C 
ATOM      5  C   LIG d   1       0.884  90.861 117.786  0.00  0.00    -0.047 C 
ATOM      6  C   LIG d   1       1.708  89.998 116.803  0.00  0.00     0.091 C 
ENDROOT
BRANCH   1   7
ATOM      7  O   LIG d   1       1.687  87.855 115.615  0.00  0.00    -0.368 OA
BRANCH   7   8
ATOM      8  C   LIG d   1       2.249  86.532 115.798  0.00  0.00     0.119 C 
BRANCH   8   9
ATOM      9  C   LIG d   1       3.756  86.622 115.487  0.00  0.00     0.028 C 
ATOM     10  C   LIG d   1       4.038  87.330 114.151  0.00  0.00     0.006 C 
ENDBRANCH   8   9
BRANCH   8  11
ATOM     11  C   LIG d   1       1.684  85.540 114.778  0.00  0.00     0.028 C 
ATOM     12  C   LIG d   1       0.544  86.136 113.936  0.00  0.00     0.006 C 
ENDBRANCH   8  11
ENDBRANCH   7   8
ENDBRANCH   1   7
BRANCH   6  13
ATOM     13  N   LIG d   1       3.161  90.014 117.115  0.00  0.00    -0.311 N 
ATOM     14  C   LIG d   1       4.095  90.378 116.239  0.00  0.00     0.210 C 
ATOM     15  C   LIG d   1       5.534  90.303 116.759  0.00  0.00     0.109 C 
ATOM     16  O   LIG d   1       3.867  90.788 115.091  0.00  0.00    -0.276 OA
ATOM     17  H   LIG d   1       3.433  89.726 118.035  0.00  0.00     0.149 HD
ENDBRANCH   6  13
BRANCH   5  18
ATOM     18  N   LIG d   1       1.221  92.295 117.718  0.00  0.00     0.381 N 
ATOM     19  H   LIG d   1       2.088  92.417 117.235  0.00  0.00    -0.090 HD
ATOM     20  H   LIG d   1       1.329  92.648 118.653  0.00  0.00    -0.090 HD
ATOM     21  H   LIG d   1       0.497  92.793 117.249  0.00  0.00    -0.090 HD
ENDBRANCH   5  18
BRANCH   3  22
ATOM     22  C   LIG d   1      -2.334  89.086 117.680  0.00  0.00     0.382 C 
ATOM     23  O   LIG d   1      -2.582  88.230 118.563  0.00  0.00    -0.241 OA
ATOM     24  O   LIG d   1      -3.276  89.630 117.072  0.00  0.00    -0.241 OA
ENDBRANCH   3  22
TORSDOF 7
ENDMDL
MODEL 9
REMARK VINA RESULT:      -4.1      1.831      2.580
REMARK  7 active torsions:
REMARK  status: ('A' for Active; 'I' for Inactive)
REMARK    1  A    between atoms: C_2  and  C_3 
REMARK    2  A    between atoms: C_3  and  O_6 
REMARK    3  A    between atoms: C_3  and  C_4 
REMARK    4  A    between atoms: C_7  and  O_6 
REMARK    5  A    between atoms: C_9  and  C_10 
REMARK    6  A    between atoms: N_15  and  C_14 
REMARK    7  A    between atoms: N_20  and  C_19 
REMARK       I    between atoms: C_22  and  N_20 
ROOT
ATOM      1  C   LIG d   1      -4.546  92.768 118.491  0.00  0.00     0.161 C 
ATOM      2  C   LIG d   1      -5.569  92.743 117.528  0.00  0.00     0.016 C 
ATOM      3  C   LIG d   1      -5.593  91.837 116.443  0.00  0.00     0.038 C 
ATOM      4  C   LIG d   1      -4.669  90.788 116.332  0.00  0.00     0.028 C 
ATOM      5  C   LIG d   1      -3.331  91.086 117.000  0.00  0.00    -0.047 C 
ATOM      6  C   LIG d   1      -3.588  91.559 118.449  0.00  0.00     0.091 C 
ENDROOT
BRANCH   1   7
ATOM      7  O   LIG d   1      -5.118  92.908 119.807  0.00  0.00    -0.368 OA
BRANCH   7   8
ATOM      8  C   LIG d   1      -4.965  94.206 120.433  0.00  0.00     0.119 C 
BRANCH   8   9
ATOM      9  C   LIG d   1      -6.300  94.959 120.269  0.00  0.00     0.028 C 
ATOM     10  C   LIG d   1      -6.201  96.116 119.261  0.00  0.00     0.006 C 
ENDBRANCH   8   9
BRANCH   8  11
ATOM     11  C   LIG d   1      -3.926  95.059 119.700  0.00  0.00     0.028 C 
ATOM     12  C   LIG d   1      -2.633  95.249 120.510  0.00  0.00     0.006 C 
ENDBRANCH   8  11
ENDBRANCH   7   8
ENDBRANCH   1   7
BRANCH   6  13
ATOM     13  N   LIG d   1      -2.337  91.952 119.148  0.00  0.00    -0.311 N 
ATOM     14  C   LIG d   1      -1.606  91.107 119.873  0.00  0.00     0.210 C 
ATOM     15  C   LIG d   1      -0.364  91.722 120.525  0.00  0.00     0.109 C 
ATOM     16  O   LIG d   1      -1.850  89.899 120.011  0.00  0.00    -0.276 OA
ATOM     17  H   LIG d   1      -2.048  92.907 119.063  0.00  0.00     0.149 HD
ENDBRANCH   6  13
BRANCH   5  18
ATOM     18  N   LIG d   1      -2.514  89.860 116.928  0.00  0.00     0.381 N 
ATOM     19  H   LIG d   1      -1.704  90.025 116.365  0.00  0.00    -0.090 HD
ATOM     20  H   LIG d   1      -3.056  89.133 116.496  0.00  0.00    -0.090 HD
ATOM     21  H   LIG d   1      -2.239  89.579 117.844  0.00  0.00    -0.090 HD
ENDBRANCH   5  18
BRANCH   3  22
ATOM     22  C   LIG d   1      -6.528  92.001 115.432  0.00  0.00     0.382 C 
ATOM     23  O   LIG d   1      -6.156  92.335 114.282  0.00  0.00    -0.241 OA
ATOM     24  O   LIG d   1      -7.744  91.862 115.667  0.00  0.00    -0.241 OA
ENDBRANCH   3  22
TORSDOF 7
ENDMDL
