MODEL 1
REMARK VINA RESULT:      -5.6      0.000      0.000
REMARK  7 active torsions:
REMARK  status: ('A' for Active; 'I' for Inactive)
REMARK    1  A    between atoms: C_2  and  C_3 
REMARK    2  A    between atoms: C_3  and  O_6 
REMARK    3  A    between atoms: C_3  and  C_4 
REMARK    4  A    between atoms: C_7  and  O_6 
REMARK    5  A    between atoms: C_9  and  C_10 
REMARK    6  A    between atoms: N_15  and  C_14 
REMARK    7  A    between atoms: N_20  and  C_19 
REMARK       I    between atoms: C_22  and  N_20 
ROOT
ATOM      1  C   LIG d   1      -6.157  92.861 117.974  0.00  0.00     0.161 C 
ATOM      2  C   LIG d   1      -7.023  92.104 117.168  0.00  0.00     0.016 C 
ATOM      3  C   LIG d   1      -6.580  91.079 116.301  0.00  0.00     0.038 C 
ATOM      4  C   LIG d   1      -5.249  90.637 116.292  0.00  0.00     0.028 C 
ATOM      5  C   LIG d   1      -4.252  91.710 116.718  0.00  0.00    -0.047 C 
ATOM      6  C   LIG d   1      -4.714  92.319 118.062  0.00  0.00     0.091 C 
ENDROOT
BRANCH   1   7
ATOM      7  O   LIG d   1      -6.718  93.005 119.294  0.00  0.00    -0.368 OA
BRANCH   7   8
ATOM      8  C   LIG d   1      -7.174  94.334 119.651  0.00  0.00     0.119 C 
BRANCH   8   9
ATOM      9  C   LIG d   1      -8.699  94.373 119.438  0.00  0.00     0.028 C 
ATOM     10  C   LIG d   1      -9.092  95.098 118.140  0.00  0.00     0.006 C 
ENDBRANCH   8   9
BRANCH   8  11
ATOM     11  C   LIG d   1      -6.604  95.392 118.702  0.00  0.00     0.028 C 
ATOM     12  C   LIG d   1      -5.624  96.351 119.397  0.00  0.00     0.006 C 
ENDBRANCH   8  11
ENDBRANCH   7   8
ENDBRANCH   1   7
BRANCH   6  13
ATOM     13  N   LIG d   1      -3.841  93.436 118.508  0.00  0.00    -0.311 N 
ATOM     14  C   LIG d   1      -2.835  93.281 119.367  0.00  0.00     0.210 C 
ATOM     15  C   LIG d   1      -2.073  94.565 119.709  0.00  0.00     0.109 C 
ATOM     16  O   LIG d   1      -2.481  92.196 119.854  0.00  0.00    -0.276 OA
ATOM     17  H   LIG d   1      -4.038  94.345 118.138  0.00  0.00     0.149 HD
ENDBRANCH   6  13
BRANCH   5  18
ATOM     18  N   LIG d   1      -2.923  91.077 116.797  0.00  0.00     0.381 N 
ATOM     19  H   LIG d   1      -2.841  90.371 116.093  0.00  0.00    -0.090 HD
ATOM     20  H   LIG d   1      -2.825  90.638 117.696  0.00  0.00    -0.090 HD
ATOM     21  H   LIG d   1      -2.210  91.763 116.675  0.00  0.00    -0.090 HD
ENDBRANCH   5  18
BRANCH   3  22
ATOM     22  C   LIG d   1      -7.468  90.511 115.399  0.00  0.00     0.382 C 
ATOM     23  O   LIG d   1      -8.393  89.771 115.812  0.00  0.00    -0.241 OA
ATOM     24  O   LIG d   1      -7.329  90.694 114.175  0.00  0.00    -0.241 OA
ENDBRANCH   3  22
TORSDOF 7
ENDMDL
MODEL 2
REMARK VINA RESULT:      -5.3      2.145      4.367
REMARK  7 active torsions:
REMARK  status: ('A' for Active; 'I' for Inactive)
REMARK    1  A    between atoms: C_2  and  C_3 
REMARK    2  A    between atoms: C_3  and  O_6 
REMARK    3  A    between atoms: C_3  and  C_4 
REMARK    4  A    between atoms: C_7  and  O_6 
REMARK    5  A    between atoms: C_9  and  C_10 
REMARK    6  A    between atoms: N_15  and  C_14 
REMARK    7  A    between atoms: N_20  and  C_19 
REMARK       I    between atoms: C_22  and  N_20 
ROOT
ATOM      1  C   LIG d   1      -4.440  91.370 117.576  0.00  0.00     0.161 C 
ATOM      2  C   LIG d   1      -5.291  90.738 116.655  0.00  0.00     0.016 C 
ATOM      3  C   LIG d   1      -6.519  91.290 116.224  0.00  0.00     0.038 C 
ATOM      4  C   LIG d   1      -6.910  92.591 116.574  0.00  0.00     0.028 C 
ATOM      5  C   LIG d   1      -6.325  93.063 117.901  0.00  0.00    -0.047 C 
ATOM      6  C   LIG d   1      -4.796  92.839 117.883  0.00  0.00     0.091 C 
ENDROOT
BRANCH   1   7
ATOM      7  O   LIG d   1      -3.073  91.268 117.129  0.00  0.00    -0.368 OA
BRANCH   7   8
ATOM      8  C   LIG d   1      -2.313  90.150 117.649  0.00  0.00     0.119 C 
BRANCH   8   9
ATOM      9  C   LIG d   1      -2.645  90.023 119.149  0.00  0.00     0.028 C 
ATOM     10  C   LIG d   1      -2.814  88.560 119.591  0.00  0.00     0.006 C 
ENDBRANCH   8   9
BRANCH   8  11
ATOM     11  C   LIG d   1      -0.808  90.423 117.589  0.00  0.00     0.028 C 
ATOM     12  C   LIG d   1      -0.312  91.291 118.756  0.00  0.00     0.006 C 
ENDBRANCH   8  11
ENDBRANCH   7   8
ENDBRANCH   1   7
BRANCH   6  13
ATOM     13  N   LIG d   1      -4.156  93.196 119.176  0.00  0.00    -0.311 N 
ATOM     14  C   LIG d   1      -2.988  93.830 119.266  0.00  0.00     0.210 C 
ATOM     15  C   LIG d   1      -2.497  94.084 120.694  0.00  0.00     0.109 C 
ATOM     16  O   LIG d   1      -2.327  94.235 118.297  0.00  0.00    -0.276 OA
ATOM     17  H   LIG d   1      -4.639  92.933 120.013  0.00  0.00     0.149 HD
ENDBRANCH   6  13
BRANCH   5  18
ATOM     18  N   LIG d   1      -6.700  94.479 118.075  0.00  0.00     0.381 N 
ATOM     19  H   LIG d   1      -7.697  94.568 118.077  0.00  0.00    -0.090 HD
ATOM     20  H   LIG d   1      -6.339  95.009 117.301  0.00  0.00    -0.090 HD
ATOM     21  H   LIG d   1      -6.326  94.829 118.929  0.00  0.00    -0.090 HD
ENDBRANCH   5  18
BRANCH   3  22
ATOM     22  C   LIG d   1      -7.390  90.522 115.466  0.00  0.00     0.382 C 
ATOM     23  O   LIG d   1      -8.196  89.745 116.033  0.00  0.00    -0.241 OA
ATOM     24  O   LIG d   1      -7.350  90.564 114.222  0.00  0.00    -0.241 OA
ENDBRANCH   3  22
TORSDOF 7
ENDMDL
MODEL 3
REMARK VINA RESULT:      -5.2      2.621      6.459
REMARK  7 active torsions:
REMARK  status: ('A' for Active; 'I' for Inactive)
REMARK    1  A    between atoms: C_2  and  C_3 
REMARK    2  A    between atoms: C_3  and  O_6 
REMARK    3  A    between atoms: C_3  and  C_4 
REMARK    4  A    between atoms: C_7  and  O_6 
REMARK    5  A    between atoms: C_9  and  C_10 
REMARK    6  A    between atoms: N_15  and  C_14 
REMARK    7  A    between atoms: N_20  and  C_19 
REMARK       I    between atoms: C_22  and  N_20 
ROOT
ATOM      1  C   LIG d   1      -3.991  92.135 117.238  0.00  0.00     0.161 C 
ATOM      2  C   LIG d   1      -3.470  92.831 118.341  0.00  0.00     0.016 C 
ATOM      3  C   LIG d   1      -4.277  93.451 119.322  0.00  0.00     0.038 C 
ATOM      4  C   LIG d   1      -5.670  93.287 119.348  0.00  0.00     0.028 C 
ATOM      5  C   LIG d   1      -6.274  93.016 117.974  0.00  0.00    -0.047 C 
ATOM      6  C   LIG d   1      -5.506  91.851 117.310  0.00  0.00     0.091 C 
ENDROOT
BRANCH   1   7
ATOM      7  O   LIG d   1      -3.260  90.908 117.045  0.00  0.00    -0.368 OA
BRANCH   7   8
ATOM      8  C   LIG d   1      -2.350  90.534 118.108  0.00  0.00     0.119 C 
BRANCH   8   9
ATOM      9  C   LIG d   1      -0.972  90.272 117.469  0.00  0.00     0.028 C 
ATOM     10  C   LIG d   1      -0.045  91.496 117.552  0.00  0.00     0.006 C 
ENDBRANCH   8   9
BRANCH   8  11
ATOM     11  C   LIG d   1      -2.759  89.204 118.749  0.00  0.00     0.028 C 
ATOM     12  C   LIG d   1      -1.623  88.168 118.749  0.00  0.00     0.006 C 
ENDBRANCH   8  11
ENDBRANCH   7   8
ENDBRANCH   1   7
BRANCH   6  13
ATOM     13  N   LIG d   1      -5.978  91.576 115.927  0.00  0.00    -0.311 N 
ATOM     14  C   LIG d   1      -7.029  90.807 115.651  0.00  0.00     0.210 C 
ATOM     15  C   LIG d   1      -7.333  90.638 114.159  0.00  0.00     0.109 C 
ATOM     16  O   LIG d   1      -7.759  90.274 116.501  0.00  0.00    -0.276 OA
ATOM     17  H   LIG d   1      -5.462  91.994 115.178  0.00  0.00     0.149 HD
ENDBRANCH   6  13
BRANCH   5  18
ATOM     18  N   LIG d   1      -7.708  92.729 118.166  0.00  0.00     0.381 N 
ATOM     19  H   LIG d   1      -8.149  92.599 117.277  0.00  0.00    -0.090 HD
ATOM     20  H   LIG d   1      -8.139  93.515 118.620  0.00  0.00    -0.090 HD
ATOM     21  H   LIG d   1      -7.820  91.912 118.724  0.00  0.00    -0.090 HD
ENDBRANCH   5  18
BRANCH   3  22
ATOM     22  C   LIG d   1      -3.694  94.279 120.269  0.00  0.00     0.382 C 
ATOM     23  O   LIG d   1      -4.374  95.178 120.821  0.00  0.00    -0.241 OA
ATOM     24  O   LIG d   1      -2.485  94.169 120.546  0.00  0.00    -0.241 OA
ENDBRANCH   3  22
TORSDOF 7
ENDMDL
MODEL 4
REMARK VINA RESULT:      -5.1      2.087      4.330
REMARK  7 active torsions:
REMARK  status: ('A' for Active; 'I' for Inactive)
REMARK    1  A    between atoms: C_2  and  C_3 
REMARK    2  A    between atoms: C_3  and  O_6 
REMARK    3  A    between atoms: C_3  and  C_4 
REMARK    4  A    between atoms: C_7  and  O_6 
REMARK    5  A    between atoms: C_9  and  C_10 
REMARK    6  A    between atoms: N_15  and  C_14 
REMARK    7  A    between atoms: N_20  and  C_19 
REMARK       I    between atoms: C_22  and  N_20 
ROOT
ATOM      1  C   LIG d   1      -5.782  92.583 119.157  0.00  0.00     0.161 C 
ATOM      2  C   LIG d   1      -7.103  92.919 118.814  0.00  0.00     0.016 C 
ATOM      3  C   LIG d   1      -7.539  94.247 118.605  0.00  0.00     0.038 C 
ATOM      4  C   LIG d   1      -6.643  95.326 118.575  0.00  0.00     0.028 C 
ATOM      5  C   LIG d   1      -5.390  95.095 119.413  0.00  0.00    -0.047 C 
ATOM      6  C   LIG d   1      -4.766  93.737 119.020  0.00  0.00     0.091 C 
ENDROOT
BRANCH   1   7
ATOM      7  O   LIG d   1      -5.352  91.443 118.387  0.00  0.00    -0.368 OA
BRANCH   7   8
ATOM      8  C   LIG d   1      -4.712  91.734 117.121  0.00  0.00     0.119 C 
BRANCH   8   9
ATOM      9  C   LIG d   1      -5.555  91.073 116.013  0.00  0.00     0.028 C 
ATOM     10  C   LIG d   1      -6.375  92.097 115.210  0.00  0.00     0.006 C 
ENDBRANCH   8   9
BRANCH   8  11
ATOM     11  C   LIG d   1      -3.333  91.073 117.029  0.00  0.00     0.028 C 
ATOM     12  C   LIG d   1      -3.036  90.146 118.218  0.00  0.00     0.006 C 
ENDBRANCH   8  11
ENDBRANCH   7   8
ENDBRANCH   1   7
BRANCH   6  13
ATOM     13  N   LIG d   1      -3.583  93.394 119.851  0.00  0.00    -0.311 N 
ATOM     14  C   LIG d   1      -2.330  93.670 119.492  0.00  0.00     0.210 C 
ATOM     15  C   LIG d   1      -1.257  93.213 120.486  0.00  0.00     0.109 C 
ATOM     16  O   LIG d   1      -2.007  94.277 118.461  0.00  0.00    -0.276 OA
ATOM     17  H   LIG d   1      -3.755  92.927 120.720  0.00  0.00     0.149 HD
ENDBRANCH   6  13
BRANCH   5  18
ATOM     18  N   LIG d   1      -4.483  96.236 119.183  0.00  0.00     0.381 N 
ATOM     19  H   LIG d   1      -4.506  96.852 119.971  0.00  0.00    -0.090 HD
ATOM     20  H   LIG d   1      -4.799  96.744 118.376  0.00  0.00    -0.090 HD
ATOM     21  H   LIG d   1      -3.554  95.908 119.035  0.00  0.00    -0.090 HD
ENDBRANCH   5  18
BRANCH   3  22
ATOM     22  C   LIG d   1      -8.893  94.511 118.461  0.00  0.00     0.382 C 
ATOM     23  O   LIG d   1      -9.713  94.046 119.288  0.00  0.00    -0.241 OA
ATOM     24  O   LIG d   1      -9.308  95.172 117.490  0.00  0.00    -0.241 OA
ENDBRANCH   3  22
TORSDOF 7
ENDMDL
MODEL 5
REMARK VINA RESULT:      -5.0      2.019      4.272
REMARK  7 active torsions:
REMARK  status: ('A' for Active; 'I' for Inactive)
REMARK    1  A    between atoms: C_2  and  C_3 
REMARK    2  A    between atoms: C_3  and  O_6 
REMARK    3  A    between atoms: C_3  and  C_4 
REMARK    4  A    between atoms: C_7  and  O_6 
REMARK    5  A    between atoms: C_9  and  C_10 
REMARK    6  A    between atoms: N_15  and  C_14 
REMARK    7  A    between atoms: N_20  and  C_19 
REMARK       I    between atoms: C_22  and  N_20 
ROOT
ATOM      1  C   LIG d   1      -5.019  92.086 117.738  0.00  0.00     0.161 C 
ATOM      2  C   LIG d   1      -5.524  91.203 116.769  0.00  0.00     0.016 C 
ATOM      3  C   LIG d   1      -6.797  91.349 116.171  0.00  0.00     0.038 C 
ATOM      4  C   LIG d   1      -7.595  92.481 116.392  0.00  0.00     0.028 C 
ATOM      5  C   LIG d   1      -7.345  93.143 117.744  0.00  0.00    -0.047 C 
ATOM      6  C   LIG d   1      -5.828  93.389 117.910  0.00  0.00     0.091 C 
ENDROOT
BRANCH   1   7
ATOM      7  O   LIG d   1      -3.639  92.388 117.451  0.00  0.00    -0.368 OA
BRANCH   7   8
ATOM      8  C   LIG d   1      -2.658  91.779 118.327  0.00  0.00     0.119 C 
BRANCH   8   9
ATOM      9  C   LIG d   1      -2.037  90.589 117.569  0.00  0.00     0.028 C 
ATOM     10  C   LIG d   1      -2.430  89.234 118.181  0.00  0.00     0.006 C 
ENDBRANCH   8   9
BRANCH   8  11
ATOM     11  C   LIG d   1      -3.320  91.169 119.566  0.00  0.00     0.028 C 
ATOM     12  C   LIG d   1      -2.912  91.876 120.868  0.00  0.00     0.006 C 
ENDBRANCH   8  11
ENDBRANCH   7   8
ENDBRANCH   1   7
BRANCH   6  13
ATOM     13  N   LIG d   1      -5.489  93.957 119.240  0.00  0.00    -0.311 N 
ATOM     14  C   LIG d   1      -5.476  95.263 119.498  0.00  0.00     0.210 C 
ATOM     15  C   LIG d   1      -5.079  95.636 120.930  0.00  0.00     0.109 C 
ATOM     16  O   LIG d   1      -5.788  96.147 118.686  0.00  0.00    -0.276 OA
ATOM     17  H   LIG d   1      -5.253  93.309 119.967  0.00  0.00     0.149 HD
ENDBRANCH   6  13
BRANCH   5  18
ATOM     18  N   LIG d   1      -8.140  94.385 117.785  0.00  0.00     0.381 N 
ATOM     19  H   LIG d   1      -8.955  94.247 118.348  0.00  0.00    -0.090 HD
ATOM     20  H   LIG d   1      -8.437  94.612 116.852  0.00  0.00    -0.090 HD
ATOM     21  H   LIG d   1      -7.592  95.129 118.157  0.00  0.00    -0.090 HD
ENDBRANCH   5  18
BRANCH   3  22
ATOM     22  C   LIG d   1      -7.301  90.334 115.371  0.00  0.00     0.382 C 
ATOM     23  O   LIG d   1      -8.174  89.555 115.823  0.00  0.00    -0.241 OA
ATOM     24  O   LIG d   1      -6.862  90.161 114.219  0.00  0.00    -0.241 OA
ENDBRANCH   3  22
TORSDOF 7
ENDMDL
MODEL 6
REMARK VINA RESULT:      -4.9      1.656      4.625
REMARK  7 active torsions:
REMARK  status: ('A' for Active; 'I' for Inactive)
REMARK    1  A    between atoms: C_2  and  C_3 
REMARK    2  A    between atoms: C_3  and  O_6 
REMARK    3  A    between atoms: C_3  and  C_4 
REMARK    4  A    between atoms: C_7  and  O_6 
REMARK    5  A    between atoms: C_9  and  C_10 
REMARK    6  A    between atoms: N_15  and  C_14 
REMARK    7  A    between atoms: N_20  and  C_19 
REMARK       I    between atoms: C_22  and  N_20 
ROOT
ATOM      1  C   LIG d   1      -6.653  92.005 118.004  0.00  0.00     0.161 C 
ATOM      2  C   LIG d   1      -5.455  92.380 118.635  0.00  0.00     0.016 C 
ATOM      3  C   LIG d   1      -4.175  92.069 118.121  0.00  0.00     0.038 C 
ATOM      4  C   LIG d   1      -4.005  91.489 116.855  0.00  0.00     0.028 C 
ATOM      5  C   LIG d   1      -5.192  90.640 116.413  0.00  0.00    -0.047 C 
ATOM      6  C   LIG d   1      -6.487  91.469 116.566  0.00  0.00     0.091 C 
ENDROOT
BRANCH   1   7
ATOM      7  O   LIG d   1      -7.581  93.107 118.024  0.00  0.00    -0.368 OA
BRANCH   7   8
ATOM      8  C   LIG d   1      -7.422  94.055 119.108  0.00  0.00     0.119 C 
BRANCH   8   9
ATOM      9  C   LIG d   1      -8.808  94.259 119.752  0.00  0.00     0.028 C 
ATOM     10  C   LIG d   1      -9.455  95.592 119.342  0.00  0.00     0.006 C 
ENDBRANCH   8   9
BRANCH   8  11
ATOM     11  C   LIG d   1      -7.011  95.435 118.587  0.00  0.00     0.028 C 
ATOM     12  C   LIG d   1      -5.761  95.989 119.289  0.00  0.00     0.006 C 
ENDBRANCH   8  11
ENDBRANCH   7   8
ENDBRANCH   1   7
BRANCH   6  13
ATOM     13  N   LIG d   1      -7.705  90.685 116.235  0.00  0.00    -0.311 N 
ATOM     14  C   LIG d   1      -8.120  90.466 114.988  0.00  0.00     0.210 C 
ATOM     15  C   LIG d   1      -9.410  89.650 114.870  0.00  0.00     0.109 C 
ATOM     16  O   LIG d   1      -7.523  90.843 113.968  0.00  0.00    -0.276 OA
ATOM     17  H   LIG d   1      -8.232  90.316 117.002  0.00  0.00     0.149 HD
ENDBRANCH   6  13
BRANCH   5  18
ATOM     18  N   LIG d   1      -4.941  90.211 115.025  0.00  0.00     0.381 N 
ATOM     19  H   LIG d   1      -4.885  89.213 114.983  0.00  0.00    -0.090 HD
ATOM     20  H   LIG d   1      -4.060  90.589 114.722  0.00  0.00    -0.090 HD
ATOM     21  H   LIG d   1      -5.672  90.535 114.430  0.00  0.00    -0.090 HD
ENDBRANCH   5  18
BRANCH   3  22
ATOM     22  C   LIG d   1      -3.049  92.302 118.896  0.00  0.00     0.382 C 
ATOM     23  O   LIG d   1      -2.127  91.452 118.933  0.00  0.00    -0.241 OA
ATOM     24  O   LIG d   1      -2.963  93.331 119.592  0.00  0.00    -0.241 OA
ENDBRANCH   3  22
TORSDOF 7
ENDMDL
MODEL 7
REMARK VINA RESULT:      -4.8      2.358      4.687
REMARK  7 active torsions:
REMARK  status: ('A' for Active; 'I' for Inactive)
REMARK    1  A    between atoms: C_2  and  C_3 
REMARK    2  A    between atoms: C_3  and  O_6 
REMARK    3  A    between atoms: C_3  and  C_4 
REMARK    4  A    between atoms: C_7  and  O_6 
REMARK    5  A    between atoms: C_9  and  C_10 
REMARK    6  A    between atoms: N_15  and  C_14 
REMARK    7  A    between atoms: N_20  and  C_19 
REMARK       I    between atoms: C_22  and  N_20 
ROOT
ATOM      1  C   LIG d   1      -3.683  92.354 117.645  0.00  0.00     0.161 C 
ATOM      2  C   LIG d   1      -2.902  91.214 117.395  0.00  0.00     0.016 C 
ATOM      3  C   LIG d   1      -1.681  90.947 118.057  0.00  0.00     0.038 C 
ATOM      4  C   LIG d   1      -1.232  91.732 119.129  0.00  0.00     0.028 C 
ATOM      5  C   LIG d   1      -1.730  93.172 119.076  0.00  0.00    -0.047 C 
ATOM      6  C   LIG d   1      -3.265  93.165 118.890  0.00  0.00     0.091 C 
ENDROOT
BRANCH   1   7
ATOM      7  O   LIG d   1      -5.073  91.985 117.731  0.00  0.00    -0.368 OA
BRANCH   7   8
ATOM      8  C   LIG d   1      -5.919  92.426 116.641  0.00  0.00     0.119 C 
BRANCH   8   9
ATOM      9  C   LIG d   1      -7.092  93.215 117.255  0.00  0.00     0.028 C 
ATOM     10  C   LIG d   1      -7.170  93.056 118.783  0.00  0.00     0.006 C 
ENDBRANCH   8   9
BRANCH   8  11
ATOM     11  C   LIG d   1      -6.563  91.238 115.919  0.00  0.00     0.028 C 
ATOM     12  C   LIG d   1      -6.679  91.455 114.402  0.00  0.00     0.006 C 
ENDBRANCH   8  11
ENDBRANCH   7   8
ENDBRANCH   1   7
BRANCH   6  13
ATOM     13  N   LIG d   1      -3.824  94.534 118.743  0.00  0.00    -0.311 N 
ATOM     14  C   LIG d   1      -4.366  95.216 119.751  0.00  0.00     0.210 C 
ATOM     15  C   LIG d   1      -4.901  96.603 119.379  0.00  0.00     0.109 C 
ATOM     16  O   LIG d   1      -4.425  94.818 120.924  0.00  0.00    -0.276 OA
ATOM     17  H   LIG d   1      -3.789  94.946 117.831  0.00  0.00     0.149 HD
ENDBRANCH   6  13
BRANCH   5  18
ATOM     18  N   LIG d   1      -1.302  93.838 120.321  0.00  0.00     0.381 N 
ATOM     19  H   LIG d   1      -1.795  94.702 120.429  0.00  0.00    -0.090 HD
ATOM     20  H   LIG d   1      -0.320  94.040 120.260  0.00  0.00    -0.090 HD
ATOM     21  H   LIG d   1      -1.480  93.246 121.103  0.00  0.00    -0.090 HD
ENDBRANCH   5  18
BRANCH   3  22
ATOM     22  C   LIG d   1      -0.876  89.906 117.620  0.00  0.00     0.382 C 
ATOM     23  O   LIG d   1       0.154  90.150 116.948  0.00  0.00    -0.241 OA
ATOM     24  O   LIG d   1      -1.191  88.723 117.853  0.00  0.00    -0.241 OA
ENDBRANCH   3  22
TORSDOF 7
ENDMDL
MODEL 8
REMARK VINA RESULT:      -4.8      3.077      5.362
REMARK  7 active torsions:
REMARK  status: ('A' for Active; 'I' for Inactive)
REMARK    1  A    between atoms: C_2  and  C_3 
REMARK    2  A    between atoms: C_3  and  O_6 
REMARK    3  A    between atoms: C_3  and  C_4 
REMARK    4  A    between atoms: C_7  and  O_6 
REMARK    5  A    between atoms: C_9  and  C_10 
REMARK    6  A    between atoms: N_15  and  C_14 
REMARK    7  A    between atoms: N_20  and  C_19 
REMARK       I    between atoms: C_22  and  N_20 
ROOT
ATOM      1  C   LIG d   1      -3.663  91.436 118.719  0.00  0.00     0.161 C 
ATOM      2  C   LIG d   1      -3.312  92.706 118.231  0.00  0.00     0.016 C 
ATOM      3  C   LIG d   1      -1.978  93.165 118.145  0.00  0.00     0.038 C 
ATOM      4  C   LIG d   1      -0.886  92.323 118.400  0.00  0.00     0.028 C 
ATOM      5  C   LIG d   1      -1.206  91.196 119.377  0.00  0.00    -0.047 C 
ATOM      6  C   LIG d   1      -2.479  90.462 118.897  0.00  0.00     0.091 C 
ENDROOT
BRANCH   1   7
ATOM      7  O   LIG d   1      -4.671  90.849 117.872  0.00  0.00    -0.368 OA
BRANCH   7   8
ATOM      8  C   LIG d   1      -5.262  91.727 116.883  0.00  0.00     0.119 C 
BRANCH   8   9
ATOM      9  C   LIG d   1      -6.727  91.971 117.297  0.00  0.00     0.028 C 
ATOM     10  C   LIG d   1      -6.977  93.422 117.739  0.00  0.00     0.006 C 
ENDBRANCH   8   9
BRANCH   8  11
ATOM     11  C   LIG d   1      -5.337  91.051 115.510  0.00  0.00     0.028 C 
ATOM     12  C   LIG d   1      -6.307  91.756 114.550  0.00  0.00     0.006 C 
ENDBRANCH   8  11
ENDBRANCH   7   8
ENDBRANCH   1   7
BRANCH   6  13
ATOM     13  N   LIG d   1      -2.910  89.399 119.841  0.00  0.00    -0.311 N 
ATOM     14  C   LIG d   1      -2.510  88.132 119.750  0.00  0.00     0.210 C 
ATOM     15  C   LIG d   1      -3.089  87.193 120.813  0.00  0.00     0.109 C 
ATOM     16  O   LIG d   1      -1.705  87.703 118.910  0.00  0.00    -0.276 OA
ATOM     17  H   LIG d   1      -3.539  89.666 120.573  0.00  0.00     0.149 HD
ENDBRANCH   6  13
BRANCH   5  18
ATOM     18  N   LIG d   1      -0.023  90.316 119.445  0.00  0.00     0.381 N 
ATOM     19  H   LIG d   1       0.628  90.568 118.729  0.00  0.00    -0.090 HD
ATOM     20  H   LIG d   1      -0.314  89.368 119.288  0.00  0.00    -0.090 HD
ATOM     21  H   LIG d   1       0.408  90.395 120.340  0.00  0.00    -0.090 HD
ENDBRANCH   5  18
BRANCH   3  22
ATOM     22  C   LIG d   1      -1.727  94.494 117.838  0.00  0.00     0.382 C 
ATOM     23  O   LIG d   1      -0.989  94.784 116.865  0.00  0.00    -0.241 OA
ATOM     24  O   LIG d   1      -2.193  95.405 118.547  0.00  0.00    -0.241 OA
ENDBRANCH   3  22
TORSDOF 7
ENDMDL
MODEL 9
REMARK VINA RESULT:      -4.6      2.527      4.624
REMARK  7 active torsions:
REMARK  status: ('A' for Active; 'I' for Inactive)
REMARK    1  A    between atoms: C_2  and  C_3 
REMARK    2  A    between atoms: C_3  and  O_6 
REMARK    3  A    between atoms: C_3  and  C_4 
REMARK    4  A    between atoms: C_7  and  O_6 
REMARK    5  A    between atoms: C_9  and  C_10 
REMARK    6  A    between atoms: N_15  and  C_14 
REMARK    7  A    between atoms: N_20  and  C_19 
REMARK       I    between atoms: C_22  and  N_20 
ROOT
ATOM      1  C   LIG d   1      -5.962  92.984 119.683  0.00  0.00     0.161 C 
ATOM      2  C   LIG d   1      -4.848  92.342 119.118  0.00  0.00     0.016 C 
ATOM      3  C   LIG d   1      -4.790  91.928 117.767  0.00  0.00     0.038 C 
ATOM      4  C   LIG d   1      -5.792  92.266 116.845  0.00  0.00     0.028 C 
ATOM      5  C   LIG d   1      -7.161  92.471 117.486  0.00  0.00    -0.047 C 
ATOM      6  C   LIG d   1      -7.019  93.460 118.666  0.00  0.00     0.091 C 
ENDROOT
BRANCH   1   7
ATOM      7  O   LIG d   1      -5.527  94.084 120.506  0.00  0.00    -0.368 OA
BRANCH   7   8
ATOM      8  C   LIG d   1      -4.843  95.162 119.819  0.00  0.00     0.119 C 
BRANCH   8   9
ATOM      9  C   LIG d   1      -3.355  95.090 120.210  0.00  0.00     0.028 C 
ATOM     10  C   LIG d   1      -2.426  95.071 118.985  0.00  0.00     0.006 C 
ENDBRANCH   8   9
BRANCH   8  11
ATOM     11  C   LIG d   1      -5.326  96.530 120.310  0.00  0.00     0.028 C 
ATOM     12  C   LIG d   1      -6.754  96.490 120.877  0.00  0.00     0.006 C 
ENDBRANCH   8  11
ENDBRANCH   7   8
ENDBRANCH   1   7
BRANCH   6  13
ATOM     13  N   LIG d   1      -8.297  93.651 119.401  0.00  0.00    -0.311 N 
ATOM     14  C   LIG d   1      -9.201  94.572 119.071  0.00  0.00     0.210 C 
ATOM     15  C   LIG d   1     -10.439  94.614 119.973  0.00  0.00     0.109 C 
ATOM     16  O   LIG d   1      -9.111  95.336 118.099  0.00  0.00    -0.276 OA
ATOM     17  H   LIG d   1      -8.466  93.053 120.185  0.00  0.00     0.149 HD
ENDBRANCH   6  13
BRANCH   5  18
ATOM     18  N   LIG d   1      -8.077  92.952 116.435  0.00  0.00     0.381 N 
ATOM     19  H   LIG d   1      -8.257  93.928 116.563  0.00  0.00    -0.090 HD
ATOM     20  H   LIG d   1      -8.949  92.458 116.512  0.00  0.00    -0.090 HD
ATOM     21  H   LIG d   1      -7.677  92.796 115.536  0.00  0.00    -0.090 HD
ENDBRANCH   5  18
BRANCH   3  22
ATOM     22  C   LIG d   1      -3.739  91.133 117.336  0.00  0.00     0.382 C 
ATOM     23  O   LIG d   1      -2.559  91.442 117.627  0.00  0.00    -0.241 OA
ATOM     24  O   LIG d   1      -3.954  90.135 116.621  0.00  0.00    -0.241 OA
ENDBRANCH   3  22
TORSDOF 7
ENDMDL
