MODEL 1
REMARK VINA RESULT:      -5.6      0.000      0.000
REMARK  7 active torsions:
REMARK  status: ('A' for Active; 'I' for Inactive)
REMARK    1  A    between atoms: C_2  and  C_3 
REMARK    2  A    between atoms: C_3  and  O_6 
REMARK    3  A    between atoms: C_3  and  C_4 
REMARK    4  A    between atoms: C_7  and  O_6 
REMARK    5  A    between atoms: C_9  and  C_10 
REMARK    6  A    between atoms: N_15  and  C_14 
REMARK    7  A    between atoms: N_20  and  C_19 
REMARK       I    between atoms: C_22  and  N_20 
ROOT
ATOM      1  C   LIG d   1      -5.930  92.043 117.895  0.00  0.00     0.161 C 
ATOM      2  C   LIG d   1      -6.795  91.996 116.789  0.00  0.00     0.016 C 
ATOM      3  C   LIG d   1      -6.555  91.199 115.646  0.00  0.00     0.038 C 
ATOM      4  C   LIG d   1      -5.503  90.273 115.597  0.00  0.00     0.028 C 
ATOM      5  C   LIG d   1      -4.319  90.652 116.481  0.00  0.00    -0.047 C 
ATOM      6  C   LIG d   1      -4.835  90.956 117.906  0.00  0.00     0.091 C 
ENDROOT
BRANCH   1   7
ATOM      7  O   LIG d   1      -6.695  91.996 119.116  0.00  0.00    -0.368 OA
BRANCH   7   8
ATOM      8  C   LIG d   1      -6.713  93.212 119.904  0.00  0.00     0.119 C 
BRANCH   8   9
ATOM      9  C   LIG d   1      -6.419  94.386 118.951  0.00  0.00     0.028 C 
ATOM     10  C   LIG d   1      -7.662  95.251 118.684  0.00  0.00     0.006 C 
ENDBRANCH   8   9
BRANCH   8  11
ATOM     11  C   LIG d   1      -5.576  93.227 120.930  0.00  0.00     0.028 C 
ATOM     12  C   LIG d   1      -4.583  94.378 120.702  0.00  0.00     0.006 C 
ENDBRANCH   8  11
ENDBRANCH   7   8
ENDBRANCH   1   7
BRANCH   6  13
ATOM     13  N   LIG d   1      -3.753  91.416 118.815  0.00  0.00    -0.311 N 
ATOM     14  C   LIG d   1      -2.984  90.587 119.519  0.00  0.00     0.210 C 
ATOM     15  C   LIG d   1      -1.942  91.271 120.409  0.00  0.00     0.109 C 
ATOM     16  O   LIG d   1      -3.046  89.350 119.466  0.00  0.00    -0.276 OA
ATOM     17  H   LIG d   1      -3.614  92.405 118.894  0.00  0.00     0.149 HD
ENDBRANCH   6  13
BRANCH   5  18
ATOM     18  N   LIG d   1      -3.357  89.535 116.441  0.00  0.00     0.381 N 
ATOM     19  H   LIG d   1      -3.664  88.801 117.047  0.00  0.00    -0.090 HD
ATOM     20  H   LIG d   1      -2.465  89.862 116.768  0.00  0.00    -0.090 HD
ATOM     21  H   LIG d   1      -3.272  89.192 115.509  0.00  0.00    -0.090 HD
ENDBRANCH   5  18
BRANCH   3  22
ATOM     22  C   LIG d   1      -7.350  91.354 114.521  0.00  0.00     0.382 C 
ATOM     23  O   LIG d   1      -8.567  91.052 114.567  0.00  0.00    -0.241 OA
ATOM     24  O   LIG d   1      -6.856  91.749 113.448  0.00  0.00    -0.241 OA
ENDBRANCH   3  22
TORSDOF 7
ENDMDL
MODEL 2
REMARK VINA RESULT:      -5.1      2.257      4.346
REMARK  7 active torsions:
REMARK  status: ('A' for Active; 'I' for Inactive)
REMARK    1  A    between atoms: C_2  and  C_3 
REMARK    2  A    between atoms: C_3  and  O_6 
REMARK    3  A    between atoms: C_3  and  C_4 
REMARK    4  A    between atoms: C_7  and  O_6 
REMARK    5  A    between atoms: C_9  and  C_10 
REMARK    6  A    between atoms: N_15  and  C_14 
REMARK    7  A    between atoms: N_20  and  C_19 
REMARK       I    between atoms: C_22  and  N_20 
ROOT
ATOM      1  C   LIG d   1      -4.551  90.821 117.581  0.00  0.00     0.161 C 
ATOM      2  C   LIG d   1      -5.287  90.184 116.568  0.00  0.00     0.016 C 
ATOM      3  C   LIG d   1      -6.489  90.706 116.035  0.00  0.00     0.038 C 
ATOM      4  C   LIG d   1      -6.958  91.983 116.376  0.00  0.00     0.028 C 
ATOM      5  C   LIG d   1      -6.519  92.440 117.763  0.00  0.00    -0.047 C 
ATOM      6  C   LIG d   1      -4.988  92.269 117.886  0.00  0.00     0.091 C 
ENDROOT
BRANCH   1   7
ATOM      7  O   LIG d   1      -3.145  90.778 117.264  0.00  0.00    -0.368 OA
BRANCH   7   8
ATOM      8  C   LIG d   1      -2.448  89.560 117.623  0.00  0.00     0.119 C 
BRANCH   8   9
ATOM      9  C   LIG d   1      -2.773  89.259 119.099  0.00  0.00     0.028 C 
ATOM     10  C   LIG d   1      -1.859  90.025 120.070  0.00  0.00     0.006 C 
ENDBRANCH   8   9
BRANCH   8  11
ATOM     11  C   LIG d   1      -0.929  89.753 117.574  0.00  0.00     0.028 C 
ATOM     12  C   LIG d   1      -0.178  88.470 117.184  0.00  0.00     0.006 C 
ENDBRANCH   8  11
ENDBRANCH   7   8
ENDBRANCH   1   7
BRANCH   6  13
ATOM     13  N   LIG d   1      -4.486  92.614 119.242  0.00  0.00    -0.311 N 
ATOM     14  C   LIG d   1      -3.400  93.354 119.456  0.00  0.00     0.210 C 
ATOM     15  C   LIG d   1      -3.047  93.574 120.930  0.00  0.00     0.109 C 
ATOM     16  O   LIG d   1      -2.714  93.878 118.564  0.00  0.00    -0.276 OA
ATOM     17  H   LIG d   1      -5.001  92.256 120.023  0.00  0.00     0.149 HD
ENDBRANCH   6  13
BRANCH   5  18
ATOM     18  N   LIG d   1      -6.960  93.837 117.932  0.00  0.00     0.381 N 
ATOM     19  H   LIG d   1      -6.720  94.369 117.120  0.00  0.00    -0.090 HD
ATOM     20  H   LIG d   1      -6.483  94.235 118.722  0.00  0.00    -0.090 HD
ATOM     21  H   LIG d   1      -7.945  93.869 118.080  0.00  0.00    -0.090 HD
ENDBRANCH   5  18
BRANCH   3  22
ATOM     22  C   LIG d   1      -7.255  89.929 115.180  0.00  0.00     0.382 C 
ATOM     23  O   LIG d   1      -8.126  89.155 115.647  0.00  0.00    -0.241 OA
ATOM     24  O   LIG d   1      -7.057  89.958 113.951  0.00  0.00    -0.241 OA
ENDBRANCH   3  22
TORSDOF 7
ENDMDL
MODEL 3
REMARK VINA RESULT:      -5.0      2.780      5.932
REMARK  7 active torsions:
REMARK  status: ('A' for Active; 'I' for Inactive)
REMARK    1  A    between atoms: C_2  and  C_3 
REMARK    2  A    between atoms: C_3  and  O_6 
REMARK    3  A    between atoms: C_3  and  C_4 
REMARK    4  A    between atoms: C_7  and  O_6 
REMARK    5  A    between atoms: C_9  and  C_10 
REMARK    6  A    between atoms: N_15  and  C_14 
REMARK    7  A    between atoms: N_20  and  C_19 
REMARK       I    between atoms: C_22  and  N_20 
ROOT
ATOM      1  C   LIG d   1      -4.096  90.941 117.173  0.00  0.00     0.161 C 
ATOM      2  C   LIG d   1      -3.114  91.868 117.559  0.00  0.00     0.016 C 
ATOM      3  C   LIG d   1      -3.372  92.963 118.416  0.00  0.00     0.038 C 
ATOM      4  C   LIG d   1      -4.603  93.120 119.069  0.00  0.00     0.028 C 
ATOM      5  C   LIG d   1      -5.772  92.494 118.316  0.00  0.00    -0.047 C 
ATOM      6  C   LIG d   1      -5.418  91.031 117.964  0.00  0.00     0.091 C 
ENDROOT
BRANCH   1   7
ATOM      7  O   LIG d   1      -3.561  89.604 117.244  0.00  0.00    -0.368 OA
BRANCH   7   8
ATOM      8  C   LIG d   1      -2.333  89.449 117.997  0.00  0.00     0.119 C 
BRANCH   8   9
ATOM      9  C   LIG d   1      -1.471  88.401 117.266  0.00  0.00     0.028 C 
ATOM     10  C   LIG d   1      -0.917  87.328 118.219  0.00  0.00     0.006 C 
ENDBRANCH   8   9
BRANCH   8  11
ATOM     11  C   LIG d   1      -2.600  88.857 119.384  0.00  0.00     0.028 C 
ATOM     12  C   LIG d   1      -2.380  89.871 120.517  0.00  0.00     0.006 C 
ENDBRANCH   8  11
ENDBRANCH   7   8
ENDBRANCH   1   7
BRANCH   6  13
ATOM     13  N   LIG d   1      -6.474  90.371 117.153  0.00  0.00    -0.311 N 
ATOM     14  C   LIG d   1      -6.874  90.821 115.965  0.00  0.00     0.210 C 
ATOM     15  C   LIG d   1      -7.989  90.004 115.306  0.00  0.00     0.109 C 
ATOM     16  O   LIG d   1      -6.389  91.802 115.380  0.00  0.00    -0.276 OA
ATOM     17  H   LIG d   1      -6.899  89.551 117.538  0.00  0.00     0.149 HD
ENDBRANCH   6  13
BRANCH   5  18
ATOM     18  N   LIG d   1      -6.967  92.610 119.173  0.00  0.00     0.381 N 
ATOM     19  H   LIG d   1      -7.753  92.895 118.622  0.00  0.00    -0.090 HD
ATOM     20  H   LIG d   1      -6.800  93.312 119.871  0.00  0.00    -0.090 HD
ATOM     21  H   LIG d   1      -7.159  91.735 119.610  0.00  0.00    -0.090 HD
ENDBRANCH   5  18
BRANCH   3  22
ATOM     22  C   LIG d   1      -2.403  93.939 118.594  0.00  0.00     0.382 C 
ATOM     23  O   LIG d   1      -1.690  94.299 117.626  0.00  0.00    -0.241 OA
ATOM     24  O   LIG d   1      -2.202  94.432 119.720  0.00  0.00    -0.241 OA
ENDBRANCH   3  22
TORSDOF 7
ENDMDL
MODEL 4
REMARK VINA RESULT:      -4.7      1.685      4.710
REMARK  7 active torsions:
REMARK  status: ('A' for Active; 'I' for Inactive)
REMARK    1  A    between atoms: C_2  and  C_3 
REMARK    2  A    between atoms: C_3  and  O_6 
REMARK    3  A    between atoms: C_3  and  C_4 
REMARK    4  A    between atoms: C_7  and  O_6 
REMARK    5  A    between atoms: C_9  and  C_10 
REMARK    6  A    between atoms: N_15  and  C_14 
REMARK    7  A    between atoms: N_20  and  C_19 
REMARK       I    between atoms: C_22  and  N_20 
ROOT
ATOM      1  C   LIG d   1      -6.248  91.885 118.724  0.00  0.00     0.161 C 
ATOM      2  C   LIG d   1      -5.201  91.939 119.659  0.00  0.00     0.016 C 
ATOM      3  C   LIG d   1      -3.908  91.425 119.409  0.00  0.00     0.038 C 
ATOM      4  C   LIG d   1      -3.528  90.955 118.143  0.00  0.00     0.028 C 
ATOM      5  C   LIG d   1      -4.695  90.418 117.322  0.00  0.00    -0.047 C 
ATOM      6  C   LIG d   1      -5.822  91.476 117.298  0.00  0.00     0.091 C 
ENDROOT
BRANCH   1   7
ATOM      7  O   LIG d   1      -6.944  93.146 118.696  0.00  0.00    -0.368 OA
BRANCH   7   8
ATOM      8  C   LIG d   1      -6.471  94.156 119.622  0.00  0.00     0.119 C 
BRANCH   8   9
ATOM      9  C   LIG d   1      -7.703  94.735 120.344  0.00  0.00     0.028 C 
ATOM     10  C   LIG d   1      -8.547  95.640 119.431  0.00  0.00     0.006 C 
ENDBRANCH   8   9
BRANCH   8  11
ATOM     11  C   LIG d   1      -5.841  95.339 118.882  0.00  0.00     0.028 C 
ATOM     12  C   LIG d   1      -4.506  95.785 119.498  0.00  0.00     0.006 C 
ENDBRANCH   8  11
ENDBRANCH   7   8
ENDBRANCH   1   7
BRANCH   6  13
ATOM     13  N   LIG d   1      -7.035  90.996 116.586  0.00  0.00    -0.311 N 
ATOM     14  C   LIG d   1      -7.265  91.224 115.294  0.00  0.00     0.210 C 
ATOM     15  C   LIG d   1      -8.586  90.659 114.763  0.00  0.00     0.109 C 
ATOM     16  O   LIG d   1      -6.485  91.812 114.530  0.00  0.00    -0.276 OA
ATOM     17  H   LIG d   1      -7.707  90.483 117.123  0.00  0.00     0.149 HD
ENDBRANCH   6  13
BRANCH   5  18
ATOM     18  N   LIG d   1      -4.182  90.090 115.978  0.00  0.00     0.381 N 
ATOM     19  H   LIG d   1      -3.494  90.764 115.705  0.00  0.00    -0.090 HD
ATOM     20  H   LIG d   1      -4.941  90.130 115.321  0.00  0.00    -0.090 HD
ATOM     21  H   LIG d   1      -3.781  89.178 115.980  0.00  0.00    -0.090 HD
ENDBRANCH   5  18
BRANCH   3  22
ATOM     22  C   LIG d   1      -2.990  91.342 120.445  0.00  0.00     0.382 C 
ATOM     23  O   LIG d   1      -2.691  90.224 120.930  0.00  0.00    -0.241 OA
ATOM     24  O   LIG d   1      -2.489  92.375 120.930  0.00  0.00    -0.241 OA
ENDBRANCH   3  22
TORSDOF 7
ENDMDL
MODEL 5
REMARK VINA RESULT:      -4.5      3.052      5.484
REMARK  7 active torsions:
REMARK  status: ('A' for Active; 'I' for Inactive)
REMARK    1  A    between atoms: C_2  and  C_3 
REMARK    2  A    between atoms: C_3  and  O_6 
REMARK    3  A    between atoms: C_3  and  C_4 
REMARK    4  A    between atoms: C_7  and  O_6 
REMARK    5  A    between atoms: C_9  and  C_10 
REMARK    6  A    between atoms: N_15  and  C_14 
REMARK    7  A    between atoms: N_20  and  C_19 
REMARK       I    between atoms: C_22  and  N_20 
ROOT
ATOM      1  C   LIG d   1      -2.543  90.147 117.701  0.00  0.00     0.161 C 
ATOM      2  C   LIG d   1      -3.501  89.685 116.784  0.00  0.00     0.016 C 
ATOM      3  C   LIG d   1      -4.690  90.387 116.481  0.00  0.00     0.038 C 
ATOM      4  C   LIG d   1      -4.931  91.681 116.967  0.00  0.00     0.028 C 
ATOM      5  C   LIG d   1      -4.231  91.972 118.290  0.00  0.00    -0.047 C 
ATOM      6  C   LIG d   1      -2.735  91.608 118.157  0.00  0.00     0.091 C 
ENDROOT
BRANCH   1   7
ATOM      7  O   LIG d   1      -1.219  89.960 117.161  0.00  0.00    -0.368 OA
BRANCH   7   8
ATOM      8  C   LIG d   1      -0.372  89.017 117.862  0.00  0.00     0.119 C 
BRANCH   8   9
ATOM      9  C   LIG d   1       1.088  89.465 117.656  0.00  0.00     0.028 C 
ATOM     10  C   LIG d   1       1.382  89.855 116.198  0.00  0.00     0.006 C 
ENDBRANCH   8   9
BRANCH   8  11
ATOM     11  C   LIG d   1      -0.459  87.620 117.240  0.00  0.00     0.028 C 
ATOM     12  C   LIG d   1       0.152  86.530 118.135  0.00  0.00     0.006 C 
ENDBRANCH   8  11
ENDBRANCH   7   8
ENDBRANCH   1   7
BRANCH   6  13
ATOM     13  N   LIG d   1      -1.993  91.783 119.433  0.00  0.00    -0.311 N 
ATOM     14  C   LIG d   1      -0.831  92.427 119.523  0.00  0.00     0.210 C 
ATOM     15  C   LIG d   1      -0.226  92.475 120.929  0.00  0.00     0.109 C 
ATOM     16  O   LIG d   1      -0.260  92.991 118.577  0.00  0.00    -0.276 OA
ATOM     17  H   LIG d   1      -2.401  91.384 120.255  0.00  0.00     0.149 HD
ENDBRANCH   6  13
BRANCH   5  18
ATOM     18  N   LIG d   1      -4.455  93.394 118.609  0.00  0.00     0.381 N 
ATOM     19  H   LIG d   1      -3.853  93.672 119.359  0.00  0.00    -0.090 HD
ATOM     20  H   LIG d   1      -5.407  93.515 118.907  0.00  0.00    -0.090 HD
ATOM     21  H   LIG d   1      -4.277  93.956 117.806  0.00  0.00    -0.090 HD
ENDBRANCH   5  18
BRANCH   3  22
ATOM     22  C   LIG d   1      -5.673  89.777 115.716  0.00  0.00     0.382 C 
ATOM     23  O   LIG d   1      -5.438  89.472 114.522  0.00  0.00    -0.241 OA
ATOM     24  O   LIG d   1      -6.805  89.569 116.191  0.00  0.00    -0.241 OA
ENDBRANCH   3  22
TORSDOF 7
ENDMDL
MODEL 6
REMARK VINA RESULT:      -4.4      5.605      7.845
REMARK  7 active torsions:
REMARK  status: ('A' for Active; 'I' for Inactive)
REMARK    1  A    between atoms: C_2  and  C_3 
REMARK    2  A    between atoms: C_3  and  O_6 
REMARK    3  A    between atoms: C_3  and  C_4 
REMARK    4  A    between atoms: C_7  and  O_6 
REMARK    5  A    between atoms: C_9  and  C_10 
REMARK    6  A    between atoms: N_15  and  C_14 
REMARK    7  A    between atoms: N_20  and  C_19 
REMARK       I    between atoms: C_22  and  N_20 
ROOT
ATOM      1  C   LIG d   1       0.863  90.784 116.928  0.00  0.00     0.161 C 
ATOM      2  C   LIG d   1       1.469  89.968 115.959  0.00  0.00     0.016 C 
ATOM      3  C   LIG d   1       2.837  90.060 115.610  0.00  0.00     0.038 C 
ATOM      4  C   LIG d   1       3.730  90.876 116.319  0.00  0.00     0.028 C 
ATOM      5  C   LIG d   1       3.062  92.084 116.967  0.00  0.00    -0.047 C 
ATOM      6  C   LIG d   1       1.845  91.603 117.791  0.00  0.00     0.091 C 
ENDROOT
BRANCH   1   7
ATOM      7  O   LIG d   1       0.003  89.988 117.768  0.00  0.00    -0.368 OA
BRANCH   7   8
ATOM      8  C   LIG d   1      -1.409  90.015 117.442  0.00  0.00     0.119 C 
BRANCH   8   9
ATOM      9  C   LIG d   1      -2.097  90.959 118.448  0.00  0.00     0.028 C 
ATOM     10  C   LIG d   1      -2.501  92.300 117.812  0.00  0.00     0.006 C 
ENDBRANCH   8   9
BRANCH   8  11
ATOM     11  C   LIG d   1      -2.058  88.646 117.662  0.00  0.00     0.028 C 
ATOM     12  C   LIG d   1      -1.041  87.558 118.042  0.00  0.00     0.006 C 
ENDBRANCH   8  11
ENDBRANCH   7   8
ENDBRANCH   1   7
BRANCH   6  13
ATOM     13  N   LIG d   1       1.085  92.731 118.390  0.00  0.00    -0.311 N 
ATOM     14  C   LIG d   1       1.251  93.142 119.646  0.00  0.00     0.210 C 
ATOM     15  C   LIG d   1       0.352  94.308 120.069  0.00  0.00     0.109 C 
ATOM     16  O   LIG d   1       2.080  92.672 120.440  0.00  0.00    -0.276 OA
ATOM     17  H   LIG d   1       0.413  93.189 117.806  0.00  0.00     0.149 HD
ENDBRANCH   6  13
BRANCH   5  18
ATOM     18  N   LIG d   1       4.079  92.770 117.786  0.00  0.00     0.381 N 
ATOM     19  H   LIG d   1       3.631  93.333 118.481  0.00  0.00    -0.090 HD
ATOM     20  H   LIG d   1       4.621  93.374 117.192  0.00  0.00    -0.090 HD
ATOM     21  H   LIG d   1       4.674  92.101 118.222  0.00  0.00    -0.090 HD
ENDBRANCH   5  18
BRANCH   3  22
ATOM     22  C   LIG d   1       3.314  89.358 114.513  0.00  0.00     0.382 C 
ATOM     23  O   LIG d   1       4.043  89.933 113.669  0.00  0.00    -0.241 OA
ATOM     24  O   LIG d   1       2.990  88.168 114.334  0.00  0.00    -0.241 OA
ENDBRANCH   3  22
TORSDOF 7
ENDMDL
MODEL 7
REMARK VINA RESULT:      -4.3      5.886      8.593
REMARK  7 active torsions:
REMARK  status: ('A' for Active; 'I' for Inactive)
REMARK    1  A    between atoms: C_2  and  C_3 
REMARK    2  A    between atoms: C_3  and  O_6 
REMARK    3  A    between atoms: C_3  and  C_4 
REMARK    4  A    between atoms: C_7  and  O_6 
REMARK    5  A    between atoms: C_9  and  C_10 
REMARK    6  A    between atoms: N_15  and  C_14 
REMARK    7  A    between atoms: N_20  and  C_19 
REMARK       I    between atoms: C_22  and  N_20 
ROOT
ATOM      1  C   LIG d   1       0.985  89.110 116.905  0.00  0.00     0.161 C 
ATOM      2  C   LIG d   1      -0.409  88.966 117.010  0.00  0.00     0.016 C 
ATOM      3  C   LIG d   1      -1.260  89.978 117.510  0.00  0.00     0.038 C 
ATOM      4  C   LIG d   1      -0.789  91.267 117.800  0.00  0.00     0.028 C 
ATOM      5  C   LIG d   1       0.686  91.300 118.188  0.00  0.00    -0.047 C 
ATOM      6  C   LIG d   1       1.504  90.548 117.113  0.00  0.00     0.091 C 
ENDROOT
BRANCH   1   7
ATOM      7  O   LIG d   1       1.435  88.593 115.638  0.00  0.00    -0.368 OA
BRANCH   7   8
ATOM      8  C   LIG d   1       2.231  87.383 115.690  0.00  0.00     0.119 C 
BRANCH   8   9
ATOM      9  C   LIG d   1       3.363  87.528 114.655  0.00  0.00     0.028 C 
ATOM     10  C   LIG d   1       3.545  88.981 114.185  0.00  0.00     0.006 C 
ENDBRANCH   8   9
BRANCH   8  11
ATOM     11  C   LIG d   1       1.421  86.164 115.236  0.00  0.00     0.028 C 
ATOM     12  C   LIG d   1       1.950  85.550 113.930  0.00  0.00     0.006 C 
ENDBRANCH   8  11
ENDBRANCH   7   8
ENDBRANCH   1   7
BRANCH   6  13
ATOM     13  N   LIG d   1       2.947  90.460 117.457  0.00  0.00    -0.311 N 
ATOM     14  C   LIG d   1       3.847  91.368 117.083  0.00  0.00     0.210 C 
ATOM     15  C   LIG d   1       5.283  91.076 117.527  0.00  0.00     0.109 C 
ATOM     16  O   LIG d   1       3.586  92.404 116.453  0.00  0.00    -0.276 OA
ATOM     17  H   LIG d   1       3.240  89.667 117.993  0.00  0.00     0.149 HD
ENDBRANCH   6  13
BRANCH   5  18
ATOM     18  N   LIG d   1       1.078  92.715 118.329  0.00  0.00     0.381 N 
ATOM     19  H   LIG d   1       2.066  92.807 118.201  0.00  0.00    -0.090 HD
ATOM     20  H   LIG d   1       0.851  93.024 119.257  0.00  0.00    -0.090 HD
ATOM     21  H   LIG d   1       0.596  93.271 117.657  0.00  0.00    -0.090 HD
ENDBRANCH   5  18
BRANCH   3  22
ATOM     22  C   LIG d   1      -2.593  89.692 117.762  0.00  0.00     0.382 C 
ATOM     23  O   LIG d   1      -2.899  88.851 118.642  0.00  0.00    -0.241 OA
ATOM     24  O   LIG d   1      -3.493  90.232 117.091  0.00  0.00    -0.241 OA
ENDBRANCH   3  22
TORSDOF 7
ENDMDL
MODEL 8
REMARK VINA RESULT:      -4.3      5.944      8.416
REMARK  7 active torsions:
REMARK  status: ('A' for Active; 'I' for Inactive)
REMARK    1  A    between atoms: C_2  and  C_3 
REMARK    2  A    between atoms: C_3  and  O_6 
REMARK    3  A    between atoms: C_3  and  C_4 
REMARK    4  A    between atoms: C_7  and  O_6 
REMARK    5  A    between atoms: C_9  and  C_10 
REMARK    6  A    between atoms: N_15  and  C_14 
REMARK    7  A    between atoms: N_20  and  C_19 
REMARK       I    between atoms: C_22  and  N_20 
ROOT
ATOM      1  C   LIG d   1       1.125  89.168 117.216  0.00  0.00     0.161 C 
ATOM      2  C   LIG d   1       1.860  88.808 116.075  0.00  0.00     0.016 C 
ATOM      3  C   LIG d   1       2.870  89.621 115.511  0.00  0.00     0.038 C 
ATOM      4  C   LIG d   1       3.320  90.790 116.144  0.00  0.00     0.028 C 
ATOM      5  C   LIG d   1       2.263  91.448 117.024  0.00  0.00    -0.047 C 
ATOM      6  C   LIG d   1       1.678  90.387 117.984  0.00  0.00     0.091 C 
ENDROOT
BRANCH   1   7
ATOM      7  O   LIG d   1       1.004  88.033 118.097  0.00  0.00    -0.368 OA
BRANCH   7   8
ATOM      8  C   LIG d   1      -0.337  87.712 118.542  0.00  0.00     0.119 C 
BRANCH   8   9
ATOM      9  C   LIG d   1      -0.449  86.176 118.600  0.00  0.00     0.028 C 
ATOM     10  C   LIG d   1       0.614  85.477 117.736  0.00  0.00     0.006 C 
ENDBRANCH   8   9
BRANCH   8  11
ATOM     11  C   LIG d   1      -1.385  88.157 117.518  0.00  0.00     0.028 C 
ATOM     12  C   LIG d   1      -2.486  89.034 118.135  0.00  0.00     0.006 C 
ENDBRANCH   8  11
ENDBRANCH   7   8
ENDBRANCH   1   7
BRANCH   6  13
ATOM     13  N   LIG d   1       0.577  90.927 118.823  0.00  0.00    -0.311 N 
ATOM     14  C   LIG d   1       0.589  90.899 120.155  0.00  0.00     0.210 C 
ATOM     15  C   LIG d   1      -0.655  91.491 120.825  0.00  0.00     0.109 C 
ATOM     16  O   LIG d   1       1.525  90.469 120.845  0.00  0.00    -0.276 OA
ATOM     17  H   LIG d   1      -0.208  91.323 118.345  0.00  0.00     0.149 HD
ENDBRANCH   6  13
BRANCH   5  18
ATOM     18  N   LIG d   1       2.907  92.573 117.728  0.00  0.00     0.381 N 
ATOM     19  H   LIG d   1       2.392  93.414 117.563  0.00  0.00    -0.090 HD
ATOM     20  H   LIG d   1       3.836  92.694 117.366  0.00  0.00    -0.090 HD
ATOM     21  H   LIG d   1       2.946  92.385 118.706  0.00  0.00    -0.090 HD
ENDBRANCH   5  18
BRANCH   3  22
ATOM     22  C   LIG d   1       3.413  89.288 114.280  0.00  0.00     0.382 C 
ATOM     23  O   LIG d   1       4.143  90.109 113.674  0.00  0.00    -0.241 OA
ATOM     24  O   LIG d   1       3.147  88.194 113.747  0.00  0.00    -0.241 OA
ENDBRANCH   3  22
TORSDOF 7
ENDMDL
MODEL 9
REMARK VINA RESULT:      -4.2      5.890      7.962
REMARK  7 active torsions:
REMARK  status: ('A' for Active; 'I' for Inactive)
REMARK    1  A    between atoms: C_2  and  C_3 
REMARK    2  A    between atoms: C_3  and  O_6 
REMARK    3  A    between atoms: C_3  and  C_4 
REMARK    4  A    between atoms: C_7  and  O_6 
REMARK    5  A    between atoms: C_9  and  C_10 
REMARK    6  A    between atoms: N_15  and  C_14 
REMARK    7  A    between atoms: N_20  and  C_19 
REMARK       I    between atoms: C_22  and  N_20 
ROOT
ATOM      1  C   LIG d   1       0.906  90.411 116.502  0.00  0.00     0.161 C 
ATOM      2  C   LIG d   1      -0.245  90.103 117.248  0.00  0.00     0.016 C 
ATOM      3  C   LIG d   1      -0.637  88.783 117.566  0.00  0.00     0.038 C 
ATOM      4  C   LIG d   1       0.183  87.679 117.287  0.00  0.00     0.028 C 
ATOM      5  C   LIG d   1       1.106  87.896 116.093  0.00  0.00    -0.047 C 
ATOM      6  C   LIG d   1       1.870  89.226 116.285  0.00  0.00     0.091 C 
ENDROOT
BRANCH   1   7
ATOM      7  O   LIG d   1       1.600  91.518 117.110  0.00  0.00    -0.368 OA
BRANCH   7   8
ATOM      8  C   LIG d   1       2.272  91.238 118.363  0.00  0.00     0.119 C 
BRANCH   8   9
ATOM      9  C   LIG d   1       1.735  92.235 119.408  0.00  0.00     0.028 C 
ATOM     10  C   LIG d   1       0.990  93.416 118.765  0.00  0.00     0.006 C 
ENDBRANCH   8   9
BRANCH   8  11
ATOM     11  C   LIG d   1       3.774  91.523 118.265  0.00  0.00     0.028 C 
ATOM     12  C   LIG d   1       4.133  92.427 117.075  0.00  0.00     0.006 C 
ENDBRANCH   8  11
ENDBRANCH   7   8
ENDBRANCH   1   7
BRANCH   6  13
ATOM     13  N   LIG d   1       2.734  89.557 115.122  0.00  0.00    -0.311 N 
ATOM     14  C   LIG d   1       4.039  89.296 115.080  0.00  0.00     0.210 C 
ATOM     15  C   LIG d   1       4.746  89.737 113.794  0.00  0.00     0.109 C 
ATOM     16  O   LIG d   1       4.673  88.712 115.972  0.00  0.00    -0.276 OA
ATOM     17  H   LIG d   1       2.295  90.005 114.341  0.00  0.00     0.149 HD
ENDBRANCH   6  13
BRANCH   5  18
ATOM     18  N   LIG d   1       1.998  86.725 116.000  0.00  0.00     0.381 N 
ATOM     19  H   LIG d   1       1.611  86.054 115.367  0.00  0.00    -0.090 HD
ATOM     20  H   LIG d   1       2.070  86.299 116.907  0.00  0.00    -0.090 HD
ATOM     21  H   LIG d   1       2.900  87.007 115.685  0.00  0.00    -0.090 HD
ENDBRANCH   5  18
BRANCH   3  22
ATOM     22  C   LIG d   1      -1.880  88.553 118.134  0.00  0.00     0.382 C 
ATOM     23  O   LIG d   1      -1.974  87.866 119.180  0.00  0.00    -0.241 OA
ATOM     24  O   LIG d   1      -2.914  88.986 117.591  0.00  0.00    -0.241 OA
ENDBRANCH   3  22
TORSDOF 7
ENDMDL
