MODEL 1
REMARK VINA RESULT:      -5.9      0.000      0.000
REMARK  7 active torsions:
REMARK  status: ('A' for Active; 'I' for Inactive)
REMARK    1  A    between atoms: C_2  and  C_3 
REMARK    2  A    between atoms: C_3  and  O_6 
REMARK    3  A    between atoms: C_3  and  C_4 
REMARK    4  A    between atoms: C_7  and  O_6 
REMARK    5  A    between atoms: C_9  and  C_10 
REMARK    6  A    between atoms: N_15  and  C_14 
REMARK    7  A    between atoms: N_20  and  C_19 
REMARK       I    between atoms: C_22  and  N_20 
ROOT
ATOM      1  C   LIG d   1      -5.572  92.451 117.797  0.00  0.00     0.161 C 
ATOM      2  C   LIG d   1      -6.114  93.577 118.439  0.00  0.00     0.016 C 
ATOM      3  C   LIG d   1      -7.262  94.260 117.975  0.00  0.00     0.038 C 
ATOM      4  C   LIG d   1      -8.038  93.770 116.915  0.00  0.00     0.028 C 
ATOM      5  C   LIG d   1      -7.246  92.922 115.925  0.00  0.00    -0.047 C 
ATOM      6  C   LIG d   1      -6.470  91.836 116.704  0.00  0.00     0.091 C 
ENDROOT
BRANCH   1   7
ATOM      7  O   LIG d   1      -5.219  91.454 118.776  0.00  0.00    -0.368 OA
BRANCH   7   8
ATOM      8  C   LIG d   1      -3.802  91.198 118.943  0.00  0.00     0.119 C 
BRANCH   8   9
ATOM      9  C   LIG d   1      -3.046  92.147 117.993  0.00  0.00     0.028 C 
ATOM     10  C   LIG d   1      -1.919  92.915 118.706  0.00  0.00     0.006 C 
ENDBRANCH   8   9
BRANCH   8  11
ATOM     11  C   LIG d   1      -3.433  89.785 118.483  0.00  0.00     0.028 C 
ATOM     12  C   LIG d   1      -2.435  89.093 119.425  0.00  0.00     0.006 C 
ENDBRANCH   8  11
ENDBRANCH   7   8
ENDBRANCH   1   7
BRANCH   6  13
ATOM     13  N   LIG d   1      -5.603  91.015 115.819  0.00  0.00    -0.311 N 
ATOM     14  C   LIG d   1      -5.764  89.704 115.645  0.00  0.00     0.210 C 
ATOM     15  C   LIG d   1      -4.748  89.047 114.706  0.00  0.00     0.109 C 
ATOM     16  O   LIG d   1      -6.671  89.029 116.155  0.00  0.00    -0.276 OA
ATOM     17  H   LIG d   1      -4.860  91.488 115.342  0.00  0.00     0.149 HD
ENDBRANCH   6  13
BRANCH   5  18
ATOM     18  N   LIG d   1      -8.203  92.363 114.951  0.00  0.00     0.381 N 
ATOM     19  H   LIG d   1      -8.602  93.102 114.407  0.00  0.00    -0.090 HD
ATOM     20  H   LIG d   1      -8.944  91.904 115.451  0.00  0.00    -0.090 HD
ATOM     21  H   LIG d   1      -7.741  91.713 114.355  0.00  0.00    -0.090 HD
ENDBRANCH   5  18
BRANCH   3  22
ATOM     22  C   LIG d   1      -7.620  95.471 118.549  0.00  0.00     0.382 C 
ATOM     23  O   LIG d   1      -8.339  96.278 117.913  0.00  0.00    -0.241 OA
ATOM     24  O   LIG d   1      -7.196  95.785 119.677  0.00  0.00    -0.241 OA
ENDBRANCH   3  22
TORSDOF 7
ENDMDL
MODEL 2
REMARK VINA RESULT:      -5.6      2.640      4.066
REMARK  7 active torsions:
REMARK  status: ('A' for Active; 'I' for Inactive)
REMARK    1  A    between atoms: C_2  and  C_3 
REMARK    2  A    between atoms: C_3  and  O_6 
REMARK    3  A    between atoms: C_3  and  C_4 
REMARK    4  A    between atoms: C_7  and  O_6 
REMARK    5  A    between atoms: C_9  and  C_10 
REMARK    6  A    between atoms: N_15  and  C_14 
REMARK    7  A    between atoms: N_20  and  C_19 
REMARK       I    between atoms: C_22  and  N_20 
ROOT
ATOM      1  C   LIG d   1      -4.306  92.079 117.034  0.00  0.00     0.161 C 
ATOM      2  C   LIG d   1      -5.598  92.344 116.548  0.00  0.00     0.016 C 
ATOM      3  C   LIG d   1      -6.318  91.448 115.725  0.00  0.00     0.038 C 
ATOM      4  C   LIG d   1      -5.854  90.152 115.456  0.00  0.00     0.028 C 
ATOM      5  C   LIG d   1      -4.334  90.030 115.508  0.00  0.00    -0.047 C 
ATOM      6  C   LIG d   1      -3.829  90.625 116.842  0.00  0.00     0.091 C 
ENDROOT
BRANCH   1   7
ATOM      7  O   LIG d   1      -4.221  92.456 118.423  0.00  0.00    -0.368 OA
BRANCH   7   8
ATOM      8  C   LIG d   1      -4.606  91.442 119.383  0.00  0.00     0.119 C 
BRANCH   8   9
ATOM      9  C   LIG d   1      -5.869  91.946 120.107  0.00  0.00     0.028 C 
ATOM     10  C   LIG d   1      -5.937  93.481 120.169  0.00  0.00     0.006 C 
ENDBRANCH   8   9
BRANCH   8  11
ATOM     11  C   LIG d   1      -3.548  91.282 120.478  0.00  0.00     0.028 C 
ATOM     12  C   LIG d   1      -2.322  92.183 120.260  0.00  0.00     0.006 C 
ENDBRANCH   8  11
ENDBRANCH   7   8
ENDBRANCH   1   7
BRANCH   6  13
ATOM     13  N   LIG d   1      -2.346  90.622 116.938  0.00  0.00    -0.311 N 
ATOM     14  C   LIG d   1      -1.655  89.688 117.589  0.00  0.00     0.210 C 
ATOM     15  C   LIG d   1      -0.136  89.885 117.582  0.00  0.00     0.109 C 
ATOM     16  O   LIG d   1      -2.154  88.698 118.145  0.00  0.00    -0.276 OA
ATOM     17  H   LIG d   1      -1.858  91.373 116.489  0.00  0.00     0.149 HD
ENDBRANCH   6  13
BRANCH   5  18
ATOM     18  N   LIG d   1      -3.996  88.603 115.346  0.00  0.00     0.381 N 
ATOM     19  H   LIG d   1      -3.360  88.491 114.582  0.00  0.00    -0.090 HD
ATOM     20  H   LIG d   1      -4.835  88.092 115.135  0.00  0.00    -0.090 HD
ATOM     21  H   LIG d   1      -3.586  88.253 116.183  0.00  0.00    -0.090 HD
ENDBRANCH   5  18
BRANCH   3  22
ATOM     22  C   LIG d   1      -7.501  91.860 115.130  0.00  0.00     0.382 C 
ATOM     23  O   LIG d   1      -8.105  92.868 115.569  0.00  0.00    -0.241 OA
ATOM     24  O   LIG d   1      -7.993  91.212 114.188  0.00  0.00    -0.241 OA
ENDBRANCH   3  22
TORSDOF 7
ENDMDL
MODEL 3
REMARK VINA RESULT:      -5.6      2.356      5.437
REMARK  7 active torsions:
REMARK  status: ('A' for Active; 'I' for Inactive)
REMARK    1  A    between atoms: C_2  and  C_3 
REMARK    2  A    between atoms: C_3  and  O_6 
REMARK    3  A    between atoms: C_3  and  C_4 
REMARK    4  A    between atoms: C_7  and  O_6 
REMARK    5  A    between atoms: C_9  and  C_10 
REMARK    6  A    between atoms: N_15  and  C_14 
REMARK    7  A    between atoms: N_20  and  C_19 
REMARK       I    between atoms: C_22  and  N_20 
ROOT
ATOM      1  C   LIG d   1      -5.681  92.732 117.554  0.00  0.00     0.161 C 
ATOM      2  C   LIG d   1      -6.657  91.807 117.151  0.00  0.00     0.016 C 
ATOM      3  C   LIG d   1      -6.351  90.517 116.659  0.00  0.00     0.038 C 
ATOM      4  C   LIG d   1      -5.045  90.007 116.679  0.00  0.00     0.028 C 
ATOM      5  C   LIG d   1      -3.971  91.087 116.605  0.00  0.00    -0.047 C 
ATOM      6  C   LIG d   1      -4.257  92.153 117.688  0.00  0.00     0.091 C 
ENDROOT
BRANCH   1   7
ATOM      7  O   LIG d   1      -6.083  93.362 118.787  0.00  0.00    -0.368 OA
BRANCH   7   8
ATOM      8  C   LIG d   1      -7.458  93.815 118.852  0.00  0.00     0.119 C 
BRANCH   8   9
ATOM      9  C   LIG d   1      -7.549  95.132 118.057  0.00  0.00     0.028 C 
ATOM     10  C   LIG d   1      -6.890  96.310 118.794  0.00  0.00     0.006 C 
ENDBRANCH   8   9
BRANCH   8  11
ATOM     11  C   LIG d   1      -7.858  94.178 120.285  0.00  0.00     0.028 C 
ATOM     12  C   LIG d   1      -9.104  93.419 120.766  0.00  0.00     0.006 C 
ENDBRANCH   8  11
ENDBRANCH   7   8
ENDBRANCH   1   7
BRANCH   6  13
ATOM     13  N   LIG d   1      -3.302  93.290 117.630  0.00  0.00    -0.311 N 
ATOM     14  C   LIG d   1      -2.177  93.340 118.342  0.00  0.00     0.210 C 
ATOM     15  C   LIG d   1      -1.345  94.612 118.148  0.00  0.00     0.109 C 
ATOM     16  O   LIG d   1      -1.774  92.438 119.091  0.00  0.00    -0.276 OA
ATOM     17  H   LIG d   1      -3.535  94.052 117.023  0.00  0.00     0.149 HD
ENDBRANCH   6  13
BRANCH   5  18
ATOM     18  N   LIG d   1      -2.663  90.428 116.774  0.00  0.00     0.381 N 
ATOM     19  H   LIG d   1      -2.783  89.435 116.784  0.00  0.00    -0.090 HD
ATOM     20  H   LIG d   1      -2.269  90.707 117.655  0.00  0.00    -0.090 HD
ATOM     21  H   LIG d   1      -2.051  90.688 116.032  0.00  0.00    -0.090 HD
ENDBRANCH   5  18
BRANCH   3  22
ATOM     22  C   LIG d   1      -7.354  89.738 116.102  0.00  0.00     0.382 C 
ATOM     23  O   LIG d   1      -7.854  90.056 114.996  0.00  0.00    -0.241 OA
ATOM     24  O   LIG d   1      -7.796  88.746 116.713  0.00  0.00    -0.241 OA
ENDBRANCH   3  22
TORSDOF 7
ENDMDL
MODEL 4
REMARK VINA RESULT:      -5.5      1.739      4.862
REMARK  7 active torsions:
REMARK  status: ('A' for Active; 'I' for Inactive)
REMARK    1  A    between atoms: C_2  and  C_3 
REMARK    2  A    between atoms: C_3  and  O_6 
REMARK    3  A    between atoms: C_3  and  C_4 
REMARK    4  A    between atoms: C_7  and  O_6 
REMARK    5  A    between atoms: C_9  and  C_10 
REMARK    6  A    between atoms: N_15  and  C_14 
REMARK    7  A    between atoms: N_20  and  C_19 
REMARK       I    between atoms: C_22  and  N_20 
ROOT
ATOM      1  C   LIG d   1      -5.713  91.922 118.838  0.00  0.00     0.161 C 
ATOM      2  C   LIG d   1      -5.815  90.848 117.939  0.00  0.00     0.016 C 
ATOM      3  C   LIG d   1      -6.689  90.844 116.827  0.00  0.00     0.038 C 
ATOM      4  C   LIG d   1      -7.416  91.984 116.452  0.00  0.00     0.028 C 
ATOM      5  C   LIG d   1      -7.726  92.916 117.619  0.00  0.00    -0.047 C 
ATOM      6  C   LIG d   1      -6.416  93.217 118.382  0.00  0.00     0.091 C 
ENDROOT
BRANCH   1   7
ATOM      7  O   LIG d   1      -4.326  92.182 119.134  0.00  0.00    -0.368 OA
BRANCH   7   8
ATOM      8  C   LIG d   1      -3.370  91.245 118.581  0.00  0.00     0.119 C 
BRANCH   8   9
ATOM      9  C   LIG d   1      -2.759  90.458 119.757  0.00  0.00     0.028 C 
ATOM     10  C   LIG d   1      -2.464  88.993 119.393  0.00  0.00     0.006 C 
ENDBRANCH   8   9
BRANCH   8  11
ATOM     11  C   LIG d   1      -2.192  91.972 117.924  0.00  0.00     0.028 C 
ATOM     12  C   LIG d   1      -2.410  93.490 117.825  0.00  0.00     0.006 C 
ENDBRANCH   8  11
ENDBRANCH   7   8
ENDBRANCH   1   7
BRANCH   6  13
ATOM     13  N   LIG d   1      -6.643  94.055 119.588  0.00  0.00    -0.311 N 
ATOM     14  C   LIG d   1      -6.622  95.387 119.571  0.00  0.00     0.210 C 
ATOM     15  C   LIG d   1      -6.860  96.055 120.928  0.00  0.00     0.109 C 
ATOM     16  O   LIG d   1      -6.460  96.078 118.554  0.00  0.00    -0.276 OA
ATOM     17  H   LIG d   1      -6.813  93.576 120.451  0.00  0.00     0.149 HD
ENDBRANCH   6  13
BRANCH   5  18
ATOM     18  N   LIG d   1      -8.364  94.125 117.065  0.00  0.00     0.381 N 
ATOM     19  H   LIG d   1      -7.663  94.754 116.727  0.00  0.00    -0.090 HD
ATOM     20  H   LIG d   1      -8.875  94.587 117.797  0.00  0.00    -0.090 HD
ATOM     21  H   LIG d   1      -8.982  93.876 116.325  0.00  0.00    -0.090 HD
ENDBRANCH   5  18
BRANCH   3  22
ATOM     22  C   LIG d   1      -6.872  89.677 116.101  0.00  0.00     0.382 C 
ATOM     23  O   LIG d   1      -8.001  89.130 116.070  0.00  0.00    -0.241 OA
ATOM     24  O   LIG d   1      -5.914  89.141 115.514  0.00  0.00    -0.241 OA
ENDBRANCH   3  22
TORSDOF 7
ENDMDL
MODEL 5
REMARK VINA RESULT:      -5.3      2.428      4.131
REMARK  7 active torsions:
REMARK  status: ('A' for Active; 'I' for Inactive)
REMARK    1  A    between atoms: C_2  and  C_3 
REMARK    2  A    between atoms: C_3  and  O_6 
REMARK    3  A    between atoms: C_3  and  C_4 
REMARK    4  A    between atoms: C_7  and  O_6 
REMARK    5  A    between atoms: C_9  and  C_10 
REMARK    6  A    between atoms: N_15  and  C_14 
REMARK    7  A    between atoms: N_20  and  C_19 
REMARK       I    between atoms: C_22  and  N_20 
ROOT
ATOM      1  C   LIG d   1      -5.029  92.058 118.033  0.00  0.00     0.161 C 
ATOM      2  C   LIG d   1      -6.349  92.335 117.642  0.00  0.00     0.016 C 
ATOM      3  C   LIG d   1      -7.009  93.550 117.936  0.00  0.00     0.038 C 
ATOM      4  C   LIG d   1      -6.338  94.637 118.515  0.00  0.00     0.028 C 
ATOM      5  C   LIG d   1      -5.152  94.226 119.381  0.00  0.00    -0.047 C 
ATOM      6  C   LIG d   1      -4.244  93.274 118.568  0.00  0.00     0.091 C 
ENDROOT
BRANCH   1   7
ATOM      7  O   LIG d   1      -4.315  91.442 116.943  0.00  0.00    -0.368 OA
BRANCH   7   8
ATOM      8  C   LIG d   1      -4.287  89.993 116.937  0.00  0.00     0.119 C 
BRANCH   8   9
ATOM      9  C   LIG d   1      -2.872  89.555 117.362  0.00  0.00     0.028 C 
ATOM     10  C   LIG d   1      -2.811  89.115 118.834  0.00  0.00     0.006 C 
ENDBRANCH   8   9
BRANCH   8  11
ATOM     11  C   LIG d   1      -4.477  89.438 115.522  0.00  0.00     0.028 C 
ATOM     12  C   LIG d   1      -5.826  89.834 114.902  0.00  0.00     0.006 C 
ENDBRANCH   8  11
ENDBRANCH   7   8
ENDBRANCH   1   7
BRANCH   6  13
ATOM     13  N   LIG d   1      -3.104  92.757 119.369  0.00  0.00    -0.311 N 
ATOM     14  C   LIG d   1      -1.839  92.799 118.956  0.00  0.00     0.210 C 
ATOM     15  C   LIG d   1      -0.820  92.193 119.927  0.00  0.00     0.109 C 
ATOM     16  O   LIG d   1      -1.459  93.310 117.891  0.00  0.00    -0.276 OA
ATOM     17  H   LIG d   1      -3.318  92.354 120.260  0.00  0.00     0.149 HD
ENDBRANCH   6  13
BRANCH   5  18
ATOM     18  N   LIG d   1      -4.463  95.458 119.808  0.00  0.00     0.381 N 
ATOM     19  H   LIG d   1      -4.684  96.205 119.180  0.00  0.00    -0.090 HD
ATOM     20  H   LIG d   1      -3.470  95.303 119.777  0.00  0.00    -0.090 HD
ATOM     21  H   LIG d   1      -4.740  95.700 120.734  0.00  0.00    -0.090 HD
ENDBRANCH   5  18
BRANCH   3  22
ATOM     22  C   LIG d   1      -8.368  93.672 117.687  0.00  0.00     0.382 C 
ATOM     23  O   LIG d   1      -8.804  93.545 116.517  0.00  0.00    -0.241 OA
ATOM     24  O   LIG d   1      -9.157  93.952 118.609  0.00  0.00    -0.241 OA
ENDBRANCH   3  22
TORSDOF 7
ENDMDL
MODEL 6
REMARK VINA RESULT:      -5.3      2.393      3.956
REMARK  7 active torsions:
REMARK  status: ('A' for Active; 'I' for Inactive)
REMARK    1  A    between atoms: C_2  and  C_3 
REMARK    2  A    between atoms: C_3  and  O_6 
REMARK    3  A    between atoms: C_3  and  C_4 
REMARK    4  A    between atoms: C_7  and  O_6 
REMARK    5  A    between atoms: C_9  and  C_10 
REMARK    6  A    between atoms: N_15  and  C_14 
REMARK    7  A    between atoms: N_20  and  C_19 
REMARK       I    between atoms: C_22  and  N_20 
ROOT
ATOM      1  C   LIG d   1      -5.593  91.528 118.830  0.00  0.00     0.161 C 
ATOM      2  C   LIG d   1      -6.897  91.988 118.585  0.00  0.00     0.016 C 
ATOM      3  C   LIG d   1      -7.233  93.358 118.484  0.00  0.00     0.038 C 
ATOM      4  C   LIG d   1      -6.254  94.362 118.471  0.00  0.00     0.028 C 
ATOM      5  C   LIG d   1      -4.982  93.978 119.219  0.00  0.00    -0.047 C 
ATOM      6  C   LIG d   1      -4.494  92.604 118.707  0.00  0.00     0.091 C 
ENDROOT
BRANCH   1   7
ATOM      7  O   LIG d   1      -5.299  90.411 117.967  0.00  0.00    -0.368 OA
BRANCH   7   8
ATOM      8  C   LIG d   1      -4.706  90.735 116.685  0.00  0.00     0.119 C 
BRANCH   8   9
ATOM      9  C   LIG d   1      -5.796  90.551 115.611  0.00  0.00     0.028 C 
ATOM     10  C   LIG d   1      -6.183  91.876 114.934  0.00  0.00     0.006 C 
ENDBRANCH   8   9
BRANCH   8  11
ATOM     11  C   LIG d   1      -3.601  89.741 116.315  0.00  0.00     0.028 C 
ATOM     12  C   LIG d   1      -2.910  89.134 117.546  0.00  0.00     0.006 C 
ENDBRANCH   8  11
ENDBRANCH   7   8
ENDBRANCH   1   7
BRANCH   6  13
ATOM     13  N   LIG d   1      -3.301  92.115 119.446  0.00  0.00    -0.311 N 
ATOM     14  C   LIG d   1      -2.051  92.294 119.022  0.00  0.00     0.210 C 
ATOM     15  C   LIG d   1      -0.970  91.693 119.925  0.00  0.00     0.109 C 
ATOM     16  O   LIG d   1      -1.734  92.922 118.001  0.00  0.00    -0.276 OA
ATOM     17  H   LIG d   1      -3.465  91.622 120.302  0.00  0.00     0.149 HD
ENDBRANCH   6  13
BRANCH   5  18
ATOM     18  N   LIG d   1      -3.998  95.057 119.009  0.00  0.00     0.381 N 
ATOM     19  H   LIG d   1      -3.328  94.774 118.322  0.00  0.00    -0.090 HD
ATOM     20  H   LIG d   1      -3.513  95.227 119.872  0.00  0.00    -0.090 HD
ATOM     21  H   LIG d   1      -4.461  95.887 118.710  0.00  0.00    -0.090 HD
ENDBRANCH   5  18
BRANCH   3  22
ATOM     22  C   LIG d   1      -8.566  93.737 118.435  0.00  0.00     0.382 C 
ATOM     23  O   LIG d   1      -9.370  93.317 119.302  0.00  0.00    -0.241 OA
ATOM     24  O   LIG d   1      -8.984  94.457 117.508  0.00  0.00    -0.241 OA
ENDBRANCH   3  22
TORSDOF 7
ENDMDL
MODEL 7
REMARK VINA RESULT:      -5.1      2.602      4.637
REMARK  7 active torsions:
REMARK  status: ('A' for Active; 'I' for Inactive)
REMARK    1  A    between atoms: C_2  and  C_3 
REMARK    2  A    between atoms: C_3  and  O_6 
REMARK    3  A    between atoms: C_3  and  C_4 
REMARK    4  A    between atoms: C_7  and  O_6 
REMARK    5  A    between atoms: C_9  and  C_10 
REMARK    6  A    between atoms: N_15  and  C_14 
REMARK    7  A    between atoms: N_20  and  C_19 
REMARK       I    between atoms: C_22  and  N_20 
ROOT
ATOM      1  C   LIG d   1      -5.344  91.989 117.825  0.00  0.00     0.161 C 
ATOM      2  C   LIG d   1      -6.329  92.197 116.846  0.00  0.00     0.016 C 
ATOM      3  C   LIG d   1      -6.419  91.434 115.659  0.00  0.00     0.038 C 
ATOM      4  C   LIG d   1      -5.615  90.305 115.440  0.00  0.00     0.028 C 
ATOM      5  C   LIG d   1      -4.276  90.365 116.167  0.00  0.00    -0.047 C 
ATOM      6  C   LIG d   1      -4.527  90.691 117.657  0.00  0.00     0.091 C 
ENDROOT
BRANCH   1   7
ATOM      7  O   LIG d   1      -5.940  92.039 119.137  0.00  0.00    -0.368 OA
BRANCH   7   8
ATOM      8  C   LIG d   1      -5.417  93.048 120.036  0.00  0.00     0.119 C 
BRANCH   8   9
ATOM      9  C   LIG d   1      -6.611  93.884 120.538  0.00  0.00     0.028 C 
ATOM     10  C   LIG d   1      -7.953  93.389 119.973  0.00  0.00     0.006 C 
ENDBRANCH   8   9
BRANCH   8  11
ATOM     11  C   LIG d   1      -4.510  94.037 119.299  0.00  0.00     0.028 C 
ATOM     12  C   LIG d   1      -4.841  95.503 119.620  0.00  0.00     0.006 C 
ENDBRANCH   8  11
ENDBRANCH   7   8
ENDBRANCH   1   7
BRANCH   6  13
ATOM     13  N   LIG d   1      -3.264  90.851 118.423  0.00  0.00    -0.311 N 
ATOM     14  C   LIG d   1      -2.647  89.844 119.039  0.00  0.00     0.210 C 
ATOM     15  C   LIG d   1      -1.369  90.230 119.789  0.00  0.00     0.109 C 
ATOM     16  O   LIG d   1      -3.020  88.661 119.008  0.00  0.00    -0.276 OA
ATOM     17  H   LIG d   1      -2.875  91.772 118.474  0.00  0.00     0.149 HD
ENDBRANCH   6  13
BRANCH   5  18
ATOM     18  N   LIG d   1      -3.600  89.069 115.965  0.00  0.00     0.381 N 
ATOM     19  H   LIG d   1      -3.342  88.680 116.849  0.00  0.00    -0.090 HD
ATOM     20  H   LIG d   1      -2.763  89.219 115.430  0.00  0.00    -0.090 HD
ATOM     21  H   LIG d   1      -4.204  88.442 115.481  0.00  0.00    -0.090 HD
ENDBRANCH   5  18
BRANCH   3  22
ATOM     22  C   LIG d   1      -7.294  91.823 114.656  0.00  0.00     0.382 C 
ATOM     23  O   LIG d   1      -7.216  91.301 113.518  0.00  0.00    -0.241 OA
ATOM     24  O   LIG d   1      -8.132  92.721 114.863  0.00  0.00    -0.241 OA
ENDBRANCH   3  22
TORSDOF 7
ENDMDL
MODEL 8
REMARK VINA RESULT:      -5.1      2.499      4.585
REMARK  7 active torsions:
REMARK  status: ('A' for Active; 'I' for Inactive)
REMARK    1  A    between atoms: C_2  and  C_3 
REMARK    2  A    between atoms: C_3  and  O_6 
REMARK    3  A    between atoms: C_3  and  C_4 
REMARK    4  A    between atoms: C_7  and  O_6 
REMARK    5  A    between atoms: C_9  and  C_10 
REMARK    6  A    between atoms: N_15  and  C_14 
REMARK    7  A    between atoms: N_20  and  C_19 
REMARK       I    between atoms: C_22  and  N_20 
ROOT
ATOM      1  C   LIG d   1      -5.643  91.827 118.435  0.00  0.00     0.161 C 
ATOM      2  C   LIG d   1      -6.924  92.305 118.758  0.00  0.00     0.016 C 
ATOM      3  C   LIG d   1      -7.171  93.619 119.219  0.00  0.00     0.038 C 
ATOM      4  C   LIG d   1      -6.165  94.597 119.244  0.00  0.00     0.028 C 
ATOM      5  C   LIG d   1      -4.763  94.020 119.407  0.00  0.00    -0.047 C 
ATOM      6  C   LIG d   1      -4.550  92.913 118.350  0.00  0.00     0.091 C 
ENDROOT
BRANCH   1   7
ATOM      7  O   LIG d   1      -5.697  91.074 117.207  0.00  0.00    -0.368 OA
BRANCH   7   8
ATOM      8  C   LIG d   1      -6.982  91.036 116.540  0.00  0.00     0.119 C 
BRANCH   8   9
ATOM      9  C   LIG d   1      -7.153  89.626 115.943  0.00  0.00     0.028 C 
ATOM     10  C   LIG d   1      -8.270  88.827 116.633  0.00  0.00     0.006 C 
ENDBRANCH   8   9
BRANCH   8  11
ATOM     11  C   LIG d   1      -7.016  91.990 115.342  0.00  0.00     0.028 C 
ATOM     12  C   LIG d   1      -7.058  91.253 113.994  0.00  0.00     0.006 C 
ENDBRANCH   8  11
ENDBRANCH   7   8
ENDBRANCH   1   7
BRANCH   6  13
ATOM     13  N   LIG d   1      -3.233  92.238 118.494  0.00  0.00    -0.311 N 
ATOM     14  C   LIG d   1      -2.106  92.709 117.965  0.00  0.00     0.210 C 
ATOM     15  C   LIG d   1      -0.864  91.849 118.216  0.00  0.00     0.109 C 
ATOM     16  O   LIG d   1      -2.010  93.776 117.339  0.00  0.00    -0.276 OA
ATOM     17  H   LIG d   1      -3.214  91.382 119.014  0.00  0.00     0.149 HD
ENDBRANCH   6  13
BRANCH   5  18
ATOM     18  N   LIG d   1      -3.805  95.135 119.279  0.00  0.00     0.381 N 
ATOM     19  H   LIG d   1      -4.012  95.665 118.456  0.00  0.00    -0.090 HD
ATOM     20  H   LIG d   1      -2.878  94.757 119.186  0.00  0.00    -0.090 HD
ATOM     21  H   LIG d   1      -3.854  95.721 120.083  0.00  0.00    -0.090 HD
ENDBRANCH   5  18
BRANCH   3  22
ATOM     22  C   LIG d   1      -8.428  93.954 119.698  0.00  0.00     0.382 C 
ATOM     23  O   LIG d   1      -9.443  93.356 119.267  0.00  0.00    -0.241 OA
ATOM     24  O   LIG d   1      -8.563  94.876 120.524  0.00  0.00    -0.241 OA
ENDBRANCH   3  22
TORSDOF 7
ENDMDL
MODEL 9
REMARK VINA RESULT:      -5.1      1.777      4.736
REMARK  7 active torsions:
REMARK  status: ('A' for Active; 'I' for Inactive)
REMARK    1  A    between atoms: C_2  and  C_3 
REMARK    2  A    between atoms: C_3  and  O_6 
REMARK    3  A    between atoms: C_3  and  C_4 
REMARK    4  A    between atoms: C_7  and  O_6 
REMARK    5  A    between atoms: C_9  and  C_10 
REMARK    6  A    between atoms: N_15  and  C_14 
REMARK    7  A    between atoms: N_20  and  C_19 
REMARK       I    between atoms: C_22  and  N_20 
ROOT
ATOM      1  C   LIG d   1      -5.371  91.474 118.151  0.00  0.00     0.161 C 
ATOM      2  C   LIG d   1      -5.096  90.570 117.112  0.00  0.00     0.016 C 
ATOM      3  C   LIG d   1      -5.795  90.560 115.883  0.00  0.00     0.038 C 
ATOM      4  C   LIG d   1      -6.722  91.558 115.550  0.00  0.00     0.028 C 
ATOM      5  C   LIG d   1      -7.394  92.191 116.764  0.00  0.00    -0.047 C 
ATOM      6  C   LIG d   1      -6.303  92.641 117.763  0.00  0.00     0.091 C 
ENDROOT
BRANCH   1   7
ATOM      7  O   LIG d   1      -4.138  91.979 118.699  0.00  0.00    -0.368 OA
BRANCH   7   8
ATOM      8  C   LIG d   1      -3.700  91.379 119.943  0.00  0.00     0.119 C 
BRANCH   8   9
ATOM      9  C   LIG d   1      -3.385  92.524 120.924  0.00  0.00     0.028 C 
ATOM     10  C   LIG d   1      -3.522  93.910 120.272  0.00  0.00     0.006 C 
ENDBRANCH   8   9
BRANCH   8  11
ATOM     11  C   LIG d   1      -2.379  90.624 119.763  0.00  0.00     0.028 C 
ATOM     12  C   LIG d   1      -2.583  89.136 119.437  0.00  0.00     0.006 C 
ENDBRANCH   8  11
ENDBRANCH   7   8
ENDBRANCH   1   7
BRANCH   6  13
ATOM     13  N   LIG d   1      -6.877  93.195 119.017  0.00  0.00    -0.311 N 
ATOM     14  C   LIG d   1      -7.092  94.494 119.213  0.00  0.00     0.210 C 
ATOM     15  C   LIG d   1      -7.672  94.854 120.585  0.00  0.00     0.109 C 
ATOM     16  O   LIG d   1      -6.888  95.380 118.370  0.00  0.00    -0.276 OA
ATOM     17  H   LIG d   1      -7.101  92.542 119.743  0.00  0.00     0.149 HD
ENDBRANCH   6  13
BRANCH   5  18
ATOM     18  N   LIG d   1      -8.230  93.306 116.280  0.00  0.00     0.381 N 
ATOM     19  H   LIG d   1      -9.108  92.954 115.954  0.00  0.00    -0.090 HD
ATOM     20  H   LIG d   1      -7.763  93.752 115.510  0.00  0.00    -0.090 HD
ATOM     21  H   LIG d   1      -8.379  93.963 117.013  0.00  0.00    -0.090 HD
ENDBRANCH   5  18
BRANCH   3  22
ATOM     22  C   LIG d   1      -5.598  89.519 114.988  0.00  0.00     0.382 C 
ATOM     23  O   LIG d   1      -4.554  88.826 115.053  0.00  0.00    -0.241 OA
ATOM     24  O   LIG d   1      -6.430  89.292 114.090  0.00  0.00    -0.241 OA
ENDBRANCH   3  22
TORSDOF 7
ENDMDL
