MODEL 1
REMARK VINA RESULT:      -5.8      0.000      0.000
REMARK  7 active torsions:
REMARK  status: ('A' for Active; 'I' for Inactive)
REMARK    1  A    between atoms: C_2  and  C_3 
REMARK    2  A    between atoms: C_3  and  O_6 
REMARK    3  A    between atoms: C_3  and  C_4 
REMARK    4  A    between atoms: C_7  and  O_6 
REMARK    5  A    between atoms: C_9  and  C_10 
REMARK    6  A    between atoms: N_15  and  C_14 
REMARK    7  A    between atoms: N_20  and  C_19 
REMARK       I    between atoms: C_22  and  N_20 
ROOT
ATOM      1  C   LIG d   1      -5.357  92.710 116.779  0.00  0.00     0.161 C 
ATOM      2  C   LIG d   1      -6.375  91.803 116.443  0.00  0.00     0.016 C 
ATOM      3  C   LIG d   1      -6.194  90.401 116.427  0.00  0.00     0.038 C 
ATOM      4  C   LIG d   1      -5.016  89.800 116.895  0.00  0.00     0.028 C 
ATOM      5  C   LIG d   1      -3.787  90.694 116.766  0.00  0.00    -0.047 C 
ATOM      6  C   LIG d   1      -4.098  92.069 117.400  0.00  0.00     0.091 C 
ENDROOT
BRANCH   1   7
ATOM      7  O   LIG d   1      -5.880  93.731 117.651  0.00  0.00    -0.368 OA
BRANCH   7   8
ATOM      8  C   LIG d   1      -7.046  93.368 118.431  0.00  0.00     0.119 C 
BRANCH   8   9
ATOM      9  C   LIG d   1      -8.065  94.517 118.303  0.00  0.00     0.028 C 
ATOM     10  C   LIG d   1      -7.387  95.892 118.185  0.00  0.00     0.006 C 
ENDBRANCH   8   9
BRANCH   8  11
ATOM     11  C   LIG d   1      -6.714  93.284 119.923  0.00  0.00     0.028 C 
ATOM     12  C   LIG d   1      -6.258  91.881 120.354  0.00  0.00     0.006 C 
ENDBRANCH   8  11
ENDBRANCH   7   8
ENDBRANCH   1   7
BRANCH   6  13
ATOM     13  N   LIG d   1      -2.978  93.032 117.242  0.00  0.00    -0.311 N 
ATOM     14  C   LIG d   1      -2.472  93.741 118.250  0.00  0.00     0.210 C 
ATOM     15  C   LIG d   1      -1.334  94.691 117.865  0.00  0.00     0.109 C 
ATOM     16  O   LIG d   1      -2.837  93.649 119.432  0.00  0.00    -0.276 OA
ATOM     17  H   LIG d   1      -2.600  93.145 116.321  0.00  0.00     0.149 HD
ENDBRANCH   6  13
BRANCH   5  18
ATOM     18  N   LIG d   1      -2.660  89.998 117.416  0.00  0.00     0.381 N 
ATOM     19  H   LIG d   1      -2.583  90.295 118.368  0.00  0.00    -0.090 HD
ATOM     20  H   LIG d   1      -1.810  90.242 116.939  0.00  0.00    -0.090 HD
ATOM     21  H   LIG d   1      -2.800  89.013 117.378  0.00  0.00    -0.090 HD
ENDBRANCH   5  18
BRANCH   3  22
ATOM     22  C   LIG d   1      -7.185  89.586 115.901  0.00  0.00     0.382 C 
ATOM     23  O   LIG d   1      -7.829  89.955 114.889  0.00  0.00    -0.241 OA
ATOM     24  O   LIG d   1      -7.473  88.506 116.450  0.00  0.00    -0.241 OA
ENDBRANCH   3  22
TORSDOF 7
ENDMDL
MODEL 2
REMARK VINA RESULT:      -5.2      1.180      1.727
REMARK  7 active torsions:
REMARK  status: ('A' for Active; 'I' for Inactive)
REMARK    1  A    between atoms: C_2  and  C_3 
REMARK    2  A    between atoms: C_3  and  O_6 
REMARK    3  A    between atoms: C_3  and  C_4 
REMARK    4  A    between atoms: C_7  and  O_6 
REMARK    5  A    between atoms: C_9  and  C_10 
REMARK    6  A    between atoms: N_15  and  C_14 
REMARK    7  A    between atoms: N_20  and  C_19 
REMARK       I    between atoms: C_22  and  N_20 
ROOT
ATOM      1  C   LIG d   1      -5.873  92.623 117.985  0.00  0.00     0.161 C 
ATOM      2  C   LIG d   1      -6.704  91.634 117.434  0.00  0.00     0.016 C 
ATOM      3  C   LIG d   1      -6.214  90.488 116.766  0.00  0.00     0.038 C 
ATOM      4  C   LIG d   1      -4.846  90.176 116.736  0.00  0.00     0.028 C 
ATOM      5  C   LIG d   1      -3.943  91.401 116.839  0.00  0.00    -0.047 C 
ATOM      6  C   LIG d   1      -4.379  92.244 118.059  0.00  0.00     0.091 C 
ENDROOT
BRANCH   1   7
ATOM      7  O   LIG d   1      -6.359  93.001 119.288  0.00  0.00    -0.368 OA
BRANCH   7   8
ATOM      8  C   LIG d   1      -7.023  94.286 119.373  0.00  0.00     0.119 C 
BRANCH   8   9
ATOM      9  C   LIG d   1      -8.541  94.023 119.388  0.00  0.00     0.028 C 
ATOM     10  C   LIG d   1      -9.310  95.072 120.209  0.00  0.00     0.006 C 
ENDBRANCH   8   9
BRANCH   8  11
ATOM     11  C   LIG d   1      -6.769  95.128 118.120  0.00  0.00     0.028 C 
ATOM     12  C   LIG d   1      -6.253  96.539 118.444  0.00  0.00     0.006 C 
ENDBRANCH   8  11
ENDBRANCH   7   8
ENDBRANCH   1   7
BRANCH   6  13
ATOM     13  N   LIG d   1      -3.601  93.505 118.184  0.00  0.00    -0.311 N 
ATOM     14  C   LIG d   1      -2.977  93.873 119.301  0.00  0.00     0.210 C 
ATOM     15  C   LIG d   1      -2.249  95.219 119.221  0.00  0.00     0.109 C 
ATOM     16  O   LIG d   1      -2.930  93.199 120.341  0.00  0.00    -0.276 OA
ATOM     17  H   LIG d   1      -3.560  94.097 117.378  0.00  0.00     0.149 HD
ENDBRANCH   6  13
BRANCH   5  18
ATOM     18  N   LIG d   1      -2.552  90.921 116.935  0.00  0.00     0.381 N 
ATOM     19  H   LIG d   1      -2.089  91.046 116.056  0.00  0.00    -0.090 HD
ATOM     20  H   LIG d   1      -2.560  89.940 117.151  0.00  0.00    -0.090 HD
ATOM     21  H   LIG d   1      -2.067  91.421 117.647  0.00  0.00    -0.090 HD
ENDBRANCH   5  18
BRANCH   3  22
ATOM     22  C   LIG d   1      -7.093  89.661 116.085  0.00  0.00     0.382 C 
ATOM     23  O   LIG d   1      -7.600  90.041 115.002  0.00  0.00    -0.241 OA
ATOM     24  O   LIG d   1      -7.421  88.558 116.561  0.00  0.00    -0.241 OA
ENDBRANCH   3  22
TORSDOF 7
ENDMDL
MODEL 3
REMARK VINA RESULT:      -5.2      2.165      4.499
REMARK  7 active torsions:
REMARK  status: ('A' for Active; 'I' for Inactive)
REMARK    1  A    between atoms: C_2  and  C_3 
REMARK    2  A    between atoms: C_3  and  O_6 
REMARK    3  A    between atoms: C_3  and  C_4 
REMARK    4  A    between atoms: C_7  and  O_6 
REMARK    5  A    between atoms: C_9  and  C_10 
REMARK    6  A    between atoms: N_15  and  C_14 
REMARK    7  A    between atoms: N_20  and  C_19 
REMARK       I    between atoms: C_22  and  N_20 
ROOT
ATOM      1  C   LIG d   1      -5.082  92.668 117.702  0.00  0.00     0.161 C 
ATOM      2  C   LIG d   1      -6.315  93.331 117.585  0.00  0.00     0.016 C 
ATOM      3  C   LIG d   1      -6.593  94.573 118.201  0.00  0.00     0.038 C 
ATOM      4  C   LIG d   1      -5.598  95.314 118.857  0.00  0.00     0.028 C 
ATOM      5  C   LIG d   1      -4.479  94.451 119.430  0.00  0.00    -0.047 C 
ATOM      6  C   LIG d   1      -3.949  93.514 118.321  0.00  0.00     0.091 C 
ENDROOT
BRANCH   1   7
ATOM      7  O   LIG d   1      -4.679  92.155 116.417  0.00  0.00    -0.368 OA
BRANCH   7   8
ATOM      8  C   LIG d   1      -4.755  90.718 116.252  0.00  0.00     0.119 C 
BRANCH   8   9
ATOM      9  C   LIG d   1      -6.053  90.407 115.483  0.00  0.00     0.028 C 
ATOM     10  C   LIG d   1      -6.991  89.474 116.267  0.00  0.00     0.006 C 
ENDBRANCH   8   9
BRANCH   8  11
ATOM     11  C   LIG d   1      -4.904  90.009 117.602  0.00  0.00     0.028 C 
ATOM     12  C   LIG d   1      -3.658  89.197 117.989  0.00  0.00     0.006 C 
ENDBRANCH   8  11
ENDBRANCH   7   8
ENDBRANCH   1   7
BRANCH   6  13
ATOM     13  N   LIG d   1      -2.909  92.577 118.819  0.00  0.00    -0.311 N 
ATOM     14  C   LIG d   1      -1.690  92.487 118.291  0.00  0.00     0.210 C 
ATOM     15  C   LIG d   1      -0.778  91.442 118.942  0.00  0.00     0.109 C 
ATOM     16  O   LIG d   1      -1.265  93.196 117.366  0.00  0.00    -0.276 OA
ATOM     17  H   LIG d   1      -3.158  91.986 119.588  0.00  0.00     0.149 HD
ENDBRANCH   6  13
BRANCH   5  18
ATOM     18  N   LIG d   1      -3.445  95.359 119.962  0.00  0.00     0.381 N 
ATOM     19  H   LIG d   1      -3.565  96.273 119.575  0.00  0.00    -0.090 HD
ATOM     20  H   LIG d   1      -2.540  95.017 119.689  0.00  0.00    -0.090 HD
ATOM     21  H   LIG d   1      -3.506  95.400 120.956  0.00  0.00    -0.090 HD
ENDBRANCH   5  18
BRANCH   3  22
ATOM     22  C   LIG d   1      -7.888  95.067 118.200  0.00  0.00     0.382 C 
ATOM     23  O   LIG d   1      -8.092  96.291 118.017  0.00  0.00    -0.241 OA
ATOM     24  O   LIG d   1      -8.853  94.311 118.422  0.00  0.00    -0.241 OA
ENDBRANCH   3  22
TORSDOF 7
ENDMDL
MODEL 4
REMARK VINA RESULT:      -5.1      2.254      4.378
REMARK  7 active torsions:
REMARK  status: ('A' for Active; 'I' for Inactive)
REMARK    1  A    between atoms: C_2  and  C_3 
REMARK    2  A    between atoms: C_3  and  O_6 
REMARK    3  A    between atoms: C_3  and  C_4 
REMARK    4  A    between atoms: C_7  and  O_6 
REMARK    5  A    between atoms: C_9  and  C_10 
REMARK    6  A    between atoms: N_15  and  C_14 
REMARK    7  A    between atoms: N_20  and  C_19 
REMARK       I    between atoms: C_22  and  N_20 
ROOT
ATOM      1  C   LIG d   1      -3.808  90.936 117.471  0.00  0.00     0.161 C 
ATOM      2  C   LIG d   1      -4.534  90.295 116.453  0.00  0.00     0.016 C 
ATOM      3  C   LIG d   1      -5.661  90.869 115.822  0.00  0.00     0.038 C 
ATOM      4  C   LIG d   1      -6.050  92.195 116.062  0.00  0.00     0.028 C 
ATOM      5  C   LIG d   1      -5.656  92.701 117.446  0.00  0.00    -0.047 C 
ATOM      6  C   LIG d   1      -4.151  92.427 117.669  0.00  0.00     0.091 C 
ENDROOT
BRANCH   1   7
ATOM      7  O   LIG d   1      -2.395  90.772 117.241  0.00  0.00    -0.368 OA
BRANCH   7   8
ATOM      8  C   LIG d   1      -1.662  90.050 118.261  0.00  0.00     0.119 C 
BRANCH   8   9
ATOM      9  C   LIG d   1      -0.420  90.888 118.620  0.00  0.00     0.028 C 
ATOM     10  C   LIG d   1      -0.045  91.886 117.512  0.00  0.00     0.006 C 
ENDBRANCH   8   9
BRANCH   8  11
ATOM     11  C   LIG d   1      -1.115  88.725 117.721  0.00  0.00     0.028 C 
ATOM     12  C   LIG d   1      -2.115  87.566 117.860  0.00  0.00     0.006 C 
ENDBRANCH   8  11
ENDBRANCH   7   8
ENDBRANCH   1   7
BRANCH   6  13
ATOM     13  N   LIG d   1      -3.700  92.815 119.031  0.00  0.00    -0.311 N 
ATOM     14  C   LIG d   1      -2.816  93.783 119.263  0.00  0.00     0.210 C 
ATOM     15  C   LIG d   1      -2.475  94.008 120.739  0.00  0.00     0.109 C 
ATOM     16  O   LIG d   1      -2.305  94.499 118.388  0.00  0.00    -0.276 OA
ATOM     17  H   LIG d   1      -4.088  92.307 119.802  0.00  0.00     0.149 HD
ENDBRANCH   6  13
BRANCH   5  18
ATOM     18  N   LIG d   1      -5.998  94.134 117.511  0.00  0.00     0.381 N 
ATOM     19  H   LIG d   1      -6.278  94.457 116.606  0.00  0.00    -0.090 HD
ATOM     20  H   LIG d   1      -5.184  94.651 117.793  0.00  0.00    -0.090 HD
ATOM     21  H   LIG d   1      -6.736  94.279 118.165  0.00  0.00    -0.090 HD
ENDBRANCH   5  18
BRANCH   3  22
ATOM     22  C   LIG d   1      -6.436  90.100 114.967  0.00  0.00     0.382 C 
ATOM     23  O   LIG d   1      -7.531  90.543 114.544  0.00  0.00    -0.241 OA
ATOM     24  O   LIG d   1      -6.075  88.951 114.649  0.00  0.00    -0.241 OA
ENDBRANCH   3  22
TORSDOF 7
ENDMDL
MODEL 5
REMARK VINA RESULT:      -5.0      2.355      5.919
REMARK  7 active torsions:
REMARK  status: ('A' for Active; 'I' for Inactive)
REMARK    1  A    between atoms: C_2  and  C_3 
REMARK    2  A    between atoms: C_3  and  O_6 
REMARK    3  A    between atoms: C_3  and  C_4 
REMARK    4  A    between atoms: C_7  and  O_6 
REMARK    5  A    between atoms: C_9  and  C_10 
REMARK    6  A    between atoms: N_15  and  C_14 
REMARK    7  A    between atoms: N_20  and  C_19 
REMARK       I    between atoms: C_22  and  N_20 
ROOT
ATOM      1  C   LIG d   1      -4.100  91.926 116.944  0.00  0.00     0.161 C 
ATOM      2  C   LIG d   1      -3.331  92.822 117.706  0.00  0.00     0.016 C 
ATOM      3  C   LIG d   1      -3.894  93.818 118.536  0.00  0.00     0.038 C 
ATOM      4  C   LIG d   1      -5.274  93.889 118.779  0.00  0.00     0.028 C 
ATOM      5  C   LIG d   1      -6.119  93.330 117.640  0.00  0.00    -0.047 C 
ATOM      6  C   LIG d   1      -5.605  91.916 117.282  0.00  0.00     0.091 C 
ENDROOT
BRANCH   1   7
ATOM      7  O   LIG d   1      -3.553  90.597 117.053  0.00  0.00    -0.368 OA
BRANCH   7   8
ATOM      8  C   LIG d   1      -2.820  90.308 118.269  0.00  0.00     0.119 C 
BRANCH   8   9
ATOM      9  C   LIG d   1      -1.619  89.421 117.886  0.00  0.00     0.028 C 
ATOM     10  C   LIG d   1      -0.498  90.216 117.196  0.00  0.00     0.006 C 
ENDBRANCH   8   9
BRANCH   8  11
ATOM     11  C   LIG d   1      -3.655  89.464 119.236  0.00  0.00     0.028 C 
ATOM     12  C   LIG d   1      -4.282  90.298 120.365  0.00  0.00     0.006 C 
ENDBRANCH   8  11
ENDBRANCH   7   8
ENDBRANCH   1   7
BRANCH   6  13
ATOM     13  N   LIG d   1      -6.323  91.330 116.120  0.00  0.00    -0.311 N 
ATOM     14  C   LIG d   1      -6.723  90.060 116.070  0.00  0.00     0.210 C 
ATOM     15  C   LIG d   1      -7.428  89.655 114.771  0.00  0.00     0.109 C 
ATOM     16  O   LIG d   1      -6.590  89.240 116.990  0.00  0.00    -0.276 OA
ATOM     17  H   LIG d   1      -6.501  91.934 115.341  0.00  0.00     0.149 HD
ENDBRANCH   6  13
BRANCH   5  18
ATOM     18  N   LIG d   1      -7.526  93.339 118.082  0.00  0.00     0.381 N 
ATOM     19  H   LIG d   1      -8.082  92.793 117.455  0.00  0.00    -0.090 HD
ATOM     20  H   LIG d   1      -7.866  94.284 118.064  0.00  0.00    -0.090 HD
ATOM     21  H   LIG d   1      -7.596  92.970 119.005  0.00  0.00    -0.090 HD
ENDBRANCH   5  18
BRANCH   3  22
ATOM     22  C   LIG d   1      -3.075  94.784 119.103  0.00  0.00     0.382 C 
ATOM     23  O   LIG d   1      -3.380  95.294 120.208  0.00  0.00    -0.241 OA
ATOM     24  O   LIG d   1      -2.060  95.182 118.502  0.00  0.00    -0.241 OA
ENDBRANCH   3  22
TORSDOF 7
ENDMDL
MODEL 6
REMARK VINA RESULT:      -4.8      1.573      4.976
REMARK  7 active torsions:
REMARK  status: ('A' for Active; 'I' for Inactive)
REMARK    1  A    between atoms: C_2  and  C_3 
REMARK    2  A    between atoms: C_3  and  O_6 
REMARK    3  A    between atoms: C_3  and  C_4 
REMARK    4  A    between atoms: C_7  and  O_6 
REMARK    5  A    between atoms: C_9  and  C_10 
REMARK    6  A    between atoms: N_15  and  C_14 
REMARK    7  A    between atoms: N_20  and  C_19 
REMARK       I    between atoms: C_22  and  N_20 
ROOT
ATOM      1  C   LIG d   1      -5.557  93.041 118.425  0.00  0.00     0.161 C 
ATOM      2  C   LIG d   1      -4.555  93.898 118.911  0.00  0.00     0.016 C 
ATOM      3  C   LIG d   1      -3.178  93.709 118.655  0.00  0.00     0.038 C 
ATOM      4  C   LIG d   1      -2.717  92.728 117.765  0.00  0.00     0.028 C 
ATOM      5  C   LIG d   1      -3.650  91.527 117.651  0.00  0.00    -0.047 C 
ATOM      6  C   LIG d   1      -5.082  92.030 117.360  0.00  0.00     0.091 C 
ENDROOT
BRANCH   1   7
ATOM      7  O   LIG d   1      -6.662  93.818 117.921  0.00  0.00    -0.368 OA
BRANCH   7   8
ATOM      8  C   LIG d   1      -7.299  94.709 118.869  0.00  0.00     0.119 C 
BRANCH   8   9
ATOM      9  C   LIG d   1      -8.636  94.065 119.285  0.00  0.00     0.028 C 
ATOM     10  C   LIG d   1      -9.447  94.959 120.238  0.00  0.00     0.006 C 
ENDBRANCH   8   9
BRANCH   8  11
ATOM     11  C   LIG d   1      -7.676  96.041 118.214  0.00  0.00     0.028 C 
ATOM     12  C   LIG d   1      -6.874  97.228 118.771  0.00  0.00     0.006 C 
ENDBRANCH   8  11
ENDBRANCH   7   8
ENDBRANCH   1   7
BRANCH   6  13
ATOM     13  N   LIG d   1      -6.074  90.924 117.317  0.00  0.00    -0.311 N 
ATOM     14  C   LIG d   1      -6.420  90.293 116.196  0.00  0.00     0.210 C 
ATOM     15  C   LIG d   1      -7.475  89.196 116.371  0.00  0.00     0.109 C 
ATOM     16  O   LIG d   1      -5.929  90.516 115.079  0.00  0.00    -0.276 OA
ATOM     17  H   LIG d   1      -6.498  90.658 118.184  0.00  0.00     0.149 HD
ENDBRANCH   6  13
BRANCH   5  18
ATOM     18  N   LIG d   1      -3.119  90.650 116.590  0.00  0.00     0.381 N 
ATOM     19  H   LIG d   1      -2.616  89.888 117.001  0.00  0.00    -0.090 HD
ATOM     20  H   LIG d   1      -2.482  91.177 116.020  0.00  0.00    -0.090 HD
ATOM     21  H   LIG d   1      -3.866  90.301 116.031  0.00  0.00    -0.090 HD
ENDBRANCH   5  18
BRANCH   3  22
ATOM     22  C   LIG d   1      -2.242  94.481 119.326  0.00  0.00     0.382 C 
ATOM     23  O   LIG d   1      -2.533  95.648 119.684  0.00  0.00    -0.241 OA
ATOM     24  O   LIG d   1      -1.096  94.042 119.539  0.00  0.00    -0.241 OA
ENDBRANCH   3  22
TORSDOF 7
ENDMDL
MODEL 7
REMARK VINA RESULT:      -4.6      2.683      4.560
REMARK  7 active torsions:
REMARK  status: ('A' for Active; 'I' for Inactive)
REMARK    1  A    between atoms: C_2  and  C_3 
REMARK    2  A    between atoms: C_3  and  O_6 
REMARK    3  A    between atoms: C_3  and  C_4 
REMARK    4  A    between atoms: C_7  and  O_6 
REMARK    5  A    between atoms: C_9  and  C_10 
REMARK    6  A    between atoms: N_15  and  C_14 
REMARK    7  A    between atoms: N_20  and  C_19 
REMARK       I    between atoms: C_22  and  N_20 
ROOT
ATOM      1  C   LIG d   1      -4.459  91.522 119.745  0.00  0.00     0.161 C 
ATOM      2  C   LIG d   1      -3.434  90.647 119.348  0.00  0.00     0.016 C 
ATOM      3  C   LIG d   1      -3.554  89.749 118.263  0.00  0.00     0.038 C 
ATOM      4  C   LIG d   1      -4.660  89.772 117.400  0.00  0.00     0.028 C 
ATOM      5  C   LIG d   1      -5.933  90.288 118.062  0.00  0.00    -0.047 C 
ATOM      6  C   LIG d   1      -5.630  91.640 118.748  0.00  0.00     0.091 C 
ENDROOT
BRANCH   1   7
ATOM      7  O   LIG d   1      -3.907  92.823 120.027  0.00  0.00    -0.368 OA
BRANCH   7   8
ATOM      8  C   LIG d   1      -3.905  93.767 118.927  0.00  0.00     0.119 C 
BRANCH   8   9
ATOM      9  C   LIG d   1      -2.436  94.121 118.624  0.00  0.00     0.028 C 
ATOM     10  C   LIG d   1      -1.872  93.321 117.438  0.00  0.00     0.006 C 
ENDBRANCH   8   9
BRANCH   8  11
ATOM     11  C   LIG d   1      -4.567  95.089 119.326  0.00  0.00     0.028 C 
ATOM     12  C   LIG d   1      -5.023  95.108 120.793  0.00  0.00     0.006 C 
ENDBRANCH   8  11
ENDBRANCH   7   8
ENDBRANCH   1   7
BRANCH   6  13
ATOM     13  N   LIG d   1      -6.801  92.174 119.491  0.00  0.00    -0.311 N 
ATOM     14  C   LIG d   1      -7.632  93.087 118.991  0.00  0.00     0.210 C 
ATOM     15  C   LIG d   1      -8.763  93.516 119.931  0.00  0.00     0.109 C 
ATOM     16  O   LIG d   1      -7.558  93.560 117.846  0.00  0.00    -0.276 OA
ATOM     17  H   LIG d   1      -6.954  91.822 120.415  0.00  0.00     0.149 HD
ENDBRANCH   6  13
BRANCH   5  18
ATOM     18  N   LIG d   1      -6.969  90.390 117.016  0.00  0.00     0.381 N 
ATOM     19  H   LIG d   1      -6.569  90.763 116.179  0.00  0.00    -0.090 HD
ATOM     20  H   LIG d   1      -7.687  91.019 117.330  0.00  0.00    -0.090 HD
ATOM     21  H   LIG d   1      -7.360  89.492 116.835  0.00  0.00    -0.090 HD
ENDBRANCH   5  18
BRANCH   3  22
ATOM     22  C   LIG d   1      -2.577  88.786 118.056  0.00  0.00     0.382 C 
ATOM     23  O   LIG d   1      -1.425  89.130 117.699  0.00  0.00    -0.241 OA
ATOM     24  O   LIG d   1      -2.847  87.576 118.178  0.00  0.00    -0.241 OA
ENDBRANCH   3  22
TORSDOF 7
ENDMDL
MODEL 8
REMARK VINA RESULT:      -4.5      3.362      5.530
REMARK  7 active torsions:
REMARK  status: ('A' for Active; 'I' for Inactive)
REMARK    1  A    between atoms: C_2  and  C_3 
REMARK    2  A    between atoms: C_3  and  O_6 
REMARK    3  A    between atoms: C_3  and  C_4 
REMARK    4  A    between atoms: C_7  and  O_6 
REMARK    5  A    between atoms: C_9  and  C_10 
REMARK    6  A    between atoms: N_15  and  C_14 
REMARK    7  A    between atoms: N_20  and  C_19 
REMARK       I    between atoms: C_22  and  N_20 
ROOT
ATOM      1  C   LIG d   1      -2.551  89.798 118.293  0.00  0.00     0.161 C 
ATOM      2  C   LIG d   1      -3.763  89.413 117.696  0.00  0.00     0.016 C 
ATOM      3  C   LIG d   1      -4.660  90.328 117.098  0.00  0.00     0.038 C 
ATOM      4  C   LIG d   1      -4.332  91.680 116.921  0.00  0.00     0.028 C 
ATOM      5  C   LIG d   1      -3.342  92.204 117.956  0.00  0.00    -0.047 C 
ATOM      6  C   LIG d   1      -2.124  91.254 118.012  0.00  0.00     0.091 C 
ENDROOT
BRANCH   1   7
ATOM      7  O   LIG d   1      -1.504  88.885 117.906  0.00  0.00    -0.368 OA
BRANCH   7   8
ATOM      8  C   LIG d   1      -1.844  87.477 117.935  0.00  0.00     0.119 C 
BRANCH   8   9
ATOM      9  C   LIG d   1      -1.483  86.943 119.335  0.00  0.00     0.028 C 
ATOM     10  C   LIG d   1      -2.726  86.549 120.150  0.00  0.00     0.006 C 
ENDBRANCH   8   9
BRANCH   8  11
ATOM     11  C   LIG d   1      -0.977  86.675 116.959  0.00  0.00     0.028 C 
ATOM     12  C   LIG d   1       0.322  86.161 117.600  0.00  0.00     0.006 C 
ENDBRANCH   8  11
ENDBRANCH   7   8
ENDBRANCH   1   7
BRANCH   6  13
ATOM     13  N   LIG d   1      -1.146  91.646 119.059  0.00  0.00    -0.311 N 
ATOM     14  C   LIG d   1       0.065  92.130 118.788  0.00  0.00     0.210 C 
ATOM     15  C   LIG d   1       0.923  92.453 120.015  0.00  0.00     0.109 C 
ATOM     16  O   LIG d   1       0.498  92.352 117.647  0.00  0.00    -0.276 OA
ATOM     17  H   LIG d   1      -1.427  91.529 120.013  0.00  0.00     0.149 HD
ENDBRANCH   6  13
BRANCH   5  18
ATOM     18  N   LIG d   1      -2.983  93.582 117.572  0.00  0.00     0.381 N 
ATOM     19  H   LIG d   1      -1.988  93.673 117.529  0.00  0.00    -0.090 HD
ATOM     20  H   LIG d   1      -3.328  94.215 118.273  0.00  0.00    -0.090 HD
ATOM     21  H   LIG d   1      -3.383  93.805 116.688  0.00  0.00    -0.090 HD
ENDBRANCH   5  18
BRANCH   3  22
ATOM     22  C   LIG d   1      -5.918  89.898 116.704  0.00  0.00     0.382 C 
ATOM     23  O   LIG d   1      -6.046  88.811 116.091  0.00  0.00    -0.241 OA
ATOM     24  O   LIG d   1      -6.922  90.605 116.915  0.00  0.00    -0.241 OA
ENDBRANCH   3  22
TORSDOF 7
ENDMDL
MODEL 9
REMARK VINA RESULT:      -4.4      2.356      4.469
REMARK  7 active torsions:
REMARK  status: ('A' for Active; 'I' for Inactive)
REMARK    1  A    between atoms: C_2  and  C_3 
REMARK    2  A    between atoms: C_3  and  O_6 
REMARK    3  A    between atoms: C_3  and  C_4 
REMARK    4  A    between atoms: C_7  and  O_6 
REMARK    5  A    between atoms: C_9  and  C_10 
REMARK    6  A    between atoms: N_15  and  C_14 
REMARK    7  A    between atoms: N_20  and  C_19 
REMARK       I    between atoms: C_22  and  N_20 
ROOT
ATOM      1  C   LIG d   1      -4.698  92.888 119.496  0.00  0.00     0.161 C 
ATOM      2  C   LIG d   1      -4.634  91.622 118.893  0.00  0.00     0.016 C 
ATOM      3  C   LIG d   1      -5.524  91.196 117.880  0.00  0.00     0.038 C 
ATOM      4  C   LIG d   1      -6.451  92.070 117.292  0.00  0.00     0.028 C 
ATOM      5  C   LIG d   1      -6.888  93.200 118.218  0.00  0.00    -0.047 C 
ATOM      6  C   LIG d   1      -5.632  93.894 118.791  0.00  0.00     0.091 C 
ENDROOT
BRANCH   1   7
ATOM      7  O   LIG d   1      -3.372  93.438 119.621  0.00  0.00    -0.368 OA
BRANCH   7   8
ATOM      8  C   LIG d   1      -2.906  94.238 118.506  0.00  0.00     0.119 C 
BRANCH   8   9
ATOM      9  C   LIG d   1      -1.756  93.465 117.831  0.00  0.00     0.028 C 
ATOM     10  C   LIG d   1      -0.946  92.624 118.832  0.00  0.00     0.006 C 
ENDBRANCH   8   9
BRANCH   8  11
ATOM     11  C   LIG d   1      -2.284  95.553 118.985  0.00  0.00     0.028 C 
ATOM     12  C   LIG d   1      -2.482  95.792 120.490  0.00  0.00     0.006 C 
ENDBRANCH   8  11
ENDBRANCH   7   8
ENDBRANCH   1   7
BRANCH   6  13
ATOM     13  N   LIG d   1      -5.969  94.959 119.772  0.00  0.00    -0.311 N 
ATOM     14  C   LIG d   1      -6.102  96.243 119.443  0.00  0.00     0.210 C 
ATOM     15  C   LIG d   1      -6.434  97.177 120.611  0.00  0.00     0.109 C 
ATOM     16  O   LIG d   1      -6.009  96.691 118.291  0.00  0.00    -0.276 OA
ATOM     17  H   LIG d   1      -6.093  94.678 120.725  0.00  0.00     0.149 HD
ENDBRANCH   6  13
BRANCH   5  18
ATOM     18  N   LIG d   1      -7.745  94.111 117.435  0.00  0.00     0.381 N 
ATOM     19  H   LIG d   1      -8.250  93.591 116.745  0.00  0.00    -0.090 HD
ATOM     20  H   LIG d   1      -7.163  94.779 116.962  0.00  0.00    -0.090 HD
ATOM     21  H   LIG d   1      -8.382  94.583 118.038  0.00  0.00    -0.090 HD
ENDBRANCH   5  18
BRANCH   3  22
ATOM     22  C   LIG d   1      -5.519  89.870 117.473  0.00  0.00     0.382 C 
ATOM     23  O   LIG d   1      -4.470  89.189 117.569  0.00  0.00    -0.241 OA
ATOM     24  O   LIG d   1      -6.538  89.360 116.970  0.00  0.00    -0.241 OA
ENDBRANCH   3  22
TORSDOF 7
ENDMDL
