MODEL 1
REMARK VINA RESULT:      -4.5      0.000      0.000
REMARK  7 active torsions:
REMARK  status: ('A' for Active; 'I' for Inactive)
REMARK    1  A    between atoms: C_2  and  C_3 
REMARK    2  A    between atoms: C_3  and  O_6 
REMARK    3  A    between atoms: C_3  and  C_4 
REMARK    4  A    between atoms: C_7  and  O_6 
REMARK    5  A    between atoms: C_9  and  C_10 
REMARK    6  A    between atoms: N_15  and  C_14 
REMARK    7  A    between atoms: N_20  and  C_19 
REMARK       I    between atoms: C_22  and  N_20 
ROOT
ATOM      1  C   LIG d   1       0.896  90.114 117.513  0.00  0.00     0.161 C 
ATOM      2  C   LIG d   1      -0.495  89.928 117.473  0.00  0.00     0.016 C 
ATOM      3  C   LIG d   1      -1.426  90.952 117.763  0.00  0.00     0.038 C 
ATOM      4  C   LIG d   1      -1.027  92.281 117.967  0.00  0.00     0.028 C 
ATOM      5  C   LIG d   1       0.391  92.410 118.514  0.00  0.00    -0.047 C 
ATOM      6  C   LIG d   1       1.349  91.585 117.625  0.00  0.00     0.091 C 
ENDROOT
BRANCH   1   7
ATOM      7  O   LIG d   1       1.507  89.488 116.367  0.00  0.00    -0.368 OA
BRANCH   7   8
ATOM      8  C   LIG d   1       2.361  88.350 116.642  0.00  0.00     0.119 C 
BRANCH   8   9
ATOM      9  C   LIG d   1       3.788  88.725 116.198  0.00  0.00     0.028 C 
ATOM     10  C   LIG d   1       3.797  89.802 115.101  0.00  0.00     0.006 C 
ENDBRANCH   8   9
BRANCH   8  11
ATOM     11  C   LIG d   1       1.973  87.142 115.784  0.00  0.00     0.028 C 
ATOM     12  C   LIG d   1       0.538  86.659 116.048  0.00  0.00     0.006 C 
ENDBRANCH   8  11
ENDBRANCH   7   8
ENDBRANCH   1   7
BRANCH   6  13
ATOM     13  N   LIG d   1       2.743  91.589 118.139  0.00  0.00    -0.311 N 
ATOM     14  C   LIG d   1       3.660  92.480 117.767  0.00  0.00     0.210 C 
ATOM     15  C   LIG d   1       5.041  92.292 118.402  0.00  0.00     0.109 C 
ATOM     16  O   LIG d   1       3.451  93.428 116.995  0.00  0.00    -0.276 OA
ATOM     17  H   LIG d   1       2.990  90.872 118.794  0.00  0.00     0.149 HD
ENDBRANCH   6  13
BRANCH   5  18
ATOM     18  N   LIG d   1       0.726  93.846 118.548  0.00  0.00     0.381 N 
ATOM     19  H   LIG d   1       1.656  93.985 118.206  0.00  0.00    -0.090 HD
ATOM     20  H   LIG d   1       0.689  94.166 119.500  0.00  0.00    -0.090 HD
ATOM     21  H   LIG d   1       0.079  94.361 117.992  0.00  0.00    -0.090 HD
ENDBRANCH   5  18
BRANCH   3  22
ATOM     22  C   LIG d   1      -2.772  90.641 117.890  0.00  0.00     0.382 C 
ATOM     23  O   LIG d   1      -3.187  89.504 117.562  0.00  0.00    -0.241 OA
ATOM     24  O   LIG d   1      -3.583  91.499 118.287  0.00  0.00    -0.241 OA
ENDBRANCH   3  22
TORSDOF 7
ENDMDL
MODEL 2
REMARK VINA RESULT:      -4.4      1.600      1.862
REMARK  7 active torsions:
REMARK  status: ('A' for Active; 'I' for Inactive)
REMARK    1  A    between atoms: C_2  and  C_3 
REMARK    2  A    between atoms: C_3  and  O_6 
REMARK    3  A    between atoms: C_3  and  C_4 
REMARK    4  A    between atoms: C_7  and  O_6 
REMARK    5  A    between atoms: C_9  and  C_10 
REMARK    6  A    between atoms: N_15  and  C_14 
REMARK    7  A    between atoms: N_20  and  C_19 
REMARK       I    between atoms: C_22  and  N_20 
ROOT
ATOM      1  C   LIG d   1       1.241  89.154 117.100  0.00  0.00     0.161 C 
ATOM      2  C   LIG d   1      -0.135  89.185 117.378  0.00  0.00     0.016 C 
ATOM      3  C   LIG d   1      -0.837  90.368 117.702  0.00  0.00     0.038 C 
ATOM      4  C   LIG d   1      -0.236  91.633 117.621  0.00  0.00     0.028 C 
ATOM      5  C   LIG d   1       1.274  91.601 117.836  0.00  0.00    -0.047 C 
ATOM      6  C   LIG d   1       1.891  90.539 116.898  0.00  0.00     0.091 C 
ENDROOT
BRANCH   1   7
ATOM      7  O   LIG d   1       1.490  88.312 115.957  0.00  0.00    -0.368 OA
BRANCH   7   8
ATOM      8  C   LIG d   1       2.190  87.071 116.219  0.00  0.00     0.119 C 
BRANCH   8   9
ATOM      9  C   LIG d   1       3.151  86.824 115.040  0.00  0.00     0.028 C 
ATOM     10  C   LIG d   1       4.603  86.611 115.501  0.00  0.00     0.006 C 
ENDBRANCH   8   9
BRANCH   8  11
ATOM     11  C   LIG d   1       1.230  85.878 116.217  0.00  0.00     0.028 C 
ATOM     12  C   LIG d   1       0.013  86.094 115.303  0.00  0.00     0.006 C 
ENDBRANCH   8  11
ENDBRANCH   7   8
ENDBRANCH   1   7
BRANCH   6  13
ATOM     13  N   LIG d   1       3.355  90.383 117.104  0.00  0.00    -0.311 N 
ATOM     14  C   LIG d   1       4.230  90.288 116.104  0.00  0.00     0.210 C 
ATOM     15  C   LIG d   1       5.689  90.113 116.537  0.00  0.00     0.109 C 
ATOM     16  O   LIG d   1       3.940  90.365 114.901  0.00  0.00    -0.276 OA
ATOM     17  H   LIG d   1       3.681  90.343 118.050  0.00  0.00     0.149 HD
ENDBRANCH   6  13
BRANCH   5  18
ATOM     18  N   LIG d   1       1.788  92.961 117.588  0.00  0.00     0.381 N 
ATOM     19  H   LIG d   1       1.735  93.170 116.611  0.00  0.00    -0.090 HD
ATOM     20  H   LIG d   1       2.753  92.999 117.867  0.00  0.00    -0.090 HD
ATOM     21  H   LIG d   1       1.258  93.626 118.107  0.00  0.00    -0.090 HD
ENDBRANCH   5  18
BRANCH   3  22
ATOM     22  C   LIG d   1      -2.147  90.289 118.151  0.00  0.00     0.382 C 
ATOM     23  O   LIG d   1      -2.904  89.387 117.720  0.00  0.00    -0.241 OA
ATOM     24  O   LIG d   1      -2.594  91.136 118.948  0.00  0.00    -0.241 OA
ENDBRANCH   3  22
TORSDOF 7
ENDMDL
MODEL 3
REMARK VINA RESULT:      -4.1      2.175      5.215
REMARK  7 active torsions:
REMARK  status: ('A' for Active; 'I' for Inactive)
REMARK    1  A    between atoms: C_2  and  C_3 
REMARK    2  A    between atoms: C_3  and  O_6 
REMARK    3  A    between atoms: C_3  and  C_4 
REMARK    4  A    between atoms: C_7  and  O_6 
REMARK    5  A    between atoms: C_9  and  C_10 
REMARK    6  A    between atoms: N_15  and  C_14 
REMARK    7  A    between atoms: N_20  and  C_19 
REMARK       I    between atoms: C_22  and  N_20 
ROOT
ATOM      1  C   LIG d   1       2.371  91.039 116.377  0.00  0.00     0.161 C 
ATOM      2  C   LIG d   1       3.465  90.289 115.914  0.00  0.00     0.016 C 
ATOM      3  C   LIG d   1       4.769  90.404 116.449  0.00  0.00     0.038 C 
ATOM      4  C   LIG d   1       5.037  91.171 117.592  0.00  0.00     0.028 C 
ATOM      5  C   LIG d   1       4.068  92.333 117.782  0.00  0.00    -0.047 C 
ATOM      6  C   LIG d   1       2.620  91.799 117.697  0.00  0.00     0.091 C 
ENDROOT
BRANCH   1   7
ATOM      7  O   LIG d   1       1.213  90.189 116.499  0.00  0.00    -0.368 OA
BRANCH   7   8
ATOM      8  C   LIG d   1       1.182  89.316 117.654  0.00  0.00     0.119 C 
BRANCH   8   9
ATOM      9  C   LIG d   1       0.994  87.875 117.141  0.00  0.00     0.028 C 
ATOM     10  C   LIG d   1       2.118  86.934 117.606  0.00  0.00     0.006 C 
ENDBRANCH   8   9
BRANCH   8  11
ATOM     11  C   LIG d   1      -0.040  89.597 118.533  0.00  0.00     0.028 C 
ATOM     12  C   LIG d   1      -1.149  90.356 117.786  0.00  0.00     0.006 C 
ENDBRANCH   8  11
ENDBRANCH   7   8
ENDBRANCH   1   7
BRANCH   6  13
ATOM     13  N   LIG d   1       1.609  92.884 117.788  0.00  0.00    -0.311 N 
ATOM     14  C   LIG d   1       1.021  93.245 118.928  0.00  0.00     0.210 C 
ATOM     15  C   LIG d   1      -0.006  94.373 118.796  0.00  0.00     0.109 C 
ATOM     16  O   LIG d   1       1.277  92.759 120.040  0.00  0.00    -0.276 OA
ATOM     17  H   LIG d   1       1.365  93.353 116.938  0.00  0.00     0.149 HD
ENDBRANCH   6  13
BRANCH   5  18
ATOM     18  N   LIG d   1       4.376  92.963 119.080  0.00  0.00     0.381 N 
ATOM     19  H   LIG d   1       4.209  92.311 119.821  0.00  0.00    -0.090 HD
ATOM     20  H   LIG d   1       3.768  93.752 119.211  0.00  0.00    -0.090 HD
ATOM     21  H   LIG d   1       5.327  93.260 119.098  0.00  0.00    -0.090 HD
ENDBRANCH   5  18
BRANCH   3  22
ATOM     22  C   LIG d   1       5.830  89.776 115.814  0.00  0.00     0.382 C 
ATOM     23  O   LIG d   1       6.999  90.203 115.975  0.00  0.00    -0.241 OA
ATOM     24  O   LIG d   1       5.628  88.816 115.046  0.00  0.00    -0.241 OA
ENDBRANCH   3  22
TORSDOF 7
ENDMDL
MODEL 4
REMARK VINA RESULT:      -4.0      2.798      4.284
REMARK  7 active torsions:
REMARK  status: ('A' for Active; 'I' for Inactive)
REMARK    1  A    between atoms: C_2  and  C_3 
REMARK    2  A    between atoms: C_3  and  O_6 
REMARK    3  A    between atoms: C_3  and  C_4 
REMARK    4  A    between atoms: C_7  and  O_6 
REMARK    5  A    between atoms: C_9  and  C_10 
REMARK    6  A    between atoms: N_15  and  C_14 
REMARK    7  A    between atoms: N_20  and  C_19 
REMARK       I    between atoms: C_22  and  N_20 
ROOT
ATOM      1  C   LIG d   1       3.536  90.200 116.224  0.00  0.00     0.161 C 
ATOM      2  C   LIG d   1       2.426  91.015 116.504  0.00  0.00     0.016 C 
ATOM      3  C   LIG d   1       2.386  91.933 117.579  0.00  0.00     0.038 C 
ATOM      4  C   LIG d   1       3.518  92.208 118.361  0.00  0.00     0.028 C 
ATOM      5  C   LIG d   1       4.502  91.046 118.433  0.00  0.00    -0.047 C 
ATOM      6  C   LIG d   1       4.819  90.567 116.997  0.00  0.00     0.091 C 
ENDROOT
BRANCH   1   7
ATOM      7  O   LIG d   1       3.790  90.194 114.805  0.00  0.00    -0.368 OA
BRANCH   7   8
ATOM      8  C   LIG d   1       3.548  88.940 114.120  0.00  0.00     0.119 C 
BRANCH   8   9
ATOM      9  C   LIG d   1       3.036  87.932 115.167  0.00  0.00     0.028 C 
ATOM     10  C   LIG d   1       3.703  86.553 115.029  0.00  0.00     0.006 C 
ENDBRANCH   8   9
BRANCH   8  11
ATOM     11  C   LIG d   1       4.850  88.339 113.581  0.00  0.00     0.028 C 
ATOM     12  C   LIG d   1       5.970  89.381 113.431  0.00  0.00     0.006 C 
ENDBRANCH   8  11
ENDBRANCH   7   8
ENDBRANCH   1   7
BRANCH   6  13
ATOM     13  N   LIG d   1       5.710  89.378 116.980  0.00  0.00    -0.311 N 
ATOM     14  C   LIG d   1       7.035  89.456 116.876  0.00  0.00     0.210 C 
ATOM     15  C   LIG d   1       7.763  88.108 116.857  0.00  0.00     0.109 C 
ATOM     16  O   LIG d   1       7.680  90.514 116.829  0.00  0.00    -0.276 OA
ATOM     17  H   LIG d   1       5.272  88.479 117.045  0.00  0.00     0.149 HD
ENDBRANCH   6  13
BRANCH   5  18
ATOM     18  N   LIG d   1       5.695  91.516 119.162  0.00  0.00     0.381 N 
ATOM     19  H   LIG d   1       5.534  92.438 119.517  0.00  0.00    -0.090 HD
ATOM     20  H   LIG d   1       6.471  91.556 118.525  0.00  0.00    -0.090 HD
ATOM     21  H   LIG d   1       5.903  90.895 119.912  0.00  0.00    -0.090 HD
ENDBRANCH   5  18
BRANCH   3  22
ATOM     22  C   LIG d   1       1.192  92.557 117.906  0.00  0.00     0.382 C 
ATOM     23  O   LIG d   1       1.204  93.680 118.464  0.00  0.00    -0.241 OA
ATOM     24  O   LIG d   1       0.104  91.991 117.690  0.00  0.00    -0.241 OA
ENDBRANCH   3  22
TORSDOF 7
ENDMDL
MODEL 5
REMARK VINA RESULT:      -3.9      2.052      2.742
REMARK  7 active torsions:
REMARK  status: ('A' for Active; 'I' for Inactive)
REMARK    1  A    between atoms: C_2  and  C_3 
REMARK    2  A    between atoms: C_3  and  O_6 
REMARK    3  A    between atoms: C_3  and  C_4 
REMARK    4  A    between atoms: C_7  and  O_6 
REMARK    5  A    between atoms: C_9  and  C_10 
REMARK    6  A    between atoms: N_15  and  C_14 
REMARK    7  A    between atoms: N_20  and  C_19 
REMARK       I    between atoms: C_22  and  N_20 
ROOT
ATOM      1  C   LIG d   1      -0.740  91.123 119.598  0.00  0.00     0.161 C 
ATOM      2  C   LIG d   1      -2.026  90.956 119.058  0.00  0.00     0.016 C 
ATOM      3  C   LIG d   1      -2.705  91.965 118.336  0.00  0.00     0.038 C 
ATOM      4  C   LIG d   1      -2.077  93.166 117.973  0.00  0.00     0.028 C 
ATOM      5  C   LIG d   1      -0.961  93.579 118.927  0.00  0.00    -0.047 C 
ATOM      6  C   LIG d   1       0.004  92.387 119.116  0.00  0.00     0.091 C 
ENDROOT
BRANCH   1   7
ATOM      7  O   LIG d   1       0.053  89.947 119.343  0.00  0.00    -0.368 OA
BRANCH   7   8
ATOM      8  C   LIG d   1       0.783  89.929 118.091  0.00  0.00     0.119 C 
BRANCH   8   9
ATOM      9  C   LIG d   1       0.161  88.830 117.209  0.00  0.00     0.028 C 
ATOM     10  C   LIG d   1       1.177  87.742 116.822  0.00  0.00     0.006 C 
ENDBRANCH   8   9
BRANCH   8  11
ATOM     11  C   LIG d   1       2.239  89.505 118.301  0.00  0.00     0.028 C 
ATOM     12  C   LIG d   1       2.618  89.387 119.786  0.00  0.00     0.006 C 
ENDBRANCH   8  11
ENDBRANCH   7   8
ENDBRANCH   1   7
BRANCH   6  13
ATOM     13  N   LIG d   1       1.078  92.678 120.101  0.00  0.00    -0.311 N 
ATOM     14  C   LIG d   1       2.291  93.110 119.757  0.00  0.00     0.210 C 
ATOM     15  C   LIG d   1       3.255  93.329 120.926  0.00  0.00     0.109 C 
ATOM     16  O   LIG d   1       2.648  93.362 118.596  0.00  0.00    -0.276 OA
ATOM     17  H   LIG d   1       0.864  92.530 121.068  0.00  0.00     0.149 HD
ENDBRANCH   6  13
BRANCH   5  18
ATOM     18  N   LIG d   1      -0.305  94.770 118.356  0.00  0.00     0.381 N 
ATOM     19  H   LIG d   1       0.010  94.570 117.427  0.00  0.00    -0.090 HD
ATOM     20  H   LIG d   1       0.496  95.000 118.917  0.00  0.00    -0.090 HD
ATOM     21  H   LIG d   1      -0.941  95.536 118.341  0.00  0.00    -0.090 HD
ENDBRANCH   5  18
BRANCH   3  22
ATOM     22  C   LIG d   1      -4.040  91.793 118.005  0.00  0.00     0.382 C 
ATOM     23  O   LIG d   1      -4.371  90.911 117.176  0.00  0.00    -0.241 OA
ATOM     24  O   LIG d   1      -4.913  92.537 118.490  0.00  0.00    -0.241 OA
ENDBRANCH   3  22
TORSDOF 7
ENDMDL
MODEL 6
REMARK VINA RESULT:      -3.9      2.222      5.378
REMARK  7 active torsions:
REMARK  status: ('A' for Active; 'I' for Inactive)
REMARK    1  A    between atoms: C_2  and  C_3 
REMARK    2  A    between atoms: C_3  and  O_6 
REMARK    3  A    between atoms: C_3  and  C_4 
REMARK    4  A    between atoms: C_7  and  O_6 
REMARK    5  A    between atoms: C_9  and  C_10 
REMARK    6  A    between atoms: N_15  and  C_14 
REMARK    7  A    between atoms: N_20  and  C_19 
REMARK       I    between atoms: C_22  and  N_20 
ROOT
ATOM      1  C   LIG d   1       2.655  90.290 116.070  0.00  0.00     0.161 C 
ATOM      2  C   LIG d   1       3.934  89.839 115.704  0.00  0.00     0.016 C 
ATOM      3  C   LIG d   1       5.122  90.275 116.333  0.00  0.00     0.038 C 
ATOM      4  C   LIG d   1       5.101  91.083 117.480  0.00  0.00     0.028 C 
ATOM      5  C   LIG d   1       3.861  91.966 117.576  0.00  0.00    -0.047 C 
ATOM      6  C   LIG d   1       2.604  91.086 117.391  0.00  0.00     0.091 C 
ENDROOT
BRANCH   1   7
ATOM      7  O   LIG d   1       1.740  89.177 116.120  0.00  0.00    -0.368 OA
BRANCH   7   8
ATOM      8  C   LIG d   1       2.308  87.902 116.509  0.00  0.00     0.119 C 
BRANCH   8   9
ATOM      9  C   LIG d   1       1.661  86.819 115.625  0.00  0.00     0.028 C 
ATOM     10  C   LIG d   1       0.178  86.593 115.964  0.00  0.00     0.006 C 
ENDBRANCH   8   9
BRANCH   8  11
ATOM     11  C   LIG d   1       1.924  87.536 117.946  0.00  0.00     0.028 C 
ATOM     12  C   LIG d   1       3.081  87.728 118.939  0.00  0.00     0.006 C 
ENDBRANCH   8  11
ENDBRANCH   7   8
ENDBRANCH   1   7
BRANCH   6  13
ATOM     13  N   LIG d   1       1.350  91.884 117.388  0.00  0.00    -0.311 N 
ATOM     14  C   LIG d   1       0.339  91.664 118.227  0.00  0.00     0.210 C 
ATOM     15  C   LIG d   1      -0.869  92.588 118.039  0.00  0.00     0.109 C 
ATOM     16  O   LIG d   1       0.340  90.814 119.129  0.00  0.00    -0.276 OA
ATOM     17  H   LIG d   1       1.276  92.615 116.708  0.00  0.00     0.149 HD
ENDBRANCH   6  13
BRANCH   5  18
ATOM     18  N   LIG d   1       3.902  92.650 118.882  0.00  0.00     0.381 N 
ATOM     19  H   LIG d   1       3.648  92.010 119.608  0.00  0.00    -0.090 HD
ATOM     20  H   LIG d   1       3.234  93.401 118.876  0.00  0.00    -0.090 HD
ATOM     21  H   LIG d   1       4.815  93.010 119.050  0.00  0.00    -0.090 HD
ENDBRANCH   5  18
BRANCH   3  22
ATOM     22  C   LIG d   1       6.352  89.934 115.791  0.00  0.00     0.382 C 
ATOM     23  O   LIG d   1       6.413  89.434 114.641  0.00  0.00    -0.241 OA
ATOM     24  O   LIG d   1       7.397  90.079 116.453  0.00  0.00    -0.241 OA
ENDBRANCH   3  22
TORSDOF 7
ENDMDL
MODEL 7
REMARK VINA RESULT:      -3.8      3.274      6.935
REMARK  7 active torsions:
REMARK  status: ('A' for Active; 'I' for Inactive)
REMARK    1  A    between atoms: C_2  and  C_3 
REMARK    2  A    between atoms: C_3  and  O_6 
REMARK    3  A    between atoms: C_3  and  C_4 
REMARK    4  A    between atoms: C_7  and  O_6 
REMARK    5  A    between atoms: C_9  and  C_10 
REMARK    6  A    between atoms: N_15  and  C_14 
REMARK    7  A    between atoms: N_20  and  C_19 
REMARK       I    between atoms: C_22  and  N_20 
ROOT
ATOM      1  C   LIG d   1       4.110  89.698 116.860  0.00  0.00     0.161 C 
ATOM      2  C   LIG d   1       5.011  90.565 117.501  0.00  0.00     0.016 C 
ATOM      3  C   LIG d   1       6.387  90.633 117.182  0.00  0.00     0.038 C 
ATOM      4  C   LIG d   1       6.930  89.939 116.090  0.00  0.00     0.028 C 
ATOM      5  C   LIG d   1       6.162  88.670 115.736  0.00  0.00    -0.047 C 
ATOM      6  C   LIG d   1       4.662  89.014 115.592  0.00  0.00     0.091 C 
ENDROOT
BRANCH   1   7
ATOM      7  O   LIG d   1       2.887  90.398 116.561  0.00  0.00    -0.368 OA
BRANCH   7   8
ATOM      8  C   LIG d   1       1.890  90.417 117.612  0.00  0.00     0.119 C 
BRANCH   8   9
ATOM      9  C   LIG d   1       0.838  89.343 117.272  0.00  0.00     0.028 C 
ATOM     10  C   LIG d   1      -0.599  89.828 117.525  0.00  0.00     0.006 C 
ENDBRANCH   8   9
BRANCH   8  11
ATOM     11  C   LIG d   1       1.124  91.743 117.629  0.00  0.00     0.028 C 
ATOM     12  C   LIG d   1       2.033  92.952 117.901  0.00  0.00     0.006 C 
ENDBRANCH   8  11
ENDBRANCH   7   8
ENDBRANCH   1   7
BRANCH   6  13
ATOM     13  N   LIG d   1       3.828  87.813 115.329  0.00  0.00    -0.311 N 
ATOM     14  C   LIG d   1       2.984  87.717 114.303  0.00  0.00     0.210 C 
ATOM     15  C   LIG d   1       2.205  86.400 114.227  0.00  0.00     0.109 C 
ATOM     16  O   LIG d   1       2.829  88.585 113.430  0.00  0.00    -0.276 OA
ATOM     17  H   LIG d   1       3.913  87.049 115.970  0.00  0.00     0.149 HD
ENDBRANCH   6  13
BRANCH   5  18
ATOM     18  N   LIG d   1       6.752  88.123 114.499  0.00  0.00     0.381 N 
ATOM     19  H   LIG d   1       7.450  88.749 114.151  0.00  0.00    -0.090 HD
ATOM     20  H   LIG d   1       6.030  88.038 113.806  0.00  0.00    -0.090 HD
ATOM     21  H   LIG d   1       7.156  87.231 114.680  0.00  0.00    -0.090 HD
ENDBRANCH   5  18
BRANCH   3  22
ATOM     22  C   LIG d   1       7.243  91.370 117.986  0.00  0.00     0.382 C 
ATOM     23  O   LIG d   1       6.779  92.228 118.775  0.00  0.00    -0.241 OA
ATOM     24  O   LIG d   1       8.476  91.220 117.899  0.00  0.00    -0.241 OA
ENDBRANCH   3  22
TORSDOF 7
ENDMDL
MODEL 8
REMARK VINA RESULT:      -3.8      2.631      4.714
REMARK  7 active torsions:
REMARK  status: ('A' for Active; 'I' for Inactive)
REMARK    1  A    between atoms: C_2  and  C_3 
REMARK    2  A    between atoms: C_3  and  O_6 
REMARK    3  A    between atoms: C_3  and  C_4 
REMARK    4  A    between atoms: C_7  and  O_6 
REMARK    5  A    between atoms: C_9  and  C_10 
REMARK    6  A    between atoms: N_15  and  C_14 
REMARK    7  A    between atoms: N_20  and  C_19 
REMARK       I    between atoms: C_22  and  N_20 
ROOT
ATOM      1  C   LIG d   1       2.795  90.333 115.982  0.00  0.00     0.161 C 
ATOM      2  C   LIG d   1       1.670  90.538 116.797  0.00  0.00     0.016 C 
ATOM      3  C   LIG d   1       0.945  89.485 117.402  0.00  0.00     0.038 C 
ATOM      4  C   LIG d   1       1.391  88.156 117.355  0.00  0.00     0.028 C 
ATOM      5  C   LIG d   1       2.237  87.843 116.126  0.00  0.00    -0.047 C 
ATOM      6  C   LIG d   1       3.362  88.898 116.010  0.00  0.00     0.091 C 
ENDROOT
BRANCH   1   7
ATOM      7  O   LIG d   1       3.824  91.284 116.321  0.00  0.00    -0.368 OA
BRANCH   7   8
ATOM      8  C   LIG d   1       3.940  91.624 117.725  0.00  0.00     0.119 C 
BRANCH   8   9
ATOM      9  C   LIG d   1       3.941  93.161 117.831  0.00  0.00     0.028 C 
ATOM     10  C   LIG d   1       5.108  93.690 118.681  0.00  0.00     0.006 C 
ENDBRANCH   8   9
BRANCH   8  11
ATOM     11  C   LIG d   1       5.289  91.177 118.296  0.00  0.00     0.028 C 
ATOM     12  C   LIG d   1       5.187  89.889 119.128  0.00  0.00     0.006 C 
ENDBRANCH   8  11
ENDBRANCH   7   8
ENDBRANCH   1   7
BRANCH   6  13
ATOM     13  N   LIG d   1       4.186  88.716 114.787  0.00  0.00    -0.311 N 
ATOM     14  C   LIG d   1       5.515  88.632 114.805  0.00  0.00     0.210 C 
ATOM     15  C   LIG d   1       6.171  88.465 113.430  0.00  0.00     0.109 C 
ATOM     16  O   LIG d   1       6.212  88.648 115.831  0.00  0.00    -0.276 OA
ATOM     17  H   LIG d   1       3.700  88.662 113.913  0.00  0.00     0.149 HD
ENDBRANCH   6  13
BRANCH   5  18
ATOM     18  N   LIG d   1       2.748  86.468 116.274  0.00  0.00     0.381 N 
ATOM     19  H   LIG d   1       3.692  86.490 116.606  0.00  0.00    -0.090 HD
ATOM     20  H   LIG d   1       2.741  86.019 115.375  0.00  0.00    -0.090 HD
ATOM     21  H   LIG d   1       2.176  85.958 116.912  0.00  0.00    -0.090 HD
ENDBRANCH   5  18
BRANCH   3  22
ATOM     22  C   LIG d   1      -0.262  89.753 118.030  0.00  0.00     0.382 C 
ATOM     23  O   LIG d   1      -1.334  89.330 117.535  0.00  0.00    -0.241 OA
ATOM     24  O   LIG d   1      -0.296  90.451 119.061  0.00  0.00    -0.241 OA
ENDBRANCH   3  22
TORSDOF 7
ENDMDL
MODEL 9
REMARK VINA RESULT:      -3.8      2.348      4.766
REMARK  7 active torsions:
REMARK  status: ('A' for Active; 'I' for Inactive)
REMARK    1  A    between atoms: C_2  and  C_3 
REMARK    2  A    between atoms: C_3  and  O_6 
REMARK    3  A    between atoms: C_3  and  C_4 
REMARK    4  A    between atoms: C_7  and  O_6 
REMARK    5  A    between atoms: C_9  and  C_10 
REMARK    6  A    between atoms: N_15  and  C_14 
REMARK    7  A    between atoms: N_20  and  C_19 
REMARK       I    between atoms: C_22  and  N_20 
ROOT
ATOM      1  C   LIG d   1       2.382  92.393 117.960  0.00  0.00     0.161 C 
ATOM      2  C   LIG d   1       1.712  93.462 118.578  0.00  0.00     0.016 C 
ATOM      3  C   LIG d   1       0.305  93.530 118.704  0.00  0.00     0.038 C 
ATOM      4  C   LIG d   1      -0.524  92.454 118.351  0.00  0.00     0.028 C 
ATOM      5  C   LIG d   1       0.067  91.566 117.261  0.00  0.00    -0.047 C 
ATOM      6  C   LIG d   1       1.501  91.159 117.668  0.00  0.00     0.091 C 
ENDROOT
BRANCH   1   7
ATOM      7  O   LIG d   1       3.529  92.015 118.746  0.00  0.00    -0.368 OA
BRANCH   7   8
ATOM      8  C   LIG d   1       4.823  92.364 118.193  0.00  0.00     0.119 C 
BRANCH   8   9
ATOM      9  C   LIG d   1       5.541  91.049 117.831  0.00  0.00     0.028 C 
ATOM     10  C   LIG d   1       5.180  89.901 118.789  0.00  0.00     0.006 C 
ENDBRANCH   8   9
BRANCH   8  11
ATOM     11  C   LIG d   1       5.713  93.037 119.242  0.00  0.00     0.028 C 
ATOM     12  C   LIG d   1       6.203  94.426 118.804  0.00  0.00     0.006 C 
ENDBRANCH   8  11
ENDBRANCH   7   8
ENDBRANCH   1   7
BRANCH   6  13
ATOM     13  N   LIG d   1       2.183  90.358 116.618  0.00  0.00    -0.311 N 
ATOM     14  C   LIG d   1       2.251  89.028 116.639  0.00  0.00     0.210 C 
ATOM     15  C   LIG d   1       3.017  88.402 115.470  0.00  0.00     0.109 C 
ATOM     16  O   LIG d   1       1.722  88.307 117.498  0.00  0.00    -0.276 OA
ATOM     17  H   LIG d   1       2.613  90.862 115.868  0.00  0.00     0.149 HD
ENDBRANCH   6  13
BRANCH   5  18
ATOM     18  N   LIG d   1      -0.835  90.412 117.090  0.00  0.00     0.381 N 
ATOM     19  H   LIG d   1      -0.306  89.606 116.821  0.00  0.00    -0.090 HD
ATOM     20  H   LIG d   1      -1.491  90.617 116.357  0.00  0.00    -0.090 HD
ATOM     21  H   LIG d   1      -1.322  90.230 117.940  0.00  0.00    -0.090 HD
ENDBRANCH   5  18
BRANCH   3  22
ATOM     22  C   LIG d   1      -0.289  94.700 119.151  0.00  0.00     0.382 C 
ATOM     23  O   LIG d   1      -1.042  95.352 118.388  0.00  0.00    -0.241 OA
ATOM     24  O   LIG d   1      -0.047  95.136 120.292  0.00  0.00    -0.241 OA
ENDBRANCH   3  22
TORSDOF 7
ENDMDL
