MODEL 1
REMARK VINA RESULT:      -6.0      0.000      0.000
REMARK  7 active torsions:
REMARK  status: ('A' for Active; 'I' for Inactive)
REMARK    1  A    between atoms: C_2  and  C_3 
REMARK    2  A    between atoms: C_3  and  O_6 
REMARK    3  A    between atoms: C_3  and  C_4 
REMARK    4  A    between atoms: C_7  and  O_6 
REMARK    5  A    between atoms: C_9  and  C_10 
REMARK    6  A    between atoms: N_15  and  C_14 
REMARK    7  A    between atoms: N_20  and  C_19 
REMARK       I    between atoms: C_22  and  N_20 
ROOT
ATOM      1  C   LIG d   1       1.727  81.900 111.762  0.00  0.00     0.161 C 
ATOM      2  C   LIG d   1       2.657  82.331 110.802  0.00  0.00     0.016 C 
ATOM      3  C   LIG d   1       2.571  81.998 109.431  0.00  0.00     0.038 C 
ATOM      4  C   LIG d   1       1.457  81.332 108.898  0.00  0.00     0.028 C 
ATOM      5  C   LIG d   1       0.743  80.441 109.909  0.00  0.00    -0.047 C 
ATOM      6  C   LIG d   1       0.445  81.266 111.182  0.00  0.00     0.091 C 
ENDROOT
BRANCH   1   7
ATOM      7  O   LIG d   1       1.392  82.991 112.642  0.00  0.00    -0.368 OA
BRANCH   7   8
ATOM      8  C   LIG d   1       1.301  84.300 112.028  0.00  0.00     0.119 C 
BRANCH   8   9
ATOM      9  C   LIG d   1       2.079  85.285 112.922  0.00  0.00     0.028 C 
ATOM     10  C   LIG d   1       3.354  85.813 112.243  0.00  0.00     0.006 C 
ENDBRANCH   8   9
BRANCH   8  11
ATOM     11  C   LIG d   1      -0.141  84.813 112.020  0.00  0.00     0.028 C 
ATOM     12  C   LIG d   1      -0.629  85.198 110.614  0.00  0.00     0.006 C 
ENDBRANCH   8  11
ENDBRANCH   7   8
ENDBRANCH   1   7
BRANCH   6  13
ATOM     13  N   LIG d   1      -0.177  80.447 112.255  0.00  0.00    -0.311 N 
ATOM     14  C   LIG d   1      -1.298  80.794 112.885  0.00  0.00     0.210 C 
ATOM     15  C   LIG d   1      -1.758  79.818 113.972  0.00  0.00     0.109 C 
ATOM     16  O   LIG d   1      -1.974  81.801 112.624  0.00  0.00    -0.276 OA
ATOM     17  H   LIG d   1       0.288  79.597 112.508  0.00  0.00     0.149 HD
ENDBRANCH   6  13
BRANCH   5  18
ATOM     18  N   LIG d   1      -0.474  79.918 109.261  0.00  0.00     0.381 N 
ATOM     19  H   LIG d   1      -0.222  79.300 108.515  0.00  0.00    -0.090 HD
ATOM     20  H   LIG d   1      -0.992  80.687 108.873  0.00  0.00    -0.090 HD
ATOM     21  H   LIG d   1      -1.034  79.434 109.927  0.00  0.00    -0.090 HD
ENDBRANCH   5  18
BRANCH   3  22
ATOM     22  C   LIG d   1       3.627  82.297 108.583  0.00  0.00     0.382 C 
ATOM     23  O   LIG d   1       4.806  82.249 109.009  0.00  0.00    -0.241 OA
ATOM     24  O   LIG d   1       3.413  82.658 107.410  0.00  0.00    -0.241 OA
ENDBRANCH   3  22
TORSDOF 7
ENDMDL
MODEL 2
REMARK VINA RESULT:      -6.0      0.943      1.329
REMARK  7 active torsions:
REMARK  status: ('A' for Active; 'I' for Inactive)
REMARK    1  A    between atoms: C_2  and  C_3 
REMARK    2  A    between atoms: C_3  and  O_6 
REMARK    3  A    between atoms: C_3  and  C_4 
REMARK    4  A    between atoms: C_7  and  O_6 
REMARK    5  A    between atoms: C_9  and  C_10 
REMARK    6  A    between atoms: N_15  and  C_14 
REMARK    7  A    between atoms: N_20  and  C_19 
REMARK       I    between atoms: C_22  and  N_20 
ROOT
ATOM      1  C   LIG d   1       1.239  81.855 112.108  0.00  0.00     0.161 C 
ATOM      2  C   LIG d   1       2.173  82.425 111.227  0.00  0.00     0.016 C 
ATOM      3  C   LIG d   1       2.227  82.121 109.847  0.00  0.00     0.038 C 
ATOM      4  C   LIG d   1       1.247  81.336 109.221  0.00  0.00     0.028 C 
ATOM      5  C   LIG d   1       0.582  80.336 110.161  0.00  0.00    -0.047 C 
ATOM      6  C   LIG d   1       0.092  81.082 111.423  0.00  0.00     0.091 C 
ENDROOT
BRANCH   1   7
ATOM      7  O   LIG d   1       0.707  82.871 112.980  0.00  0.00    -0.368 OA
BRANCH   7   8
ATOM      8  C   LIG d   1       0.718  84.225 112.463  0.00  0.00     0.119 C 
BRANCH   8   9
ATOM      9  C   LIG d   1       0.824  85.180 113.667  0.00  0.00     0.028 C 
ATOM     10  C   LIG d   1      -0.552  85.650 114.168  0.00  0.00     0.006 C 
ENDBRANCH   8   9
BRANCH   8  11
ATOM     11  C   LIG d   1      -0.611  84.573 111.786  0.00  0.00     0.028 C 
ATOM     12  C   LIG d   1      -0.428  85.137 110.368  0.00  0.00     0.006 C 
ENDBRANCH   8  11
ENDBRANCH   7   8
ENDBRANCH   1   7
BRANCH   6  13
ATOM     13  N   LIG d   1      -0.496  80.163 112.432  0.00  0.00    -0.311 N 
ATOM     14  C   LIG d   1      -1.650  80.399 113.053  0.00  0.00     0.210 C 
ATOM     15  C   LIG d   1      -2.066  79.333 114.072  0.00  0.00     0.109 C 
ATOM     16  O   LIG d   1      -2.386  81.373 112.834  0.00  0.00    -0.276 OA
ATOM     17  H   LIG d   1       0.019  79.332 112.648  0.00  0.00     0.149 HD
ENDBRANCH   6  13
BRANCH   5  18
ATOM     18  N   LIG d   1      -0.511  79.683 109.415  0.00  0.00     0.381 N 
ATOM     19  H   LIG d   1      -0.660  78.760 109.771  0.00  0.00    -0.090 HD
ATOM     20  H   LIG d   1      -0.245  79.609 108.449  0.00  0.00    -0.090 HD
ATOM     21  H   LIG d   1      -1.347  80.218 109.497  0.00  0.00    -0.090 HD
ENDBRANCH   5  18
BRANCH   3  22
ATOM     22  C   LIG d   1       3.294  82.573 109.085  0.00  0.00     0.382 C 
ATOM     23  O   LIG d   1       3.342  82.316 107.858  0.00  0.00    -0.241 OA
ATOM     24  O   LIG d   1       4.232  83.196 109.618  0.00  0.00    -0.241 OA
ENDBRANCH   3  22
TORSDOF 7
ENDMDL
MODEL 3
REMARK VINA RESULT:      -5.9      1.115      1.509
REMARK  7 active torsions:
REMARK  status: ('A' for Active; 'I' for Inactive)
REMARK    1  A    between atoms: C_2  and  C_3 
REMARK    2  A    between atoms: C_3  and  O_6 
REMARK    3  A    between atoms: C_3  and  C_4 
REMARK    4  A    between atoms: C_7  and  O_6 
REMARK    5  A    between atoms: C_9  and  C_10 
REMARK    6  A    between atoms: N_15  and  C_14 
REMARK    7  A    between atoms: N_20  and  C_19 
REMARK       I    between atoms: C_22  and  N_20 
ROOT
ATOM      1  C   LIG d   1       1.583  82.092 111.796  0.00  0.00     0.161 C 
ATOM      2  C   LIG d   1       2.305  82.501 110.662  0.00  0.00     0.016 C 
ATOM      3  C   LIG d   1       2.063  81.999 109.363  0.00  0.00     0.038 C 
ATOM      4  C   LIG d   1       0.974  81.161 109.082  0.00  0.00     0.028 C 
ATOM      5  C   LIG d   1       0.529  80.326 110.279  0.00  0.00    -0.047 C 
ATOM      6  C   LIG d   1       0.318  81.261 111.492  0.00  0.00     0.091 C 
ENDROOT
BRANCH   1   7
ATOM      7  O   LIG d   1       1.247  83.239 112.601  0.00  0.00    -0.368 OA
BRANCH   7   8
ATOM      8  C   LIG d   1      -0.042  83.847 112.339  0.00  0.00     0.119 C 
BRANCH   8   9
ATOM      9  C   LIG d   1       0.215  85.189 111.627  0.00  0.00     0.028 C 
ATOM     10  C   LIG d   1      -0.264  85.180 110.166  0.00  0.00     0.006 C 
ENDBRANCH   8   9
BRANCH   8  11
ATOM     11  C   LIG d   1      -0.762  84.209 113.641  0.00  0.00     0.028 C 
ATOM     12  C   LIG d   1      -0.877  85.727 113.856  0.00  0.00     0.006 C 
ENDBRANCH   8  11
ENDBRANCH   7   8
ENDBRANCH   1   7
BRANCH   6  13
ATOM     13  N   LIG d   1      -0.037  80.515 112.727  0.00  0.00    -0.311 N 
ATOM     14  C   LIG d   1      -1.287  80.379 113.166  0.00  0.00     0.210 C 
ATOM     15  C   LIG d   1      -1.431  79.589 114.471  0.00  0.00     0.109 C 
ATOM     16  O   LIG d   1      -2.293  80.809 112.583  0.00  0.00    -0.276 OA
ATOM     17  H   LIG d   1       0.715  80.107 113.246  0.00  0.00     0.149 HD
ENDBRANCH   6  13
BRANCH   5  18
ATOM     18  N   LIG d   1      -0.696  79.604 109.886  0.00  0.00     0.381 N 
ATOM     19  H   LIG d   1      -0.462  78.849 109.272  0.00  0.00    -0.090 HD
ATOM     20  H   LIG d   1      -1.303  80.235 109.394  0.00  0.00    -0.090 HD
ATOM     21  H   LIG d   1      -1.158  79.251 110.696  0.00  0.00    -0.090 HD
ENDBRANCH   5  18
BRANCH   3  22
ATOM     22  C   LIG d   1       2.941  82.306 108.334  0.00  0.00     0.382 C 
ATOM     23  O   LIG d   1       4.098  81.821 108.332  0.00  0.00    -0.241 OA
ATOM     24  O   LIG d   1       2.605  83.095 107.431  0.00  0.00    -0.241 OA
ENDBRANCH   3  22
TORSDOF 7
ENDMDL
MODEL 4
REMARK VINA RESULT:      -5.8      2.639      3.912
REMARK  7 active torsions:
REMARK  status: ('A' for Active; 'I' for Inactive)
REMARK    1  A    between atoms: C_2  and  C_3 
REMARK    2  A    between atoms: C_3  and  O_6 
REMARK    3  A    between atoms: C_3  and  C_4 
REMARK    4  A    between atoms: C_7  and  O_6 
REMARK    5  A    between atoms: C_9  and  C_10 
REMARK    6  A    between atoms: N_15  and  C_14 
REMARK    7  A    between atoms: N_20  and  C_19 
REMARK       I    between atoms: C_22  and  N_20 
ROOT
ATOM      1  C   LIG d   1       2.798  84.690 111.791  0.00  0.00     0.161 C 
ATOM      2  C   LIG d   1       3.569  84.000 110.841  0.00  0.00     0.016 C 
ATOM      3  C   LIG d   1       3.012  83.164 109.846  0.00  0.00     0.038 C 
ATOM      4  C   LIG d   1       1.627  83.081 109.637  0.00  0.00     0.028 C 
ATOM      5  C   LIG d   1       0.808  83.364 110.891  0.00  0.00    -0.047 C 
ATOM      6  C   LIG d   1       1.281  84.699 111.509  0.00  0.00     0.091 C 
ENDROOT
BRANCH   1   7
ATOM      7  O   LIG d   1       3.289  86.038 111.933  0.00  0.00    -0.368 OA
BRANCH   7   8
ATOM      8  C   LIG d   1       4.359  86.229 112.891  0.00  0.00     0.119 C 
BRANCH   8   9
ATOM      9  C   LIG d   1       3.793  85.903 114.287  0.00  0.00     0.028 C 
ATOM     10  C   LIG d   1       4.452  84.661 114.912  0.00  0.00     0.006 C 
ENDBRANCH   8   9
BRANCH   8  11
ATOM     11  C   LIG d   1       4.790  87.697 112.961  0.00  0.00     0.028 C 
ATOM     12  C   LIG d   1       5.469  88.056 114.292  0.00  0.00     0.006 C 
ENDBRANCH   8  11
ENDBRANCH   7   8
ENDBRANCH   1   7
BRANCH   6  13
ATOM     13  N   LIG d   1       0.588  85.010 112.787  0.00  0.00    -0.311 N 
ATOM     14  C   LIG d   1      -0.492  85.785 112.866  0.00  0.00     0.210 C 
ATOM     15  C   LIG d   1      -1.037  85.992 114.282  0.00  0.00     0.109 C 
ATOM     16  O   LIG d   1      -1.069  86.296 111.894  0.00  0.00    -0.276 OA
ATOM     17  H   LIG d   1       0.971  84.611 113.622  0.00  0.00     0.149 HD
ENDBRANCH   6  13
BRANCH   5  18
ATOM     18  N   LIG d   1      -0.615  83.379 110.500  0.00  0.00     0.381 N 
ATOM     19  H   LIG d   1      -0.721  82.970 109.594  0.00  0.00    -0.090 HD
ATOM     20  H   LIG d   1      -0.929  84.332 110.455  0.00  0.00    -0.090 HD
ATOM     21  H   LIG d   1      -1.157  82.874 111.166  0.00  0.00    -0.090 HD
ENDBRANCH   5  18
BRANCH   3  22
ATOM     22  C   LIG d   1       3.844  82.369 109.072  0.00  0.00     0.382 C 
ATOM     23  O   LIG d   1       3.468  81.987 107.938  0.00  0.00    -0.241 OA
ATOM     24  O   LIG d   1       4.947  81.993 109.512  0.00  0.00    -0.241 OA
ENDBRANCH   3  22
TORSDOF 7
ENDMDL
MODEL 5
REMARK VINA RESULT:      -5.7      2.383      5.673
REMARK  7 active torsions:
REMARK  status: ('A' for Active; 'I' for Inactive)
REMARK    1  A    between atoms: C_2  and  C_3 
REMARK    2  A    between atoms: C_3  and  O_6 
REMARK    3  A    between atoms: C_3  and  C_4 
REMARK    4  A    between atoms: C_7  and  O_6 
REMARK    5  A    between atoms: C_9  and  C_10 
REMARK    6  A    between atoms: N_15  and  C_14 
REMARK    7  A    between atoms: N_20  and  C_19 
REMARK       I    between atoms: C_22  and  N_20 
ROOT
ATOM      1  C   LIG d   1       1.094  81.707 111.183  0.00  0.00     0.161 C 
ATOM      2  C   LIG d   1       0.068  80.802 111.501  0.00  0.00     0.016 C 
ATOM      3  C   LIG d   1      -0.803  80.969 112.603  0.00  0.00     0.038 C 
ATOM      4  C   LIG d   1      -0.804  82.139 113.376  0.00  0.00     0.028 C 
ATOM      5  C   LIG d   1       0.546  82.849 113.402  0.00  0.00    -0.047 C 
ATOM      6  C   LIG d   1       1.037  83.044 111.949  0.00  0.00     0.091 C 
ENDROOT
BRANCH   1   7
ATOM      7  O   LIG d   1       1.112  81.944 109.761  0.00  0.00    -0.368 OA
BRANCH   7   8
ATOM      8  C   LIG d   1       2.246  81.404 109.039  0.00  0.00     0.119 C 
BRANCH   8   9
ATOM      9  C   LIG d   1       3.109  80.624 110.050  0.00  0.00     0.028 C 
ATOM     10  C   LIG d   1       3.269  79.144 109.665  0.00  0.00     0.006 C 
ENDBRANCH   8   9
BRANCH   8  11
ATOM     11  C   LIG d   1       3.151  82.520 108.509  0.00  0.00     0.028 C 
ATOM     12  C   LIG d   1       4.542  82.520 109.162  0.00  0.00     0.006 C 
ENDBRANCH   8  11
ENDBRANCH   7   8
ENDBRANCH   1   7
BRANCH   6  13
ATOM     13  N   LIG d   1       2.390  83.656 111.886  0.00  0.00    -0.311 N 
ATOM     14  C   LIG d   1       2.598  84.959 111.704  0.00  0.00     0.210 C 
ATOM     15  C   LIG d   1       4.070  85.378 111.650  0.00  0.00     0.109 C 
ATOM     16  O   LIG d   1       1.702  85.812 111.615  0.00  0.00    -0.276 OA
ATOM     17  H   LIG d   1       3.174  83.041 111.981  0.00  0.00     0.149 HD
ENDBRANCH   6  13
BRANCH   5  18
ATOM     18  N   LIG d   1       0.367  84.120 114.128  0.00  0.00     0.381 N 
ATOM     19  H   LIG d   1      -0.171  84.755 113.573  0.00  0.00    -0.090 HD
ATOM     20  H   LIG d   1       1.270  84.531 114.291  0.00  0.00    -0.090 HD
ATOM     21  H   LIG d   1      -0.092  83.955 114.997  0.00  0.00    -0.090 HD
ENDBRANCH   5  18
BRANCH   3  22
ATOM     22  C   LIG d   1      -1.661  79.941 112.963  0.00  0.00     0.382 C 
ATOM     23  O   LIG d   1      -1.227  78.966 113.624  0.00  0.00    -0.241 OA
ATOM     24  O   LIG d   1      -2.851  79.953 112.598  0.00  0.00    -0.241 OA
ENDBRANCH   3  22
TORSDOF 7
ENDMDL
MODEL 6
REMARK VINA RESULT:      -5.5      2.457      5.025
REMARK  7 active torsions:
REMARK  status: ('A' for Active; 'I' for Inactive)
REMARK    1  A    between atoms: C_2  and  C_3 
REMARK    2  A    between atoms: C_3  and  O_6 
REMARK    3  A    between atoms: C_3  and  C_4 
REMARK    4  A    between atoms: C_7  and  O_6 
REMARK    5  A    between atoms: C_9  and  C_10 
REMARK    6  A    between atoms: N_15  and  C_14 
REMARK    7  A    between atoms: N_20  and  C_19 
REMARK       I    between atoms: C_22  and  N_20 
ROOT
ATOM      1  C   LIG d   1       2.422  84.649 111.190  0.00  0.00     0.161 C 
ATOM      2  C   LIG d   1       1.398  85.527 111.581  0.00  0.00     0.016 C 
ATOM      3  C   LIG d   1       0.028  85.176 111.578  0.00  0.00     0.038 C 
ATOM      4  C   LIG d   1      -0.400  83.864 111.326  0.00  0.00     0.028 C 
ATOM      5  C   LIG d   1       0.555  83.076 110.437  0.00  0.00    -0.047 C 
ATOM      6  C   LIG d   1       1.984  83.180 111.018  0.00  0.00     0.091 C 
ENDROOT
BRANCH   1   7
ATOM      7  O   LIG d   1       3.523  84.738 112.116  0.00  0.00    -0.368 OA
BRANCH   7   8
ATOM      8  C   LIG d   1       3.182  85.094 113.479  0.00  0.00     0.119 C 
BRANCH   8   9
ATOM      9  C   LIG d   1       4.228  86.115 113.966  0.00  0.00     0.028 C 
ATOM     10  C   LIG d   1       4.506  87.213 112.926  0.00  0.00     0.006 C 
ENDBRANCH   8   9
BRANCH   8  11
ATOM     11  C   LIG d   1       3.319  83.893 114.419  0.00  0.00     0.028 C 
ATOM     12  C   LIG d   1       4.353  84.122 115.532  0.00  0.00     0.006 C 
ENDBRANCH   8  11
ENDBRANCH   7   8
ENDBRANCH   1   7
BRANCH   6  13
ATOM     13  N   LIG d   1       2.994  82.506 110.162  0.00  0.00    -0.311 N 
ATOM     14  C   LIG d   1       2.986  82.566 108.831  0.00  0.00     0.210 C 
ATOM     15  C   LIG d   1       4.107  81.783 108.141  0.00  0.00     0.109 C 
ATOM     16  O   LIG d   1       2.175  83.220 108.158  0.00  0.00    -0.276 OA
ATOM     17  H   LIG d   1       3.708  81.979 110.627  0.00  0.00     0.149 HD
ENDBRANCH   6  13
BRANCH   5  18
ATOM     18  N   LIG d   1       0.058  81.688 110.369  0.00  0.00     0.381 N 
ATOM     19  H   LIG d   1      -0.141  81.355 111.291  0.00  0.00    -0.090 HD
ATOM     20  H   LIG d   1       0.773  81.106 109.970  0.00  0.00    -0.090 HD
ATOM     21  H   LIG d   1      -0.764  81.648 109.808  0.00  0.00    -0.090 HD
ENDBRANCH   5  18
BRANCH   3  22
ATOM     22  C   LIG d   1      -0.932  86.153 111.791  0.00  0.00     0.382 C 
ATOM     23  O   LIG d   1      -1.243  86.482 112.962  0.00  0.00    -0.241 OA
ATOM     24  O   LIG d   1      -1.523  86.678 110.829  0.00  0.00    -0.241 OA
ENDBRANCH   3  22
TORSDOF 7
ENDMDL
MODEL 7
REMARK VINA RESULT:      -5.3      2.038      2.913
REMARK  7 active torsions:
REMARK  status: ('A' for Active; 'I' for Inactive)
REMARK    1  A    between atoms: C_2  and  C_3 
REMARK    2  A    between atoms: C_3  and  O_6 
REMARK    3  A    between atoms: C_3  and  C_4 
REMARK    4  A    between atoms: C_7  and  O_6 
REMARK    5  A    between atoms: C_9  and  C_10 
REMARK    6  A    between atoms: N_15  and  C_14 
REMARK    7  A    between atoms: N_20  and  C_19 
REMARK       I    between atoms: C_22  and  N_20 
ROOT
ATOM      1  C   LIG d   1       2.333  83.673 112.007  0.00  0.00     0.161 C 
ATOM      2  C   LIG d   1       2.528  83.775 110.619  0.00  0.00     0.016 C 
ATOM      3  C   LIG d   1       1.950  82.887 109.684  0.00  0.00     0.038 C 
ATOM      4  C   LIG d   1       1.008  81.919 110.065  0.00  0.00     0.028 C 
ATOM      5  C   LIG d   1       1.167  81.454 111.509  0.00  0.00    -0.047 C 
ATOM      6  C   LIG d   1       1.220  82.692 112.432  0.00  0.00     0.091 C 
ENDROOT
BRANCH   1   7
ATOM      7  O   LIG d   1       2.089  84.980 112.564  0.00  0.00    -0.368 OA
BRANCH   7   8
ATOM      8  C   LIG d   1       3.172  85.556 113.334  0.00  0.00     0.119 C 
BRANCH   8   9
ATOM      9  C   LIG d   1       4.022  86.409 112.372  0.00  0.00     0.028 C 
ATOM     10  C   LIG d   1       4.768  87.543 113.096  0.00  0.00     0.006 C 
ENDBRANCH   8   9
BRANCH   8  11
ATOM     11  C   LIG d   1       4.119  84.474 113.860  0.00  0.00     0.028 C 
ATOM     12  C   LIG d   1       4.102  84.361 115.393  0.00  0.00     0.006 C 
ENDBRANCH   8  11
ENDBRANCH   7   8
ENDBRANCH   1   7
BRANCH   6  13
ATOM     13  N   LIG d   1       1.459  82.330 113.854  0.00  0.00    -0.311 N 
ATOM     14  C   LIG d   1       0.487  82.226 114.758  0.00  0.00     0.210 C 
ATOM     15  C   LIG d   1       0.953  81.861 116.170  0.00  0.00     0.109 C 
ATOM     16  O   LIG d   1      -0.721  82.370 114.516  0.00  0.00    -0.276 OA
ATOM     17  H   LIG d   1       2.408  82.165 114.129  0.00  0.00     0.149 HD
ENDBRANCH   6  13
BRANCH   5  18
ATOM     18  N   LIG d   1       0.040  80.553 111.814  0.00  0.00     0.381 N 
ATOM     19  H   LIG d   1       0.199  80.096 112.690  0.00  0.00    -0.090 HD
ATOM     20  H   LIG d   1      -0.017  79.850 111.098  0.00  0.00    -0.090 HD
ATOM     21  H   LIG d   1      -0.810  81.070 111.851  0.00  0.00    -0.090 HD
ENDBRANCH   5  18
BRANCH   3  22
ATOM     22  C   LIG d   1       2.343  82.935 108.356  0.00  0.00     0.382 C 
ATOM     23  O   LIG d   1       1.637  83.541 107.514  0.00  0.00    -0.241 OA
ATOM     24  O   LIG d   1       3.372  82.342 107.980  0.00  0.00    -0.241 OA
ENDBRANCH   3  22
TORSDOF 7
ENDMDL
MODEL 8
REMARK VINA RESULT:      -5.3      2.815      4.981
REMARK  7 active torsions:
REMARK  status: ('A' for Active; 'I' for Inactive)
REMARK    1  A    between atoms: C_2  and  C_3 
REMARK    2  A    between atoms: C_3  and  O_6 
REMARK    3  A    between atoms: C_3  and  C_4 
REMARK    4  A    between atoms: C_7  and  O_6 
REMARK    5  A    between atoms: C_9  and  C_10 
REMARK    6  A    between atoms: N_15  and  C_14 
REMARK    7  A    between atoms: N_20  and  C_19 
REMARK       I    between atoms: C_22  and  N_20 
ROOT
ATOM      1  C   LIG d   1      -0.648  82.256 112.463  0.00  0.00     0.161 C 
ATOM      2  C   LIG d   1      -0.672  83.254 111.475  0.00  0.00     0.016 C 
ATOM      3  C   LIG d   1      -0.468  84.625 111.749  0.00  0.00     0.038 C 
ATOM      4  C   LIG d   1      -0.073  85.077 113.017  0.00  0.00     0.028 C 
ATOM      5  C   LIG d   1      -0.530  84.168 114.153  0.00  0.00    -0.047 C 
ATOM      6  C   LIG d   1      -0.109  82.716 113.834  0.00  0.00     0.091 C 
ENDROOT
BRANCH   1   7
ATOM      7  O   LIG d   1       0.097  81.116 111.989  0.00  0.00    -0.368 OA
BRANCH   7   8
ATOM      8  C   LIG d   1       0.822  81.300 110.748  0.00  0.00     0.119 C 
BRANCH   8   9
ATOM      9  C   LIG d   1       0.556  80.063 109.869  0.00  0.00     0.028 C 
ATOM     10  C   LIG d   1       1.843  79.499 109.245  0.00  0.00     0.006 C 
ENDBRANCH   8   9
BRANCH   8  11
ATOM     11  C   LIG d   1       2.335  81.313 110.984  0.00  0.00     0.028 C 
ATOM     12  C   LIG d   1       2.944  82.720 110.873  0.00  0.00     0.006 C 
ENDBRANCH   8  11
ENDBRANCH   7   8
ENDBRANCH   1   7
BRANCH   6  13
ATOM     13  N   LIG d   1      -0.590  81.749 114.854  0.00  0.00    -0.311 N 
ATOM     14  C   LIG d   1       0.139  81.361 115.899  0.00  0.00     0.210 C 
ATOM     15  C   LIG d   1      -0.540  80.342 116.819  0.00  0.00     0.109 C 
ATOM     16  O   LIG d   1       1.271  81.790 116.169  0.00  0.00    -0.276 OA
ATOM     17  H   LIG d   1      -1.511  81.375 114.730  0.00  0.00     0.149 HD
ENDBRANCH   6  13
BRANCH   5  18
ATOM     18  N   LIG d   1       0.065  84.682 115.402  0.00  0.00     0.381 N 
ATOM     19  H   LIG d   1      -0.643  84.773 116.102  0.00  0.00    -0.090 HD
ATOM     20  H   LIG d   1       0.455  85.591 115.226  0.00  0.00    -0.090 HD
ATOM     21  H   LIG d   1       0.779  84.063 115.719  0.00  0.00    -0.090 HD
ENDBRANCH   5  18
BRANCH   3  22
ATOM     22  C   LIG d   1      -0.698  85.566 110.757  0.00  0.00     0.382 C 
ATOM     23  O   LIG d   1      -1.353  86.604 111.017  0.00  0.00    -0.241 OA
ATOM     24  O   LIG d   1      -0.297  85.369 109.594  0.00  0.00    -0.241 OA
ENDBRANCH   3  22
TORSDOF 7
ENDMDL
MODEL 9
REMARK VINA RESULT:      -5.3      2.260      4.542
REMARK  7 active torsions:
REMARK  status: ('A' for Active; 'I' for Inactive)
REMARK    1  A    between atoms: C_2  and  C_3 
REMARK    2  A    between atoms: C_3  and  O_6 
REMARK    3  A    between atoms: C_3  and  C_4 
REMARK    4  A    between atoms: C_7  and  O_6 
REMARK    5  A    between atoms: C_9  and  C_10 
REMARK    6  A    between atoms: N_15  and  C_14 
REMARK    7  A    between atoms: N_20  and  C_19 
REMARK       I    between atoms: C_22  and  N_20 
ROOT
ATOM      1  C   LIG d   1       0.193  81.681 111.445  0.00  0.00     0.161 C 
ATOM      2  C   LIG d   1       0.145  82.804 110.603  0.00  0.00     0.016 C 
ATOM      3  C   LIG d   1      -0.087  84.118 111.071  0.00  0.00     0.038 C 
ATOM      4  C   LIG d   1      -0.136  84.420 112.440  0.00  0.00     0.028 C 
ATOM      5  C   LIG d   1      -0.596  83.249 113.302  0.00  0.00    -0.047 C 
ATOM      6  C   LIG d   1       0.252  82.005 112.952  0.00  0.00     0.091 C 
ENDROOT
BRANCH   1   7
ATOM      7  O   LIG d   1       1.299  80.836 111.070  0.00  0.00    -0.368 OA
BRANCH   7   8
ATOM      8  C   LIG d   1       1.838  81.044 109.741  0.00  0.00     0.119 C 
BRANCH   8   9
ATOM      9  C   LIG d   1       1.591  79.754 108.935  0.00  0.00     0.028 C 
ATOM     10  C   LIG d   1       2.590  78.640 109.289  0.00  0.00     0.006 C 
ENDBRANCH   8   9
BRANCH   8  11
ATOM     11  C   LIG d   1       3.360  81.214 109.777  0.00  0.00     0.028 C 
ATOM     12  C   LIG d   1       3.891  82.064 108.612  0.00  0.00     0.006 C 
ENDBRANCH   8  11
ENDBRANCH   7   8
ENDBRANCH   1   7
BRANCH   6  13
ATOM     13  N   LIG d   1      -0.188  80.792 113.691  0.00  0.00    -0.311 N 
ATOM     14  C   LIG d   1      -1.414  80.281 113.594  0.00  0.00     0.210 C 
ATOM     15  C   LIG d   1      -1.666  79.039 114.455  0.00  0.00     0.109 C 
ATOM     16  O   LIG d   1      -2.307  80.718 112.853  0.00  0.00    -0.276 OA
ATOM     17  H   LIG d   1       0.483  80.355 114.291  0.00  0.00     0.149 HD
ENDBRANCH   6  13
BRANCH   5  18
ATOM     18  N   LIG d   1      -0.469  83.657 114.713  0.00  0.00     0.381 N 
ATOM     19  H   LIG d   1       0.497  83.676 114.975  0.00  0.00    -0.090 HD
ATOM     20  H   LIG d   1      -0.939  82.983 115.291  0.00  0.00    -0.090 HD
ATOM     21  H   LIG d   1      -0.873  84.558 114.845  0.00  0.00    -0.090 HD
ENDBRANCH   5  18
BRANCH   3  22
ATOM     22  C   LIG d   1      -0.312  85.141 110.162  0.00  0.00     0.382 C 
ATOM     23  O   LIG d   1       0.386  85.222 109.123  0.00  0.00    -0.241 OA
ATOM     24  O   LIG d   1      -1.174  86.010 110.391  0.00  0.00    -0.241 OA
ENDBRANCH   3  22
TORSDOF 7
ENDMDL
