MODEL 1
REMARK VINA RESULT:      -6.4      0.000      0.000
REMARK  7 active torsions:
REMARK  status: ('A' for Active; 'I' for Inactive)
REMARK    1  A    between atoms: C_2  and  C_3 
REMARK    2  A    between atoms: C_3  and  O_6 
REMARK    3  A    between atoms: C_3  and  C_4 
REMARK    4  A    between atoms: C_7  and  O_6 
REMARK    5  A    between atoms: C_9  and  C_10 
REMARK    6  A    between atoms: N_15  and  C_14 
REMARK    7  A    between atoms: N_20  and  C_19 
REMARK       I    between atoms: C_22  and  N_20 
ROOT
ATOM      1  C   LIG d   1       2.566  83.921 111.344  0.00  0.00     0.161 C 
ATOM      2  C   LIG d   1       1.600  84.920 111.555  0.00  0.00     0.016 C 
ATOM      3  C   LIG d   1       0.249  84.789 111.162  0.00  0.00     0.038 C 
ATOM      4  C   LIG d   1      -0.266  83.583 110.664  0.00  0.00     0.028 C 
ATOM      5  C   LIG d   1       0.780  82.720 109.967  0.00  0.00    -0.047 C 
ATOM      6  C   LIG d   1       1.999  82.556 110.904  0.00  0.00     0.091 C 
ENDROOT
BRANCH   1   7
ATOM      7  O   LIG d   1       3.377  83.769 112.526  0.00  0.00    -0.368 OA
BRANCH   7   8
ATOM      8  C   LIG d   1       3.436  84.915 113.411  0.00  0.00     0.119 C 
BRANCH   8   9
ATOM      9  C   LIG d   1       4.851  85.515 113.299  0.00  0.00     0.028 C 
ATOM     10  C   LIG d   1       4.826  87.029 113.027  0.00  0.00     0.006 C 
ENDBRANCH   8   9
BRANCH   8  11
ATOM     11  C   LIG d   1       3.288  84.496 114.876  0.00  0.00     0.028 C 
ATOM     12  C   LIG d   1       4.641  84.326 115.586  0.00  0.00     0.006 C 
ENDBRANCH   8  11
ENDBRANCH   7   8
ENDBRANCH   1   7
BRANCH   6  13
ATOM     13  N   LIG d   1       3.105  81.794 110.266  0.00  0.00    -0.311 N 
ATOM     14  C   LIG d   1       3.153  80.464 110.229  0.00  0.00     0.210 C 
ATOM     15  C   LIG d   1       4.391  79.880 109.541  0.00  0.00     0.109 C 
ATOM     16  O   LIG d   1       2.273  79.712 110.673  0.00  0.00    -0.276 OA
ATOM     17  H   LIG d   1       3.847  82.326 109.854  0.00  0.00     0.149 HD
ENDBRANCH   6  13
BRANCH   5  18
ATOM     18  N   LIG d   1       0.141  81.437 109.621  0.00  0.00     0.381 N 
ATOM     19  H   LIG d   1       0.756  80.895 109.047  0.00  0.00    -0.090 HD
ATOM     20  H   LIG d   1      -0.697  81.622 109.097  0.00  0.00    -0.090 HD
ATOM     21  H   LIG d   1      -0.082  80.932 110.450  0.00  0.00    -0.090 HD
ENDBRANCH   5  18
BRANCH   3  22
ATOM     22  C   LIG d   1      -0.595  85.888 111.228  0.00  0.00     0.382 C 
ATOM     23  O   LIG d   1      -0.883  86.390 112.341  0.00  0.00    -0.241 OA
ATOM     24  O   LIG d   1      -1.107  86.355 110.193  0.00  0.00    -0.241 OA
ENDBRANCH   3  22
TORSDOF 7
ENDMDL
MODEL 2
REMARK VINA RESULT:      -6.2      2.925      6.327
REMARK  7 active torsions:
REMARK  status: ('A' for Active; 'I' for Inactive)
REMARK    1  A    between atoms: C_2  and  C_3 
REMARK    2  A    between atoms: C_3  and  O_6 
REMARK    3  A    between atoms: C_3  and  C_4 
REMARK    4  A    between atoms: C_7  and  O_6 
REMARK    5  A    between atoms: C_9  and  C_10 
REMARK    6  A    between atoms: N_15  and  C_14 
REMARK    7  A    between atoms: N_20  and  C_19 
REMARK       I    between atoms: C_22  and  N_20 
ROOT
ATOM      1  C   LIG d   1       0.515  81.456 110.008  0.00  0.00     0.161 C 
ATOM      2  C   LIG d   1       1.362  80.336 109.959  0.00  0.00     0.016 C 
ATOM      3  C   LIG d   1       2.772  80.429 109.906  0.00  0.00     0.038 C 
ATOM      4  C   LIG d   1       3.440  81.653 110.053  0.00  0.00     0.028 C 
ATOM      5  C   LIG d   1       2.615  82.852 109.598  0.00  0.00    -0.047 C 
ATOM      6  C   LIG d   1       1.229  82.796 110.281  0.00  0.00     0.091 C 
ENDROOT
BRANCH   1   7
ATOM      7  O   LIG d   1      -0.528  81.238 110.979  0.00  0.00    -0.368 OA
BRANCH   7   8
ATOM      8  C   LIG d   1      -0.290  80.184 111.944  0.00  0.00     0.119 C 
BRANCH   8   9
ATOM      9  C   LIG d   1      -1.542  79.287 111.969  0.00  0.00     0.028 C 
ATOM     10  C   LIG d   1      -1.466  78.143 110.944  0.00  0.00     0.006 C 
ENDBRANCH   8   9
BRANCH   8  11
ATOM     11  C   LIG d   1      -0.165  80.746 113.363  0.00  0.00     0.028 C 
ATOM     12  C   LIG d   1       1.276  81.141 113.724  0.00  0.00     0.006 C 
ENDBRANCH   8  11
ENDBRANCH   7   8
ENDBRANCH   1   7
BRANCH   6  13
ATOM     13  N   LIG d   1       0.329  83.887 109.826  0.00  0.00    -0.311 N 
ATOM     14  C   LIG d   1      -0.014  84.922 110.591  0.00  0.00     0.210 C 
ATOM     15  C   LIG d   1      -0.969  85.923 109.934  0.00  0.00     0.109 C 
ATOM     16  O   LIG d   1       0.407  85.122 111.740  0.00  0.00    -0.276 OA
ATOM     17  H   LIG d   1      -0.034  83.820 108.895  0.00  0.00     0.149 HD
ENDBRANCH   6  13
BRANCH   5  18
ATOM     18  N   LIG d   1       3.376  84.070 109.934  0.00  0.00     0.381 N 
ATOM     19  H   LIG d   1       2.850  84.881 109.674  0.00  0.00    -0.090 HD
ATOM     20  H   LIG d   1       4.235  84.071 109.412  0.00  0.00    -0.090 HD
ATOM     21  H   LIG d   1       3.572  84.092 110.910  0.00  0.00    -0.090 HD
ENDBRANCH   5  18
BRANCH   3  22
ATOM     22  C   LIG d   1       3.526  79.291 109.665  0.00  0.00     0.382 C 
ATOM     23  O   LIG d   1       2.972  78.166 109.632  0.00  0.00    -0.241 OA
ATOM     24  O   LIG d   1       4.761  79.370 109.525  0.00  0.00    -0.241 OA
ENDBRANCH   3  22
TORSDOF 7
ENDMDL
MODEL 3
REMARK VINA RESULT:      -5.8      9.157     11.269
REMARK  7 active torsions:
REMARK  status: ('A' for Active; 'I' for Inactive)
REMARK    1  A    between atoms: C_2  and  C_3 
REMARK    2  A    between atoms: C_3  and  O_6 
REMARK    3  A    between atoms: C_3  and  C_4 
REMARK    4  A    between atoms: C_7  and  O_6 
REMARK    5  A    between atoms: C_9  and  C_10 
REMARK    6  A    between atoms: N_15  and  C_14 
REMARK    7  A    between atoms: N_20  and  C_19 
REMARK       I    between atoms: C_22  and  N_20 
ROOT
ATOM      1  C   LIG d   1      -1.877  75.437 115.143  0.00  0.00     0.161 C 
ATOM      2  C   LIG d   1      -1.734  74.704 116.332  0.00  0.00     0.016 C 
ATOM      3  C   LIG d   1      -0.969  75.150 117.434  0.00  0.00     0.038 C 
ATOM      4  C   LIG d   1      -0.414  76.438 117.479  0.00  0.00     0.028 C 
ATOM      5  C   LIG d   1      -0.109  77.014 116.100  0.00  0.00    -0.047 C 
ATOM      6  C   LIG d   1      -1.371  76.893 115.215  0.00  0.00     0.091 C 
ENDROOT
BRANCH   1   7
ATOM      7  O   LIG d   1      -3.252  75.406 114.711  0.00  0.00    -0.368 OA
BRANCH   7   8
ATOM      8  C   LIG d   1      -4.244  75.249 115.756  0.00  0.00     0.119 C 
BRANCH   8   9
ATOM      9  C   LIG d   1      -5.328  74.291 115.225  0.00  0.00     0.028 C 
ATOM     10  C   LIG d   1      -6.147  73.648 116.357  0.00  0.00     0.006 C 
ENDBRANCH   8   9
BRANCH   8  11
ATOM     11  C   LIG d   1      -4.971  76.568 116.036  0.00  0.00     0.028 C 
ATOM     12  C   LIG d   1      -4.431  77.294 117.279  0.00  0.00     0.006 C 
ENDBRANCH   8  11
ENDBRANCH   7   8
ENDBRANCH   1   7
BRANCH   6  13
ATOM     13  N   LIG d   1      -1.134  77.357 113.823  0.00  0.00    -0.311 N 
ATOM     14  C   LIG d   1      -1.982  78.137 113.156  0.00  0.00     0.210 C 
ATOM     15  C   LIG d   1      -1.555  78.482 111.726  0.00  0.00     0.109 C 
ATOM     16  O   LIG d   1      -3.032  78.603 113.624  0.00  0.00    -0.276 OA
ATOM     17  H   LIG d   1      -0.291  77.051 113.378  0.00  0.00     0.149 HD
ENDBRANCH   6  13
BRANCH   5  18
ATOM     18  N   LIG d   1       0.333  78.409 116.288  0.00  0.00     0.381 N 
ATOM     19  H   LIG d   1       1.286  78.503 115.998  0.00  0.00    -0.090 HD
ATOM     20  H   LIG d   1       0.276  78.639 117.264  0.00  0.00    -0.090 HD
ATOM     21  H   LIG d   1      -0.245  79.024 115.759  0.00  0.00    -0.090 HD
ENDBRANCH   5  18
BRANCH   3  22
ATOM     22  C   LIG d   1      -0.719  74.288 118.491  0.00  0.00     0.382 C 
ATOM     23  O   LIG d   1      -0.910  74.671 119.671  0.00  0.00    -0.241 OA
ATOM     24  O   LIG d   1      -0.262  73.149 118.283  0.00  0.00    -0.241 OA
ENDBRANCH   3  22
TORSDOF 7
ENDMDL
MODEL 4
REMARK VINA RESULT:      -5.7      9.309     10.917
REMARK  7 active torsions:
REMARK  status: ('A' for Active; 'I' for Inactive)
REMARK    1  A    between atoms: C_2  and  C_3 
REMARK    2  A    between atoms: C_3  and  O_6 
REMARK    3  A    between atoms: C_3  and  C_4 
REMARK    4  A    between atoms: C_7  and  O_6 
REMARK    5  A    between atoms: C_9  and  C_10 
REMARK    6  A    between atoms: N_15  and  C_14 
REMARK    7  A    between atoms: N_20  and  C_19 
REMARK       I    between atoms: C_22  and  N_20 
ROOT
ATOM      1  C   LIG d   1      -3.294  76.929 116.103  0.00  0.00     0.161 C 
ATOM      2  C   LIG d   1      -3.548  77.572 114.880  0.00  0.00     0.016 C 
ATOM      3  C   LIG d   1      -2.618  77.614 113.815  0.00  0.00     0.038 C 
ATOM      4  C   LIG d   1      -1.423  76.881 113.845  0.00  0.00     0.028 C 
ATOM      5  C   LIG d   1      -0.902  76.631 115.256  0.00  0.00    -0.047 C 
ATOM      6  C   LIG d   1      -2.040  76.030 116.112  0.00  0.00     0.091 C 
ENDROOT
BRANCH   1   7
ATOM      7  O   LIG d   1      -4.454  76.176 116.508  0.00  0.00    -0.368 OA
BRANCH   7   8
ATOM      8  C   LIG d   1      -5.309  75.697 115.441  0.00  0.00     0.119 C 
BRANCH   8   9
ATOM      9  C   LIG d   1      -6.757  76.083 115.799  0.00  0.00     0.028 C 
ATOM     10  C   LIG d   1      -6.823  77.172 116.884  0.00  0.00     0.006 C 
ENDBRANCH   8   9
BRANCH   8  11
ATOM     11  C   LIG d   1      -5.303  74.168 115.366  0.00  0.00     0.028 C 
ATOM     12  C   LIG d   1      -6.258  73.518 116.379  0.00  0.00     0.006 C 
ENDBRANCH   8  11
ENDBRANCH   7   8
ENDBRANCH   1   7
BRANCH   6  13
ATOM     13  N   LIG d   1      -1.639  75.833 117.530  0.00  0.00    -0.311 N 
ATOM     14  C   LIG d   1      -1.061  74.720 117.980  0.00  0.00     0.210 C 
ATOM     15  C   LIG d   1      -0.748  74.716 119.480  0.00  0.00     0.109 C 
ATOM     16  O   LIG d   1      -0.749  73.750 117.274  0.00  0.00    -0.276 OA
ATOM     17  H   LIG d   1      -1.828  76.583 118.166  0.00  0.00     0.149 HD
ENDBRANCH   6  13
BRANCH   5  18
ATOM     18  N   LIG d   1       0.270  75.742 115.147  0.00  0.00     0.381 N 
ATOM     19  H   LIG d   1       0.999  76.202 114.640  0.00  0.00    -0.090 HD
ATOM     20  H   LIG d   1       0.006  74.916 114.639  0.00  0.00    -0.090 HD
ATOM     21  H   LIG d   1       0.595  75.492 116.055  0.00  0.00    -0.090 HD
ENDBRANCH   5  18
BRANCH   3  22
ATOM     22  C   LIG d   1      -2.864  78.428 112.720  0.00  0.00     0.382 C 
ATOM     23  O   LIG d   1      -3.154  79.637 112.890  0.00  0.00    -0.241 OA
ATOM     24  O   LIG d   1      -2.844  77.959 111.566  0.00  0.00    -0.241 OA
ENDBRANCH   3  22
TORSDOF 7
ENDMDL
MODEL 5
REMARK VINA RESULT:      -5.6      3.713      6.186
REMARK  7 active torsions:
REMARK  status: ('A' for Active; 'I' for Inactive)
REMARK    1  A    between atoms: C_2  and  C_3 
REMARK    2  A    between atoms: C_3  and  O_6 
REMARK    3  A    between atoms: C_3  and  C_4 
REMARK    4  A    between atoms: C_7  and  O_6 
REMARK    5  A    between atoms: C_9  and  C_10 
REMARK    6  A    between atoms: N_15  and  C_14 
REMARK    7  A    between atoms: N_20  and  C_19 
REMARK       I    between atoms: C_22  and  N_20 
ROOT
ATOM      1  C   LIG d   1       2.431  86.325 114.307  0.00  0.00     0.161 C 
ATOM      2  C   LIG d   1       3.041  87.532 113.925  0.00  0.00     0.016 C 
ATOM      3  C   LIG d   1       4.167  88.077 114.584  0.00  0.00     0.038 C 
ATOM      4  C   LIG d   1       4.855  87.372 115.582  0.00  0.00     0.028 C 
ATOM      5  C   LIG d   1       3.977  86.383 116.341  0.00  0.00    -0.047 C 
ATOM      6  C   LIG d   1       3.235  85.487 115.323  0.00  0.00     0.091 C 
ENDROOT
BRANCH   1   7
ATOM      7  O   LIG d   1       2.127  85.540 113.138  0.00  0.00    -0.368 OA
BRANCH   7   8
ATOM      8  C   LIG d   1       2.406  86.164 111.860  0.00  0.00     0.119 C 
BRANCH   8   9
ATOM      9  C   LIG d   1       1.102  86.143 111.040  0.00  0.00     0.028 C 
ATOM     10  C   LIG d   1       1.255  85.379 109.714  0.00  0.00     0.006 C 
ENDBRANCH   8   9
BRANCH   8  11
ATOM     11  C   LIG d   1       3.410  85.342 111.047  0.00  0.00     0.028 C 
ATOM     12  C   LIG d   1       4.088  84.239 111.875  0.00  0.00     0.006 C 
ENDBRANCH   8  11
ENDBRANCH   7   8
ENDBRANCH   1   7
BRANCH   6  13
ATOM     13  N   LIG d   1       2.289  84.547 115.979  0.00  0.00    -0.311 N 
ATOM     14  C   LIG d   1       2.618  83.305 116.334  0.00  0.00     0.210 C 
ATOM     15  C   LIG d   1       1.487  82.497 116.977  0.00  0.00     0.109 C 
ATOM     16  O   LIG d   1       3.747  82.808 116.206  0.00  0.00    -0.276 OA
ATOM     17  H   LIG d   1       1.360  84.878 116.148  0.00  0.00     0.149 HD
ENDBRANCH   6  13
BRANCH   5  18
ATOM     18  N   LIG d   1       4.849  85.620 117.254  0.00  0.00     0.381 N 
ATOM     19  H   LIG d   1       4.997  86.141 118.095  0.00  0.00    -0.090 HD
ATOM     20  H   LIG d   1       5.740  85.479 116.810  0.00  0.00    -0.090 HD
ATOM     21  H   LIG d   1       4.433  84.741 117.468  0.00  0.00    -0.090 HD
ENDBRANCH   5  18
BRANCH   3  22
ATOM     22  C   LIG d   1       4.591  89.360 114.273  0.00  0.00     0.382 C 
ATOM     23  O   LIG d   1       4.603  90.248 115.158  0.00  0.00    -0.241 OA
ATOM     24  O   LIG d   1       4.919  89.651 113.107  0.00  0.00    -0.241 OA
ENDBRANCH   3  22
TORSDOF 7
ENDMDL
MODEL 6
REMARK VINA RESULT:      -5.6      2.741      3.986
REMARK  7 active torsions:
REMARK  status: ('A' for Active; 'I' for Inactive)
REMARK    1  A    between atoms: C_2  and  C_3 
REMARK    2  A    between atoms: C_3  and  O_6 
REMARK    3  A    between atoms: C_3  and  C_4 
REMARK    4  A    between atoms: C_7  and  O_6 
REMARK    5  A    between atoms: C_9  and  C_10 
REMARK    6  A    between atoms: N_15  and  C_14 
REMARK    7  A    between atoms: N_20  and  C_19 
REMARK       I    between atoms: C_22  and  N_20 
ROOT
ATOM      1  C   LIG d   1       4.849  85.136 112.989  0.00  0.00     0.161 C 
ATOM      2  C   LIG d   1       4.785  86.416 113.564  0.00  0.00     0.016 C 
ATOM      3  C   LIG d   1       3.814  87.381 113.211  0.00  0.00     0.038 C 
ATOM      4  C   LIG d   1       2.739  87.075 112.363  0.00  0.00     0.028 C 
ATOM      5  C   LIG d   1       3.049  85.958 111.371  0.00  0.00    -0.047 C 
ATOM      6  C   LIG d   1       3.618  84.746 112.143  0.00  0.00     0.091 C 
ENDROOT
BRANCH   1   7
ATOM      7  O   LIG d   1       5.085  84.151 114.014  0.00  0.00    -0.368 OA
BRANCH   7   8
ATOM      8  C   LIG d   1       4.995  84.620 115.382  0.00  0.00     0.119 C 
BRANCH   8   9
ATOM      9  C   LIG d   1       6.301  84.218 116.095  0.00  0.00     0.028 C 
ATOM     10  C   LIG d   1       7.004  85.417 116.752  0.00  0.00     0.006 C 
ENDBRANCH   8   9
BRANCH   8  11
ATOM     11  C   LIG d   1       3.878  83.903 116.145  0.00  0.00     0.028 C 
ATOM     12  C   LIG d   1       2.646  84.792 116.374  0.00  0.00     0.006 C 
ENDBRANCH   8  11
ENDBRANCH   7   8
ENDBRANCH   1   7
BRANCH   6  13
ATOM     13  N   LIG d   1       4.027  83.640 111.238  0.00  0.00    -0.311 N 
ATOM     14  C   LIG d   1       3.222  82.634 110.899  0.00  0.00     0.210 C 
ATOM     15  C   LIG d   1       3.848  81.589 109.972  0.00  0.00     0.109 C 
ATOM     16  O   LIG d   1       2.038  82.526 111.253  0.00  0.00    -0.276 OA
ATOM     17  H   LIG d   1       4.962  83.665 110.880  0.00  0.00     0.149 HD
ENDBRANCH   6  13
BRANCH   5  18
ATOM     18  N   LIG d   1       1.803  85.649 110.645  0.00  0.00     0.381 N 
ATOM     19  H   LIG d   1       1.771  86.168 109.790  0.00  0.00    -0.090 HD
ATOM     20  H   LIG d   1       1.020  85.924 111.211  0.00  0.00    -0.090 HD
ATOM     21  H   LIG d   1       1.755  84.673 110.451  0.00  0.00    -0.090 HD
ENDBRANCH   5  18
BRANCH   3  22
ATOM     22  C   LIG d   1       3.934  88.680 113.679  0.00  0.00     0.382 C 
ATOM     23  O   LIG d   1       4.781  89.454 113.171  0.00  0.00    -0.241 OA
ATOM     24  O   LIG d   1       3.237  89.075 114.633  0.00  0.00    -0.241 OA
ENDBRANCH   3  22
TORSDOF 7
ENDMDL
MODEL 7
REMARK VINA RESULT:      -5.5      7.434      9.038
REMARK  7 active torsions:
REMARK  status: ('A' for Active; 'I' for Inactive)
REMARK    1  A    between atoms: C_2  and  C_3 
REMARK    2  A    between atoms: C_3  and  O_6 
REMARK    3  A    between atoms: C_3  and  C_4 
REMARK    4  A    between atoms: C_7  and  O_6 
REMARK    5  A    between atoms: C_9  and  C_10 
REMARK    6  A    between atoms: N_15  and  C_14 
REMARK    7  A    between atoms: N_20  and  C_19 
REMARK       I    between atoms: C_22  and  N_20 
ROOT
ATOM      1  C   LIG d   1      -2.311  78.412 114.985  0.00  0.00     0.161 C 
ATOM      2  C   LIG d   1      -2.696  79.393 114.055  0.00  0.00     0.016 C 
ATOM      3  C   LIG d   1      -1.881  80.492 113.701  0.00  0.00     0.038 C 
ATOM      4  C   LIG d   1      -0.554  80.604 114.142  0.00  0.00     0.028 C 
ATOM      5  C   LIG d   1      -0.298  79.909 115.475  0.00  0.00    -0.047 C 
ATOM      6  C   LIG d   1      -0.823  78.457 115.393  0.00  0.00     0.091 C 
ENDROOT
BRANCH   1   7
ATOM      7  O   LIG d   1      -2.654  77.104 114.486  0.00  0.00    -0.368 OA
BRANCH   7   8
ATOM      8  C   LIG d   1      -3.977  76.620 114.824  0.00  0.00     0.119 C 
BRANCH   8   9
ATOM      9  C   LIG d   1      -3.806  75.497 115.866  0.00  0.00     0.028 C 
ATOM     10  C   LIG d   1      -4.933  74.453 115.794  0.00  0.00     0.006 C 
ENDBRANCH   8   9
BRANCH   8  11
ATOM     11  C   LIG d   1      -4.652  75.957 113.621  0.00  0.00     0.028 C 
ATOM     12  C   LIG d   1      -5.634  76.893 112.898  0.00  0.00     0.006 C 
ENDBRANCH   8  11
ENDBRANCH   7   8
ENDBRANCH   1   7
BRANCH   6  13
ATOM     13  N   LIG d   1      -0.688  77.732 116.683  0.00  0.00    -0.311 N 
ATOM     14  C   LIG d   1      -0.205  76.494 116.781  0.00  0.00     0.210 C 
ATOM     15  C   LIG d   1      -0.171  75.924 118.202  0.00  0.00     0.109 C 
ATOM     16  O   LIG d   1       0.228  75.827 115.830  0.00  0.00    -0.276 OA
ATOM     17  H   LIG d   1      -0.987  78.211 117.509  0.00  0.00     0.149 HD
ENDBRANCH   6  13
BRANCH   5  18
ATOM     18  N   LIG d   1       1.149  79.986 115.748  0.00  0.00     0.381 N 
ATOM     19  H   LIG d   1       1.555  80.729 115.215  0.00  0.00    -0.090 HD
ATOM     20  H   LIG d   1       1.580  79.123 115.464  0.00  0.00    -0.090 HD
ATOM     21  H   LIG d   1       1.306  80.140 116.719  0.00  0.00    -0.090 HD
ENDBRANCH   5  18
BRANCH   3  22
ATOM     22  C   LIG d   1      -2.406  81.516 112.927  0.00  0.00     0.382 C 
ATOM     23  O   LIG d   1      -3.644  81.584 112.735  0.00  0.00    -0.241 OA
ATOM     24  O   LIG d   1      -1.654  82.346 112.383  0.00  0.00    -0.241 OA
ENDBRANCH   3  22
TORSDOF 7
ENDMDL
MODEL 8
REMARK VINA RESULT:      -5.5     11.953     14.016
REMARK  7 active torsions:
REMARK  status: ('A' for Active; 'I' for Inactive)
REMARK    1  A    between atoms: C_2  and  C_3 
REMARK    2  A    between atoms: C_3  and  O_6 
REMARK    3  A    between atoms: C_3  and  C_4 
REMARK    4  A    between atoms: C_7  and  O_6 
REMARK    5  A    between atoms: C_9  and  C_10 
REMARK    6  A    between atoms: N_15  and  C_14 
REMARK    7  A    between atoms: N_20  and  C_19 
REMARK       I    between atoms: C_22  and  N_20 
ROOT
ATOM      1  C   LIG d   1      -7.255  76.359 117.066  0.00  0.00     0.161 C 
ATOM      2  C   LIG d   1      -6.664  75.966 115.854  0.00  0.00     0.016 C 
ATOM      3  C   LIG d   1      -5.455  76.513 115.365  0.00  0.00     0.038 C 
ATOM      4  C   LIG d   1      -4.672  77.388 116.133  0.00  0.00     0.028 C 
ATOM      5  C   LIG d   1      -5.481  78.196 117.142  0.00  0.00    -0.047 C 
ATOM      6  C   LIG d   1      -6.359  77.231 117.970  0.00  0.00     0.091 C 
ENDROOT
BRANCH   1   7
ATOM      7  O   LIG d   1      -7.713  75.197 117.785  0.00  0.00    -0.368 OA
BRANCH   7   8
ATOM      8  C   LIG d   1      -8.041  74.038 116.981  0.00  0.00     0.119 C 
BRANCH   8   9
ATOM      9  C   LIG d   1      -9.541  73.746 117.180  0.00  0.00     0.028 C 
ATOM     10  C   LIG d   1      -9.831  72.243 117.333  0.00  0.00     0.006 C 
ENDBRANCH   8   9
BRANCH   8  11
ATOM     11  C   LIG d   1      -7.314  72.787 117.483  0.00  0.00     0.028 C 
ATOM     12  C   LIG d   1      -6.384  72.173 116.424  0.00  0.00     0.006 C 
ENDBRANCH   8  11
ENDBRANCH   7   8
ENDBRANCH   1   7
BRANCH   6  13
ATOM     13  N   LIG d   1      -7.245  77.948 118.925  0.00  0.00    -0.311 N 
ATOM     14  C   LIG d   1      -7.779  79.142 118.674  0.00  0.00     0.210 C 
ATOM     15  C   LIG d   1      -8.646  79.712 119.800  0.00  0.00     0.109 C 
ATOM     16  O   LIG d   1      -7.643  79.769 117.612  0.00  0.00    -0.276 OA
ATOM     17  H   LIG d   1      -7.433  77.497 119.799  0.00  0.00     0.149 HD
ENDBRANCH   6  13
BRANCH   5  18
ATOM     18  N   LIG d   1      -4.527  78.962 117.966  0.00  0.00     0.381 N 
ATOM     19  H   LIG d   1      -4.853  79.003 118.911  0.00  0.00    -0.090 HD
ATOM     20  H   LIG d   1      -4.470  79.900 117.611  0.00  0.00    -0.090 HD
ATOM     21  H   LIG d   1      -3.628  78.532 117.936  0.00  0.00    -0.090 HD
ENDBRANCH   5  18
BRANCH   3  22
ATOM     22  C   LIG d   1      -5.039  76.216 114.076  0.00  0.00     0.382 C 
ATOM     23  O   LIG d   1      -4.426  75.145 113.846  0.00  0.00    -0.241 OA
ATOM     24  O   LIG d   1      -5.228  77.025 113.148  0.00  0.00    -0.241 OA
ENDBRANCH   3  22
TORSDOF 7
ENDMDL
MODEL 9
REMARK VINA RESULT:      -5.4     11.323     12.792
REMARK  7 active torsions:
REMARK  status: ('A' for Active; 'I' for Inactive)
REMARK    1  A    between atoms: C_2  and  C_3 
REMARK    2  A    between atoms: C_3  and  O_6 
REMARK    3  A    between atoms: C_3  and  C_4 
REMARK    4  A    between atoms: C_7  and  O_6 
REMARK    5  A    between atoms: C_9  and  C_10 
REMARK    6  A    between atoms: N_15  and  C_14 
REMARK    7  A    between atoms: N_20  and  C_19 
REMARK       I    between atoms: C_22  and  N_20 
ROOT
ATOM      1  C   LIG d   1      -7.023  77.814 117.882  0.00  0.00     0.161 C 
ATOM      2  C   LIG d   1      -8.238  78.401 118.272  0.00  0.00     0.016 C 
ATOM      3  C   LIG d   1      -8.392  79.786 118.511  0.00  0.00     0.038 C 
ATOM      4  C   LIG d   1      -7.371  80.705 118.226  0.00  0.00     0.028 C 
ATOM      5  C   LIG d   1      -5.973  80.103 118.312  0.00  0.00    -0.047 C 
ATOM      6  C   LIG d   1      -5.927  78.815 117.459  0.00  0.00     0.091 C 
ENDROOT
BRANCH   1   7
ATOM      7  O   LIG d   1      -7.258  76.855 116.831  0.00  0.00    -0.368 OA
BRANCH   7   8
ATOM      8  C   LIG d   1      -6.862  75.491 117.113  0.00  0.00     0.119 C 
BRANCH   8   9
ATOM      9  C   LIG d   1      -6.073  74.977 115.894  0.00  0.00     0.028 C 
ATOM     10  C   LIG d   1      -5.961  76.031 114.780  0.00  0.00     0.006 C 
ENDBRANCH   8   9
BRANCH   8  11
ATOM     11  C   LIG d   1      -8.080  74.569 117.225  0.00  0.00     0.028 C 
ATOM     12  C   LIG d   1      -9.397  75.275 116.864  0.00  0.00     0.006 C 
ENDBRANCH   8  11
ENDBRANCH   7   8
ENDBRANCH   1   7
BRANCH   6  13
ATOM     13  N   LIG d   1      -4.619  78.117 117.555  0.00  0.00    -0.311 N 
ATOM     14  C   LIG d   1      -3.639  78.271 116.667  0.00  0.00     0.210 C 
ATOM     15  C   LIG d   1      -2.380  77.443 116.943  0.00  0.00     0.109 C 
ATOM     16  O   LIG d   1      -3.680  79.039 115.694  0.00  0.00    -0.276 OA
ATOM     17  H   LIG d   1      -4.488  77.498 118.331  0.00  0.00     0.149 HD
ENDBRANCH   6  13
BRANCH   5  18
ATOM     18  N   LIG d   1      -5.017  81.131 117.859  0.00  0.00     0.381 N 
ATOM     19  H   LIG d   1      -4.146  80.701 117.618  0.00  0.00    -0.090 HD
ATOM     20  H   LIG d   1      -4.852  81.776 118.611  0.00  0.00    -0.090 HD
ATOM     21  H   LIG d   1      -5.385  81.615 117.070  0.00  0.00    -0.090 HD
ENDBRANCH   5  18
BRANCH   3  22
ATOM     22  C   LIG d   1      -9.566  80.259 119.077  0.00  0.00     0.382 C 
ATOM     23  O   LIG d   1     -10.553  79.496 119.205  0.00  0.00    -0.241 OA
ATOM     24  O   LIG d   1      -9.664  81.452 119.421  0.00  0.00    -0.241 OA
ENDBRANCH   3  22
TORSDOF 7
ENDMDL
