MODEL 1
REMARK VINA RESULT:      -6.4      0.000      0.000
REMARK  7 active torsions:
REMARK  status: ('A' for Active; 'I' for Inactive)
REMARK    1  A    between atoms: C_2  and  C_3 
REMARK    2  A    between atoms: C_3  and  O_6 
REMARK    3  A    between atoms: C_3  and  C_4 
REMARK    4  A    between atoms: C_7  and  O_6 
REMARK    5  A    between atoms: C_9  and  C_10 
REMARK    6  A    between atoms: N_15  and  C_14 
REMARK    7  A    between atoms: N_20  and  C_19 
REMARK       I    between atoms: C_22  and  N_20 
ROOT
ATOM      1  C   LIG d   1       1.655  83.698 109.319  0.00  0.00     0.161 C 
ATOM      2  C   LIG d   1       1.860  84.986 109.841  0.00  0.00     0.016 C 
ATOM      3  C   LIG d   1       1.214  85.466 111.004  0.00  0.00     0.038 C 
ATOM      4  C   LIG d   1       0.428  84.632 111.813  0.00  0.00     0.028 C 
ATOM      5  C   LIG d   1      -0.209  83.474 111.051  0.00  0.00    -0.047 C 
ATOM      6  C   LIG d   1       0.887  82.737 110.250  0.00  0.00     0.091 C 
ENDROOT
BRANCH   1   7
ATOM      7  O   LIG d   1       2.918  83.120 108.934  0.00  0.00    -0.368 OA
BRANCH   7   8
ATOM      8  C   LIG d   1       3.571  82.294 109.929  0.00  0.00     0.119 C 
BRANCH   8   9
ATOM      9  C   LIG d   1       4.839  83.039 110.389  0.00  0.00     0.028 C 
ATOM     10  C   LIG d   1       4.691  83.637 111.798  0.00  0.00     0.006 C 
ENDBRANCH   8   9
BRANCH   8  11
ATOM     11  C   LIG d   1       4.071  80.980 109.323  0.00  0.00     0.028 C 
ATOM     12  C   LIG d   1       5.266  80.387 110.086  0.00  0.00     0.006 C 
ENDBRANCH   8  11
ENDBRANCH   7   8
ENDBRANCH   1   7
BRANCH   6  13
ATOM     13  N   LIG d   1       0.336  81.642 109.410  0.00  0.00    -0.311 N 
ATOM     14  C   LIG d   1       0.362  80.359 109.768  0.00  0.00     0.210 C 
ATOM     15  C   LIG d   1      -0.243  79.390 108.747  0.00  0.00     0.109 C 
ATOM     16  O   LIG d   1       0.799  79.935 110.848  0.00  0.00    -0.276 OA
ATOM     17  H   LIG d   1      -0.067  81.900 108.530  0.00  0.00     0.149 HD
ENDBRANCH   6  13
BRANCH   5  18
ATOM     18  N   LIG d   1      -0.885  82.610 112.038  0.00  0.00     0.381 N 
ATOM     19  H   LIG d   1      -0.206  82.069 112.535  0.00  0.00    -0.090 HD
ATOM     20  H   LIG d   1      -1.497  81.979 111.552  0.00  0.00    -0.090 HD
ATOM     21  H   LIG d   1      -1.409  83.167 112.676  0.00  0.00    -0.090 HD
ENDBRANCH   5  18
BRANCH   3  22
ATOM     22  C   LIG d   1       1.319  86.806 111.345  0.00  0.00     0.382 C 
ATOM     23  O   LIG d   1       0.312  87.428 111.759  0.00  0.00    -0.241 OA
ATOM     24  O   LIG d   1       2.398  87.411 111.201  0.00  0.00    -0.241 OA
ENDBRANCH   3  22
TORSDOF 7
ENDMDL
MODEL 2
REMARK VINA RESULT:      -6.0      1.482      2.142
REMARK  7 active torsions:
REMARK  status: ('A' for Active; 'I' for Inactive)
REMARK    1  A    between atoms: C_2  and  C_3 
REMARK    2  A    between atoms: C_3  and  O_6 
REMARK    3  A    between atoms: C_3  and  C_4 
REMARK    4  A    between atoms: C_7  and  O_6 
REMARK    5  A    between atoms: C_9  and  C_10 
REMARK    6  A    between atoms: N_15  and  C_14 
REMARK    7  A    between atoms: N_20  and  C_19 
REMARK       I    between atoms: C_22  and  N_20 
ROOT
ATOM      1  C   LIG d   1       1.434  83.275 110.600  0.00  0.00     0.161 C 
ATOM      2  C   LIG d   1       1.677  84.378 111.436  0.00  0.00     0.016 C 
ATOM      3  C   LIG d   1       0.922  84.654 112.599  0.00  0.00     0.038 C 
ATOM      4  C   LIG d   1      -0.038  83.756 113.091  0.00  0.00     0.028 C 
ATOM      5  C   LIG d   1      -0.663  82.885 112.007  0.00  0.00    -0.047 C 
ATOM      6  C   LIG d   1       0.464  82.225 111.181  0.00  0.00     0.091 C 
ENDROOT
BRANCH   1   7
ATOM      7  O   LIG d   1       2.682  82.656 110.233  0.00  0.00    -0.368 OA
BRANCH   7   8
ATOM      8  C   LIG d   1       3.336  83.189 109.055  0.00  0.00     0.119 C 
BRANCH   8   9
ATOM      9  C   LIG d   1       2.685  82.529 107.825  0.00  0.00     0.028 C 
ATOM     10  C   LIG d   1       1.760  83.493 107.063  0.00  0.00     0.006 C 
ENDBRANCH   8   9
BRANCH   8  11
ATOM     11  C   LIG d   1       4.811  82.779 109.003  0.00  0.00     0.028 C 
ATOM     12  C   LIG d   1       5.360  82.351 110.373  0.00  0.00     0.006 C 
ENDBRANCH   8  11
ENDBRANCH   7   8
ENDBRANCH   1   7
BRANCH   6  13
ATOM     13  N   LIG d   1      -0.060  81.421 110.046  0.00  0.00    -0.311 N 
ATOM     14  C   LIG d   1       0.432  80.233 109.700  0.00  0.00     0.210 C 
ATOM     15  C   LIG d   1      -0.242  79.583 108.487  0.00  0.00     0.109 C 
ATOM     16  O   LIG d   1       1.340  79.641 110.301  0.00  0.00    -0.276 OA
ATOM     17  H   LIG d   1      -0.819  81.812 109.522  0.00  0.00     0.149 HD
ENDBRANCH   6  13
BRANCH   5  18
ATOM     18  N   LIG d   1      -1.541  81.905 112.674  0.00  0.00     0.381 N 
ATOM     19  H   LIG d   1      -1.339  81.881 113.654  0.00  0.00    -0.090 HD
ATOM     20  H   LIG d   1      -1.359  80.993 112.293  0.00  0.00    -0.090 HD
ATOM     21  H   LIG d   1      -2.496  82.149 112.530  0.00  0.00    -0.090 HD
ENDBRANCH   5  18
BRANCH   3  22
ATOM     22  C   LIG d   1       1.096  85.860 113.261  0.00  0.00     0.382 C 
ATOM     23  O   LIG d   1       1.319  86.907 112.608  0.00  0.00    -0.241 OA
ATOM     24  O   LIG d   1       1.077  85.905 114.506  0.00  0.00    -0.241 OA
ENDBRANCH   3  22
TORSDOF 7
ENDMDL
MODEL 3
REMARK VINA RESULT:      -5.8      2.323      4.855
REMARK  7 active torsions:
REMARK  status: ('A' for Active; 'I' for Inactive)
REMARK    1  A    between atoms: C_2  and  C_3 
REMARK    2  A    between atoms: C_3  and  O_6 
REMARK    3  A    between atoms: C_3  and  C_4 
REMARK    4  A    between atoms: C_7  and  O_6 
REMARK    5  A    between atoms: C_9  and  C_10 
REMARK    6  A    between atoms: N_15  and  C_14 
REMARK    7  A    between atoms: N_20  and  C_19 
REMARK       I    between atoms: C_22  and  N_20 
ROOT
ATOM      1  C   LIG d   1       1.594  83.446 111.078  0.00  0.00     0.161 C 
ATOM      2  C   LIG d   1       0.500  82.569 111.174  0.00  0.00     0.016 C 
ATOM      3  C   LIG d   1      -0.470  82.644 112.199  0.00  0.00     0.038 C 
ATOM      4  C   LIG d   1      -0.496  83.702 113.119  0.00  0.00     0.028 C 
ATOM      5  C   LIG d   1       0.875  84.323 113.368  0.00  0.00    -0.047 C 
ATOM      6  C   LIG d   1       1.520  84.675 112.008  0.00  0.00     0.091 C 
ENDROOT
BRANCH   1   7
ATOM      7  O   LIG d   1       1.768  83.863 109.709  0.00  0.00    -0.368 OA
BRANCH   7   8
ATOM      8  C   LIG d   1       3.001  83.451 109.069  0.00  0.00     0.119 C 
BRANCH   8   9
ATOM      9  C   LIG d   1       2.632  82.840 107.704  0.00  0.00     0.028 C 
ATOM     10  C   LIG d   1       1.564  83.661 106.962  0.00  0.00     0.006 C 
ENDBRANCH   8   9
BRANCH   8  11
ATOM     11  C   LIG d   1       3.683  82.323 109.848  0.00  0.00     0.028 C 
ATOM     12  C   LIG d   1       5.153  82.629 110.176  0.00  0.00     0.006 C 
ENDBRANCH   8  11
ENDBRANCH   7   8
ENDBRANCH   1   7
BRANCH   6  13
ATOM     13  N   LIG d   1       2.899  85.209 112.157  0.00  0.00    -0.311 N 
ATOM     14  C   LIG d   1       3.297  86.366 111.631  0.00  0.00     0.210 C 
ATOM     15  C   LIG d   1       4.766  86.721 111.886  0.00  0.00     0.109 C 
ATOM     16  O   LIG d   1       2.566  87.148 111.005  0.00  0.00    -0.276 OA
ATOM     17  H   LIG d   1       3.550  84.654 112.677  0.00  0.00     0.149 HD
ENDBRANCH   6  13
BRANCH   5  18
ATOM     18  N   LIG d   1       0.681  85.498 114.238  0.00  0.00     0.381 N 
ATOM     19  H   LIG d   1       0.459  85.200 115.166  0.00  0.00    -0.090 HD
ATOM     20  H   LIG d   1      -0.090  86.038 113.887  0.00  0.00    -0.090 HD
ATOM     21  H   LIG d   1       1.508  86.054 114.248  0.00  0.00    -0.090 HD
ENDBRANCH   5  18
BRANCH   3  22
ATOM     22  C   LIG d   1      -1.405  81.629 112.336  0.00  0.00     0.382 C 
ATOM     23  O   LIG d   1      -2.539  81.882 112.810  0.00  0.00    -0.241 OA
ATOM     24  O   LIG d   1      -1.115  80.457 112.032  0.00  0.00    -0.241 OA
ENDBRANCH   3  22
TORSDOF 7
ENDMDL
MODEL 4
REMARK VINA RESULT:      -5.8      2.457      5.579
REMARK  7 active torsions:
REMARK  status: ('A' for Active; 'I' for Inactive)
REMARK    1  A    between atoms: C_2  and  C_3 
REMARK    2  A    between atoms: C_3  and  O_6 
REMARK    3  A    between atoms: C_3  and  C_4 
REMARK    4  A    between atoms: C_7  and  O_6 
REMARK    5  A    between atoms: C_9  and  C_10 
REMARK    6  A    between atoms: N_15  and  C_14 
REMARK    7  A    between atoms: N_20  and  C_19 
REMARK       I    between atoms: C_22  and  N_20 
ROOT
ATOM      1  C   LIG d   1       2.028  81.818 110.814  0.00  0.00     0.161 C 
ATOM      2  C   LIG d   1       2.013  80.676 109.996  0.00  0.00     0.016 C 
ATOM      3  C   LIG d   1       0.989  79.702 110.038  0.00  0.00     0.038 C 
ATOM      4  C   LIG d   1      -0.175  79.882 110.801  0.00  0.00     0.028 C 
ATOM      5  C   LIG d   1       0.033  80.773 112.021  0.00  0.00    -0.047 C 
ATOM      6  C   LIG d   1       0.712  82.088 111.573  0.00  0.00     0.091 C 
ENDROOT
BRANCH   1   7
ATOM      7  O   LIG d   1       2.403  82.972 110.036  0.00  0.00    -0.368 OA
BRANCH   7   8
ATOM      8  C   LIG d   1       1.392  83.490 109.137  0.00  0.00     0.119 C 
BRANCH   8   9
ATOM      9  C   LIG d   1       1.799  83.094 107.704  0.00  0.00     0.028 C 
ATOM     10  C   LIG d   1       1.497  84.201 106.681  0.00  0.00     0.006 C 
ENDBRANCH   8   9
BRANCH   8  11
ATOM     11  C   LIG d   1       1.373  85.022 109.144  0.00  0.00     0.028 C 
ATOM     12  C   LIG d   1       0.080  85.599 109.741  0.00  0.00     0.006 C 
ENDBRANCH   8  11
ENDBRANCH   7   8
ENDBRANCH   1   7
BRANCH   6  13
ATOM     13  N   LIG d   1       1.027  82.982 112.717  0.00  0.00    -0.311 N 
ATOM     14  C   LIG d   1       0.184  83.900 113.184  0.00  0.00     0.210 C 
ATOM     15  C   LIG d   1       0.715  84.729 114.358  0.00  0.00     0.109 C 
ATOM     16  O   LIG d   1      -0.967  84.085 112.759  0.00  0.00    -0.276 OA
ATOM     17  H   LIG d   1       1.928  82.878 113.142  0.00  0.00     0.149 HD
ENDBRANCH   6  13
BRANCH   5  18
ATOM     18  N   LIG d   1      -1.286  80.988 112.646  0.00  0.00     0.381 N 
ATOM     19  H   LIG d   1      -1.440  81.966 112.786  0.00  0.00    -0.090 HD
ATOM     20  H   LIG d   1      -1.298  80.535 113.543  0.00  0.00    -0.090 HD
ATOM     21  H   LIG d   1      -2.003  80.611 112.066  0.00  0.00    -0.090 HD
ENDBRANCH   5  18
BRANCH   3  22
ATOM     22  C   LIG d   1       1.142  78.513 109.342  0.00  0.00     0.382 C 
ATOM     23  O   LIG d   1       0.522  77.486 109.710  0.00  0.00    -0.241 OA
ATOM     24  O   LIG d   1       1.927  78.443 108.377  0.00  0.00    -0.241 OA
ENDBRANCH   3  22
TORSDOF 7
ENDMDL
MODEL 5
REMARK VINA RESULT:      -5.7      2.147      2.996
REMARK  7 active torsions:
REMARK  status: ('A' for Active; 'I' for Inactive)
REMARK    1  A    between atoms: C_2  and  C_3 
REMARK    2  A    between atoms: C_3  and  O_6 
REMARK    3  A    between atoms: C_3  and  C_4 
REMARK    4  A    between atoms: C_7  and  O_6 
REMARK    5  A    between atoms: C_9  and  C_10 
REMARK    6  A    between atoms: N_15  and  C_14 
REMARK    7  A    between atoms: N_20  and  C_19 
REMARK       I    between atoms: C_22  and  N_20 
ROOT
ATOM      1  C   LIG d   1       0.176  82.882 110.894  0.00  0.00     0.161 C 
ATOM      2  C   LIG d   1      -0.018  84.270 110.793  0.00  0.00     0.016 C 
ATOM      3  C   LIG d   1       0.077  85.151 111.894  0.00  0.00     0.038 C 
ATOM      4  C   LIG d   1       0.524  84.720 113.152  0.00  0.00     0.028 C 
ATOM      5  C   LIG d   1       0.243  83.246 113.422  0.00  0.00    -0.047 C 
ATOM      6  C   LIG d   1       0.773  82.409 112.235  0.00  0.00     0.091 C 
ENDROOT
BRANCH   1   7
ATOM      7  O   LIG d   1       0.986  82.421 109.794  0.00  0.00    -0.368 OA
BRANCH   7   8
ATOM      8  C   LIG d   1       1.876  83.399 109.203  0.00  0.00     0.119 C 
BRANCH   8   9
ATOM      9  C   LIG d   1       2.126  82.975 107.743  0.00  0.00     0.028 C 
ATOM     10  C   LIG d   1       1.485  83.943 106.734  0.00  0.00     0.006 C 
ENDBRANCH   8   9
BRANCH   8  11
ATOM     11  C   LIG d   1       3.253  83.376 109.874  0.00  0.00     0.028 C 
ATOM     12  C   LIG d   1       3.728  84.772 110.308  0.00  0.00     0.006 C 
ENDBRANCH   8  11
ENDBRANCH   7   8
ENDBRANCH   1   7
BRANCH   6  13
ATOM     13  N   LIG d   1       0.464  80.962 112.379  0.00  0.00    -0.311 N 
ATOM     14  C   LIG d   1      -0.765  80.491 112.580  0.00  0.00     0.210 C 
ATOM     15  C   LIG d   1      -0.860  78.969 112.721  0.00  0.00     0.109 C 
ATOM     16  O   LIG d   1      -1.791  81.188 112.622  0.00  0.00    -0.276 OA
ATOM     17  H   LIG d   1       1.234  80.324 112.326  0.00  0.00     0.149 HD
ENDBRANCH   6  13
BRANCH   5  18
ATOM     18  N   LIG d   1       0.882  82.898 114.705  0.00  0.00     0.381 N 
ATOM     19  H   LIG d   1       1.871  83.035 114.640  0.00  0.00    -0.090 HD
ATOM     20  H   LIG d   1       0.711  81.927 114.901  0.00  0.00    -0.090 HD
ATOM     21  H   LIG d   1       0.509  83.463 115.436  0.00  0.00    -0.090 HD
ENDBRANCH   5  18
BRANCH   3  22
ATOM     22  C   LIG d   1      -0.316  86.473 111.752  0.00  0.00     0.382 C 
ATOM     23  O   LIG d   1      -1.535  86.767 111.745  0.00  0.00    -0.241 OA
ATOM     24  O   LIG d   1       0.533  87.370 111.588  0.00  0.00    -0.241 OA
ENDBRANCH   3  22
TORSDOF 7
ENDMDL
MODEL 6
REMARK VINA RESULT:      -5.7      2.077      5.376
REMARK  7 active torsions:
REMARK  status: ('A' for Active; 'I' for Inactive)
REMARK    1  A    between atoms: C_2  and  C_3 
REMARK    2  A    between atoms: C_3  and  O_6 
REMARK    3  A    between atoms: C_3  and  C_4 
REMARK    4  A    between atoms: C_7  and  O_6 
REMARK    5  A    between atoms: C_9  and  C_10 
REMARK    6  A    between atoms: N_15  and  C_14 
REMARK    7  A    between atoms: N_20  and  C_19 
REMARK       I    between atoms: C_22  and  N_20 
ROOT
ATOM      1  C   LIG d   1       2.110  82.557 111.580  0.00  0.00     0.161 C 
ATOM      2  C   LIG d   1       2.483  81.273 111.151  0.00  0.00     0.016 C 
ATOM      3  C   LIG d   1       2.464  80.870 109.796  0.00  0.00     0.038 C 
ATOM      4  C   LIG d   1       2.213  81.777 108.755  0.00  0.00     0.028 C 
ATOM      5  C   LIG d   1       1.340  82.955 109.176  0.00  0.00    -0.047 C 
ATOM      6  C   LIG d   1       1.940  83.593 110.450  0.00  0.00     0.091 C 
ENDROOT
BRANCH   1   7
ATOM      7  O   LIG d   1       3.050  83.036 112.562  0.00  0.00    -0.368 OA
BRANCH   7   8
ATOM      8  C   LIG d   1       4.184  83.778 112.050  0.00  0.00     0.119 C 
BRANCH   8   9
ATOM      9  C   LIG d   1       5.419  82.862 112.146  0.00  0.00     0.028 C 
ATOM     10  C   LIG d   1       5.867  82.334 110.773  0.00  0.00     0.006 C 
ENDBRANCH   8   9
BRANCH   8  11
ATOM     11  C   LIG d   1       4.505  84.986 112.934  0.00  0.00     0.028 C 
ATOM     12  C   LIG d   1       3.409  85.273 113.972  0.00  0.00     0.006 C 
ENDBRANCH   8  11
ENDBRANCH   7   8
ENDBRANCH   1   7
BRANCH   6  13
ATOM     13  N   LIG d   1       1.101  84.701 110.977  0.00  0.00    -0.311 N 
ATOM     14  C   LIG d   1       1.454  85.984 110.912  0.00  0.00     0.210 C 
ATOM     15  C   LIG d   1       0.453  86.962 111.533  0.00  0.00     0.109 C 
ATOM     16  O   LIG d   1       2.486  86.406 110.369  0.00  0.00    -0.276 OA
ATOM     17  H   LIG d   1       0.232  84.450 111.406  0.00  0.00     0.149 HD
ENDBRANCH   6  13
BRANCH   5  18
ATOM     18  N   LIG d   1       1.274  83.889 108.037  0.00  0.00     0.381 N 
ATOM     19  H   LIG d   1       0.568  83.589 107.394  0.00  0.00    -0.090 HD
ATOM     20  H   LIG d   1       2.158  83.884 107.560  0.00  0.00    -0.090 HD
ATOM     21  H   LIG d   1       1.068  84.808 108.362  0.00  0.00    -0.090 HD
ENDBRANCH   5  18
BRANCH   3  22
ATOM     22  C   LIG d   1       2.659  79.535 109.473  0.00  0.00     0.382 C 
ATOM     23  O   LIG d   1       3.746  78.975 109.753  0.00  0.00    -0.241 OA
ATOM     24  O   LIG d   1       1.779  78.897 108.865  0.00  0.00    -0.241 OA
ENDBRANCH   3  22
TORSDOF 7
ENDMDL
MODEL 7
REMARK VINA RESULT:      -5.7      2.149      5.092
REMARK  7 active torsions:
REMARK  status: ('A' for Active; 'I' for Inactive)
REMARK    1  A    between atoms: C_2  and  C_3 
REMARK    2  A    between atoms: C_3  and  O_6 
REMARK    3  A    between atoms: C_3  and  C_4 
REMARK    4  A    between atoms: C_7  and  O_6 
REMARK    5  A    between atoms: C_9  and  C_10 
REMARK    6  A    between atoms: N_15  and  C_14 
REMARK    7  A    between atoms: N_20  and  C_19 
REMARK       I    between atoms: C_22  and  N_20 
ROOT
ATOM      1  C   LIG d   1       1.990  81.737 111.054  0.00  0.00     0.161 C 
ATOM      2  C   LIG d   1       1.904  80.578 110.265  0.00  0.00     0.016 C 
ATOM      3  C   LIG d   1       0.775  79.727 110.252  0.00  0.00     0.038 C 
ATOM      4  C   LIG d   1      -0.413  80.061 110.918  0.00  0.00     0.028 C 
ATOM      5  C   LIG d   1      -0.196  80.963 112.128  0.00  0.00    -0.047 C 
ATOM      6  C   LIG d   1       0.661  82.177 111.702  0.00  0.00     0.091 C 
ENDROOT
BRANCH   1   7
ATOM      7  O   LIG d   1       2.551  82.815 110.280  0.00  0.00    -0.368 OA
BRANCH   7   8
ATOM      8  C   LIG d   1       3.805  83.360 110.761  0.00  0.00     0.119 C 
BRANCH   8   9
ATOM      9  C   LIG d   1       3.753  84.887 110.559  0.00  0.00     0.028 C 
ATOM     10  C   LIG d   1       2.356  85.377 110.144  0.00  0.00     0.006 C 
ENDBRANCH   8   9
BRANCH   8  11
ATOM     11  C   LIG d   1       4.984  82.878 109.911  0.00  0.00     0.028 C 
ATOM     12  C   LIG d   1       4.565  82.457 108.493  0.00  0.00     0.006 C 
ENDBRANCH   8  11
ENDBRANCH   7   8
ENDBRANCH   1   7
BRANCH   6  13
ATOM     13  N   LIG d   1       0.991  83.067 112.846  0.00  0.00    -0.311 N 
ATOM     14  C   LIG d   1       0.266  84.134 113.177  0.00  0.00     0.210 C 
ATOM     15  C   LIG d   1       0.793  84.927 114.378  0.00  0.00     0.109 C 
ATOM     16  O   LIG d   1      -0.782  84.481 112.612  0.00  0.00    -0.276 OA
ATOM     17  H   LIG d   1       1.808  82.841 113.379  0.00  0.00     0.149 HD
ENDBRANCH   6  13
BRANCH   5  18
ATOM     18  N   LIG d   1      -1.524  81.345 112.644  0.00  0.00     0.381 N 
ATOM     19  H   LIG d   1      -1.605  82.342 112.665  0.00  0.00    -0.090 HD
ATOM     20  H   LIG d   1      -1.620  81.000 113.583  0.00  0.00    -0.090 HD
ATOM     21  H   LIG d   1      -2.238  80.959 112.066  0.00  0.00    -0.090 HD
ENDBRANCH   5  18
BRANCH   3  22
ATOM     22  C   LIG d   1       0.843  78.505 109.599  0.00  0.00     0.382 C 
ATOM     23  O   LIG d   1      -0.038  77.636 109.803  0.00  0.00    -0.241 OA
ATOM     24  O   LIG d   1       1.797  78.246 108.842  0.00  0.00    -0.241 OA
ENDBRANCH   3  22
TORSDOF 7
ENDMDL
MODEL 8
REMARK VINA RESULT:      -5.6      2.432      5.206
REMARK  7 active torsions:
REMARK  status: ('A' for Active; 'I' for Inactive)
REMARK    1  A    between atoms: C_2  and  C_3 
REMARK    2  A    between atoms: C_3  and  O_6 
REMARK    3  A    between atoms: C_3  and  C_4 
REMARK    4  A    between atoms: C_7  and  O_6 
REMARK    5  A    between atoms: C_9  and  C_10 
REMARK    6  A    between atoms: N_15  and  C_14 
REMARK    7  A    between atoms: N_20  and  C_19 
REMARK       I    between atoms: C_22  and  N_20 
ROOT
ATOM      1  C   LIG d   1       2.798  83.707 110.749  0.00  0.00     0.161 C 
ATOM      2  C   LIG d   1       3.541  82.515 110.754  0.00  0.00     0.016 C 
ATOM      3  C   LIG d   1       3.570  81.612 109.667  0.00  0.00     0.038 C 
ATOM      4  C   LIG d   1       2.975  81.916 108.434  0.00  0.00     0.028 C 
ATOM      5  C   LIG d   1       1.794  82.874 108.551  0.00  0.00    -0.047 C 
ATOM      6  C   LIG d   1       2.231  84.110 109.371  0.00  0.00     0.091 C 
ENDROOT
BRANCH   1   7
ATOM      7  O   LIG d   1       3.590  84.779 111.297  0.00  0.00    -0.368 OA
BRANCH   7   8
ATOM      8  C   LIG d   1       3.486  84.982 112.728  0.00  0.00     0.119 C 
BRANCH   8   9
ATOM      9  C   LIG d   1       2.130  85.660 113.002  0.00  0.00     0.028 C 
ATOM     10  C   LIG d   1       1.232  84.825 113.931  0.00  0.00     0.006 C 
ENDBRANCH   8   9
BRANCH   8  11
ATOM     11  C   LIG d   1       4.543  85.970 113.230  0.00  0.00     0.028 C 
ATOM     12  C   LIG d   1       4.838  87.090 112.220  0.00  0.00     0.006 C 
ENDBRANCH   8  11
ENDBRANCH   7   8
ENDBRANCH   1   7
BRANCH   6  13
ATOM     13  N   LIG d   1       1.112  85.059 109.605  0.00  0.00    -0.311 N 
ATOM     14  C   LIG d   1       0.010  84.741 110.283  0.00  0.00     0.210 C 
ATOM     15  C   LIG d   1      -1.029  85.862 110.390  0.00  0.00     0.109 C 
ATOM     16  O   LIG d   1      -0.191  83.648 110.832  0.00  0.00    -0.276 OA
ATOM     17  H   LIG d   1       1.206  85.979 109.220  0.00  0.00     0.149 HD
ENDBRANCH   6  13
BRANCH   5  18
ATOM     18  N   LIG d   1       1.357  83.212 107.184  0.00  0.00     0.381 N 
ATOM     19  H   LIG d   1       1.866  84.008 106.853  0.00  0.00    -0.090 HD
ATOM     20  H   LIG d   1       0.381  83.448 107.204  0.00  0.00    -0.090 HD
ATOM     21  H   LIG d   1       1.508  82.437 106.576  0.00  0.00    -0.090 HD
ENDBRANCH   5  18
BRANCH   3  22
ATOM     22  C   LIG d   1       4.168  80.370 109.822  0.00  0.00     0.382 C 
ATOM     23  O   LIG d   1       3.487  79.325 109.688  0.00  0.00    -0.241 OA
ATOM     24  O   LIG d   1       5.370  80.282 110.137  0.00  0.00    -0.241 OA
ENDBRANCH   3  22
TORSDOF 7
ENDMDL
MODEL 9
REMARK VINA RESULT:      -5.6      2.403      4.849
REMARK  7 active torsions:
REMARK  status: ('A' for Active; 'I' for Inactive)
REMARK    1  A    between atoms: C_2  and  C_3 
REMARK    2  A    between atoms: C_3  and  O_6 
REMARK    3  A    between atoms: C_3  and  C_4 
REMARK    4  A    between atoms: C_7  and  O_6 
REMARK    5  A    between atoms: C_9  and  C_10 
REMARK    6  A    between atoms: N_15  and  C_14 
REMARK    7  A    between atoms: N_20  and  C_19 
REMARK       I    between atoms: C_22  and  N_20 
ROOT
ATOM      1  C   LIG d   1       2.175  82.793 111.971  0.00  0.00     0.161 C 
ATOM      2  C   LIG d   1       1.055  81.962 112.142  0.00  0.00     0.016 C 
ATOM      3  C   LIG d   1      -0.254  82.453 112.353  0.00  0.00     0.038 C 
ATOM      4  C   LIG d   1      -0.558  83.819 112.257  0.00  0.00     0.028 C 
ATOM      5  C   LIG d   1       0.622  84.727 112.588  0.00  0.00    -0.047 C 
ATOM      6  C   LIG d   1       1.845  84.285 111.753  0.00  0.00     0.091 C 
ENDROOT
BRANCH   1   7
ATOM      7  O   LIG d   1       2.992  82.297 110.893  0.00  0.00    -0.368 OA
BRANCH   7   8
ATOM      8  C   LIG d   1       2.426  81.218 110.108  0.00  0.00     0.119 C 
BRANCH   8   9
ATOM      9  C   LIG d   1       3.539  80.176 109.884  0.00  0.00     0.028 C 
ATOM     10  C   LIG d   1       4.937  80.734 110.200  0.00  0.00     0.006 C 
ENDBRANCH   8   9
BRANCH   8  11
ATOM     11  C   LIG d   1       2.029  81.696 108.708  0.00  0.00     0.028 C 
ATOM     12  C   LIG d   1       2.605  83.079 108.365  0.00  0.00     0.006 C 
ENDBRANCH   8  11
ENDBRANCH   7   8
ENDBRANCH   1   7
BRANCH   6  13
ATOM     13  N   LIG d   1       3.066  85.067 112.078  0.00  0.00    -0.311 N 
ATOM     14  C   LIG d   1       3.378  86.219 111.485  0.00  0.00     0.210 C 
ATOM     15  C   LIG d   1       4.692  86.852 111.954  0.00  0.00     0.109 C 
ATOM     16  O   LIG d   1       2.675  86.792 110.640  0.00  0.00    -0.276 OA
ATOM     17  H   LIG d   1       3.677  84.691 112.776  0.00  0.00     0.149 HD
ENDBRANCH   6  13
BRANCH   5  18
ATOM     18  N   LIG d   1       0.207  86.116 112.315  0.00  0.00     0.381 N 
ATOM     19  H   LIG d   1      -0.725  86.262 112.648  0.00  0.00    -0.090 HD
ATOM     20  H   LIG d   1       0.214  86.268 111.322  0.00  0.00    -0.090 HD
ATOM     21  H   LIG d   1       0.830  86.752 112.760  0.00  0.00    -0.090 HD
ENDBRANCH   5  18
BRANCH   3  22
ATOM     22  C   LIG d   1      -1.269  81.576 112.704  0.00  0.00     0.382 C 
ATOM     23  O   LIG d   1      -0.994  80.393 113.019  0.00  0.00    -0.241 OA
ATOM     24  O   LIG d   1      -2.459  81.940 112.666  0.00  0.00    -0.241 OA
ENDBRANCH   3  22
TORSDOF 7
ENDMDL
