MODEL 1
REMARK VINA RESULT:      -6.6      0.000      0.000
REMARK  7 active torsions:
REMARK  status: ('A' for Active; 'I' for Inactive)
REMARK    1  A    between atoms: C_2  and  C_3 
REMARK    2  A    between atoms: C_3  and  O_6 
REMARK    3  A    between atoms: C_3  and  C_4 
REMARK    4  A    between atoms: C_7  and  O_6 
REMARK    5  A    between atoms: C_9  and  C_10 
REMARK    6  A    between atoms: N_15  and  C_14 
REMARK    7  A    between atoms: N_20  and  C_19 
REMARK       I    between atoms: C_22  and  N_20 
ROOT
ATOM      1  C   LIG d   1       2.245  84.003 109.685  0.00  0.00     0.161 C 
ATOM      2  C   LIG d   1       2.216  85.275 110.280  0.00  0.00     0.016 C 
ATOM      3  C   LIG d   1       1.274  85.653 111.264  0.00  0.00     0.038 C 
ATOM      4  C   LIG d   1       0.385  84.729 111.833  0.00  0.00     0.028 C 
ATOM      5  C   LIG d   1       0.042  83.568 110.905  0.00  0.00    -0.047 C 
ATOM      6  C   LIG d   1       1.353  82.947 110.372  0.00  0.00     0.091 C 
ENDROOT
BRANCH   1   7
ATOM      7  O   LIG d   1       3.605  83.532 109.601  0.00  0.00    -0.368 OA
BRANCH   7   8
ATOM      8  C   LIG d   1       3.996  82.538 110.579  0.00  0.00     0.119 C 
BRANCH   8   9
ATOM      9  C   LIG d   1       4.620  83.285 111.774  0.00  0.00     0.028 C 
ATOM     10  C   LIG d   1       3.846  83.049 113.082  0.00  0.00     0.006 C 
ENDBRANCH   8   9
BRANCH   8  11
ATOM     11  C   LIG d   1       5.109  81.634 110.040  0.00  0.00     0.028 C 
ATOM     12  C   LIG d   1       4.604  80.237 109.648  0.00  0.00     0.006 C 
ENDBRANCH   8  11
ENDBRANCH   7   8
ENDBRANCH   1   7
BRANCH   6  13
ATOM     13  N   LIG d   1       1.107  81.858 109.391  0.00  0.00    -0.311 N 
ATOM     14  C   LIG d   1       0.998  80.575 109.732  0.00  0.00     0.210 C 
ATOM     15  C   LIG d   1       0.765  79.613 108.563  0.00  0.00     0.109 C 
ATOM     16  O   LIG d   1       1.040  80.147 110.895  0.00  0.00    -0.276 OA
ATOM     17  H   LIG d   1       1.029  82.121 108.428  0.00  0.00     0.149 HD
ENDBRANCH   6  13
BRANCH   5  18
ATOM     18  N   LIG d   1      -0.781  82.613 111.671  0.00  0.00     0.381 N 
ATOM     19  H   LIG d   1      -0.672  81.693 111.294  0.00  0.00    -0.090 HD
ATOM     20  H   LIG d   1      -1.747  82.876 111.588  0.00  0.00    -0.090 HD
ATOM     21  H   LIG d   1      -0.508  82.621 112.630  0.00  0.00    -0.090 HD
ENDBRANCH   5  18
BRANCH   3  22
ATOM     22  C   LIG d   1       1.189  86.979 111.660  0.00  0.00     0.382 C 
ATOM     23  O   LIG d   1       0.073  87.480 111.938  0.00  0.00    -0.241 OA
ATOM     24  O   LIG d   1       2.209  87.693 111.700  0.00  0.00    -0.241 OA
ENDBRANCH   3  22
TORSDOF 7
ENDMDL
MODEL 2
REMARK VINA RESULT:      -6.2      2.411      5.059
REMARK  7 active torsions:
REMARK  status: ('A' for Active; 'I' for Inactive)
REMARK    1  A    between atoms: C_2  and  C_3 
REMARK    2  A    between atoms: C_3  and  O_6 
REMARK    3  A    between atoms: C_3  and  C_4 
REMARK    4  A    between atoms: C_7  and  O_6 
REMARK    5  A    between atoms: C_9  and  C_10 
REMARK    6  A    between atoms: N_15  and  C_14 
REMARK    7  A    between atoms: N_20  and  C_19 
REMARK       I    between atoms: C_22  and  N_20 
ROOT
ATOM      1  C   LIG d   1       1.585  81.752 111.946  0.00  0.00     0.161 C 
ATOM      2  C   LIG d   1       2.678  82.010 111.101  0.00  0.00     0.016 C 
ATOM      3  C   LIG d   1       2.866  81.371 109.855  0.00  0.00     0.038 C 
ATOM      4  C   LIG d   1       1.889  80.534 109.295  0.00  0.00     0.028 C 
ATOM      5  C   LIG d   1       1.007  79.853 110.336  0.00  0.00    -0.047 C 
ATOM      6  C   LIG d   1       0.452  80.925 111.302  0.00  0.00     0.091 C 
ENDROOT
BRANCH   1   7
ATOM      7  O   LIG d   1       1.067  82.991 112.467  0.00  0.00    -0.368 OA
BRANCH   7   8
ATOM      8  C   LIG d   1       1.027  84.105 111.542  0.00  0.00     0.119 C 
BRANCH   8   9
ATOM      9  C   LIG d   1       1.757  85.287 112.209  0.00  0.00     0.028 C 
ATOM     10  C   LIG d   1       2.946  85.791 111.374  0.00  0.00     0.006 C 
ENDBRANCH   8   9
BRANCH   8  11
ATOM     11  C   LIG d   1      -0.408  84.590 111.315  0.00  0.00     0.028 C 
ATOM     12  C   LIG d   1      -0.735  85.871 112.098  0.00  0.00     0.006 C 
ENDBRANCH   8  11
ENDBRANCH   7   8
ENDBRANCH   1   7
BRANCH   6  13
ATOM     13  N   LIG d   1      -0.354  80.334 112.402  0.00  0.00    -0.311 N 
ATOM     14  C   LIG d   1      -1.524  80.829 112.801  0.00  0.00     0.210 C 
ATOM     15  C   LIG d   1      -2.180  80.079 113.965  0.00  0.00     0.109 C 
ATOM     16  O   LIG d   1      -2.097  81.798 112.280  0.00  0.00    -0.276 OA
ATOM     17  H   LIG d   1       0.022  79.526 112.860  0.00  0.00     0.149 HD
ENDBRANCH   6  13
BRANCH   5  18
ATOM     18  N   LIG d   1      -0.052  79.123 109.614  0.00  0.00     0.381 N 
ATOM     19  H   LIG d   1       0.360  78.444 109.005  0.00  0.00    -0.090 HD
ATOM     20  H   LIG d   1      -0.573  79.775 109.054  0.00  0.00    -0.090 HD
ATOM     21  H   LIG d   1      -0.659  78.672 110.263  0.00  0.00    -0.090 HD
ENDBRANCH   5  18
BRANCH   3  22
ATOM     22  C   LIG d   1       4.062  81.535 109.172  0.00  0.00     0.382 C 
ATOM     23  O   LIG d   1       5.141  81.616 109.807  0.00  0.00    -0.241 OA
ATOM     24  O   LIG d   1       4.071  81.647 107.931  0.00  0.00    -0.241 OA
ENDBRANCH   3  22
TORSDOF 7
ENDMDL
MODEL 3
REMARK VINA RESULT:      -6.1      1.852      2.764
REMARK  7 active torsions:
REMARK  status: ('A' for Active; 'I' for Inactive)
REMARK    1  A    between atoms: C_2  and  C_3 
REMARK    2  A    between atoms: C_3  and  O_6 
REMARK    3  A    between atoms: C_3  and  C_4 
REMARK    4  A    between atoms: C_7  and  O_6 
REMARK    5  A    between atoms: C_9  and  C_10 
REMARK    6  A    between atoms: N_15  and  C_14 
REMARK    7  A    between atoms: N_20  and  C_19 
REMARK       I    between atoms: C_22  and  N_20 
ROOT
ATOM      1  C   LIG d   1       2.512  85.199 110.545  0.00  0.00     0.161 C 
ATOM      2  C   LIG d   1       1.482  85.905 111.188  0.00  0.00     0.016 C 
ATOM      3  C   LIG d   1       0.184  85.382 111.384  0.00  0.00     0.038 C 
ATOM      4  C   LIG d   1      -0.132  84.048 111.082  0.00  0.00     0.028 C 
ATOM      5  C   LIG d   1       0.731  83.459 109.970  0.00  0.00    -0.047 C 
ATOM      6  C   LIG d   1       2.219  83.702 110.308  0.00  0.00     0.091 C 
ENDROOT
BRANCH   1   7
ATOM      7  O   LIG d   1       3.744  85.358 111.275  0.00  0.00    -0.368 OA
BRANCH   7   8
ATOM      8  C   LIG d   1       3.760  84.829 112.624  0.00  0.00     0.119 C 
BRANCH   8   9
ATOM      9  C   LIG d   1       4.334  85.923 113.544  0.00  0.00     0.028 C 
ATOM     10  C   LIG d   1       4.940  87.095 112.755  0.00  0.00     0.006 C 
ENDBRANCH   8   9
BRANCH   8  11
ATOM     11  C   LIG d   1       4.726  83.647 112.747  0.00  0.00     0.028 C 
ATOM     12  C   LIG d   1       4.063  82.395 113.345  0.00  0.00     0.006 C 
ENDBRANCH   8  11
ENDBRANCH   7   8
ENDBRANCH   1   7
BRANCH   6  13
ATOM     13  N   LIG d   1       3.129  83.231 109.231  0.00  0.00    -0.311 N 
ATOM     14  C   LIG d   1       3.698  82.027 109.227  0.00  0.00     0.210 C 
ATOM     15  C   LIG d   1       4.617  81.750 108.033  0.00  0.00     0.109 C 
ATOM     16  O   LIG d   1       3.503  81.149 110.081  0.00  0.00    -0.276 OA
ATOM     17  H   LIG d   1       3.317  83.868 108.482  0.00  0.00     0.149 HD
ENDBRANCH   6  13
BRANCH   5  18
ATOM     18  N   LIG d   1       0.390  82.029 109.854  0.00  0.00     0.381 N 
ATOM     19  H   LIG d   1       1.169  81.471 110.141  0.00  0.00    -0.090 HD
ATOM     20  H   LIG d   1       0.191  81.820 108.891  0.00  0.00    -0.090 HD
ATOM     21  H   LIG d   1      -0.404  81.820 110.418  0.00  0.00    -0.090 HD
ENDBRANCH   5  18
BRANCH   3  22
ATOM     22  C   LIG d   1      -0.827  86.208 111.851  0.00  0.00     0.382 C 
ATOM     23  O   LIG d   1      -1.679  86.669 111.053  0.00  0.00    -0.241 OA
ATOM     24  O   LIG d   1      -0.873  86.533 113.052  0.00  0.00    -0.241 OA
ENDBRANCH   3  22
TORSDOF 7
ENDMDL
MODEL 4
REMARK VINA RESULT:      -6.0      2.756      5.038
REMARK  7 active torsions:
REMARK  status: ('A' for Active; 'I' for Inactive)
REMARK    1  A    between atoms: C_2  and  C_3 
REMARK    2  A    between atoms: C_3  and  O_6 
REMARK    3  A    between atoms: C_3  and  C_4 
REMARK    4  A    between atoms: C_7  and  O_6 
REMARK    5  A    between atoms: C_9  and  C_10 
REMARK    6  A    between atoms: N_15  and  C_14 
REMARK    7  A    between atoms: N_20  and  C_19 
REMARK       I    between atoms: C_22  and  N_20 
ROOT
ATOM      1  C   LIG d   1       0.473  81.885 111.442  0.00  0.00     0.161 C 
ATOM      2  C   LIG d   1      -0.697  81.656 112.186  0.00  0.00     0.016 C 
ATOM      3  C   LIG d   1      -1.316  80.389 112.290  0.00  0.00     0.038 C 
ATOM      4  C   LIG d   1      -0.720  79.228 111.779  0.00  0.00     0.028 C 
ATOM      5  C   LIG d   1       0.200  79.491 110.591  0.00  0.00    -0.047 C 
ATOM      6  C   LIG d   1       1.199  80.608 110.969  0.00  0.00     0.091 C 
ENDROOT
BRANCH   1   7
ATOM      7  O   LIG d   1       1.373  82.724 112.193  0.00  0.00    -0.368 OA
BRANCH   7   8
ATOM      8  C   LIG d   1       1.357  84.134 111.861  0.00  0.00     0.119 C 
BRANCH   8   9
ATOM      9  C   LIG d   1       0.953  84.256 110.379  0.00  0.00     0.028 C 
ATOM     10  C   LIG d   1      -0.212  85.237 110.166  0.00  0.00     0.006 C 
ENDBRANCH   8   9
BRANCH   8  11
ATOM     11  C   LIG d   1       2.758  84.744 111.951  0.00  0.00     0.028 C 
ATOM     12  C   LIG d   1       3.433  84.893 110.579  0.00  0.00     0.006 C 
ENDBRANCH   8  11
ENDBRANCH   7   8
ENDBRANCH   1   7
BRANCH   6  13
ATOM     13  N   LIG d   1       2.081  80.987 109.834  0.00  0.00    -0.311 N 
ATOM     14  C   LIG d   1       3.384  81.228 109.967  0.00  0.00     0.210 C 
ATOM     15  C   LIG d   1       4.104  81.623 108.674  0.00  0.00     0.109 C 
ATOM     16  O   LIG d   1       4.019  81.121 111.028  0.00  0.00    -0.276 OA
ATOM     17  H   LIG d   1       1.655  81.067 108.932  0.00  0.00     0.149 HD
ENDBRANCH   6  13
BRANCH   5  18
ATOM     18  N   LIG d   1       0.859  78.218 110.246  0.00  0.00     0.381 N 
ATOM     19  H   LIG d   1       1.079  78.203 109.271  0.00  0.00    -0.090 HD
ATOM     20  H   LIG d   1       0.226  77.461 110.438  0.00  0.00    -0.090 HD
ATOM     21  H   LIG d   1       1.691  78.108 110.783  0.00  0.00    -0.090 HD
ENDBRANCH   5  18
BRANCH   3  22
ATOM     22  C   LIG d   1      -2.567  80.283 112.879  0.00  0.00     0.382 C 
ATOM     23  O   LIG d   1      -3.333  81.277 112.909  0.00  0.00    -0.241 OA
ATOM     24  O   LIG d   1      -2.922  79.219 113.421  0.00  0.00    -0.241 OA
ENDBRANCH   3  22
TORSDOF 7
ENDMDL
MODEL 5
REMARK VINA RESULT:      -5.9      2.679      4.078
REMARK  7 active torsions:
REMARK  status: ('A' for Active; 'I' for Inactive)
REMARK    1  A    between atoms: C_2  and  C_3 
REMARK    2  A    between atoms: C_3  and  O_6 
REMARK    3  A    between atoms: C_3  and  C_4 
REMARK    4  A    between atoms: C_7  and  O_6 
REMARK    5  A    between atoms: C_9  and  C_10 
REMARK    6  A    between atoms: N_15  and  C_14 
REMARK    7  A    between atoms: N_20  and  C_19 
REMARK       I    between atoms: C_22  and  N_20 
ROOT
ATOM      1  C   LIG d   1       2.621  84.817 111.770  0.00  0.00     0.161 C 
ATOM      2  C   LIG d   1       3.308  86.041 111.826  0.00  0.00     0.016 C 
ATOM      3  C   LIG d   1       4.095  86.442 112.930  0.00  0.00     0.038 C 
ATOM      4  C   LIG d   1       4.371  85.575 113.997  0.00  0.00     0.028 C 
ATOM      5  C   LIG d   1       3.290  84.522 114.218  0.00  0.00    -0.047 C 
ATOM      6  C   LIG d   1       3.001  83.811 112.876  0.00  0.00     0.091 C 
ENDROOT
BRANCH   1   7
ATOM      7  O   LIG d   1       2.792  84.220 110.469  0.00  0.00    -0.368 OA
BRANCH   7   8
ATOM      8  C   LIG d   1       1.576  83.858 109.769  0.00  0.00     0.119 C 
BRANCH   8   9
ATOM      9  C   LIG d   1       1.984  83.057 108.517  0.00  0.00     0.028 C 
ATOM     10  C   LIG d   1       3.398  82.463 108.635  0.00  0.00     0.006 C 
ENDBRANCH   8   9
BRANCH   8  11
ATOM     11  C   LIG d   1       0.849  85.097 109.238  0.00  0.00     0.028 C 
ATOM     12  C   LIG d   1      -0.413  85.439 110.046  0.00  0.00     0.006 C 
ENDBRANCH   8  11
ENDBRANCH   7   8
ENDBRANCH   1   7
BRANCH   6  13
ATOM     13  N   LIG d   1       1.895  82.824 112.985  0.00  0.00    -0.311 N 
ATOM     14  C   LIG d   1       1.955  81.596 112.471  0.00  0.00     0.210 C 
ATOM     15  C   LIG d   1       0.698  80.746 112.679  0.00  0.00     0.109 C 
ATOM     16  O   LIG d   1       2.943  81.120 111.891  0.00  0.00    -0.276 OA
ATOM     17  H   LIG d   1       1.068  83.116 113.467  0.00  0.00     0.149 HD
ENDBRANCH   6  13
BRANCH   5  18
ATOM     18  N   LIG d   1       3.770  83.603 115.267  0.00  0.00     0.381 N 
ATOM     19  H   LIG d   1       4.278  82.848 114.850  0.00  0.00    -0.090 HD
ATOM     20  H   LIG d   1       2.978  83.220 115.752  0.00  0.00    -0.090 HD
ATOM     21  H   LIG d   1       4.356  84.093 115.907  0.00  0.00    -0.090 HD
ENDBRANCH   5  18
BRANCH   3  22
ATOM     22  C   LIG d   1       4.581  87.739 112.993  0.00  0.00     0.382 C 
ATOM     23  O   LIG d   1       3.797  88.692 113.218  0.00  0.00    -0.241 OA
ATOM     24  O   LIG d   1       5.786  87.972 112.782  0.00  0.00    -0.241 OA
ENDBRANCH   3  22
TORSDOF 7
ENDMDL
MODEL 6
REMARK VINA RESULT:      -5.9      2.490      4.069
REMARK  7 active torsions:
REMARK  status: ('A' for Active; 'I' for Inactive)
REMARK    1  A    between atoms: C_2  and  C_3 
REMARK    2  A    between atoms: C_3  and  O_6 
REMARK    3  A    between atoms: C_3  and  C_4 
REMARK    4  A    between atoms: C_7  and  O_6 
REMARK    5  A    between atoms: C_9  and  C_10 
REMARK    6  A    between atoms: N_15  and  C_14 
REMARK    7  A    between atoms: N_20  and  C_19 
REMARK       I    between atoms: C_22  and  N_20 
ROOT
ATOM      1  C   LIG d   1       0.200  82.642 111.498  0.00  0.00     0.161 C 
ATOM      2  C   LIG d   1      -0.311  83.892 111.885  0.00  0.00     0.016 C 
ATOM      3  C   LIG d   1      -0.224  85.051 111.080  0.00  0.00     0.038 C 
ATOM      4  C   LIG d   1       0.250  85.004 109.761  0.00  0.00     0.028 C 
ATOM      5  C   LIG d   1       1.239  83.870 109.513  0.00  0.00    -0.047 C 
ATOM      6  C   LIG d   1       0.621  82.545 110.016  0.00  0.00     0.091 C 
ENDROOT
BRANCH   1   7
ATOM      7  O   LIG d   1      -0.750  81.605 111.817  0.00  0.00    -0.368 OA
BRANCH   7   8
ATOM      8  C   LIG d   1      -0.192  80.349 112.275  0.00  0.00     0.119 C 
BRANCH   8   9
ATOM      9  C   LIG d   1      -1.336  79.317 112.299  0.00  0.00     0.028 C 
ATOM     10  C   LIG d   1      -1.213  78.278 111.172  0.00  0.00     0.006 C 
ENDBRANCH   8   9
BRANCH   8  11
ATOM     11  C   LIG d   1       0.294  80.450 113.724  0.00  0.00     0.028 C 
ATOM     12  C   LIG d   1      -0.667  79.785 114.722  0.00  0.00     0.006 C 
ENDBRANCH   8  11
ENDBRANCH   7   8
ENDBRANCH   1   7
BRANCH   6  13
ATOM     13  N   LIG d   1       1.557  81.398 109.889  0.00  0.00    -0.311 N 
ATOM     14  C   LIG d   1       1.282  80.303 109.181  0.00  0.00     0.210 C 
ATOM     15  C   LIG d   1       2.377  79.232 109.198  0.00  0.00     0.109 C 
ATOM     16  O   LIG d   1       0.250  80.132 108.516  0.00  0.00    -0.276 OA
ATOM     17  H   LIG d   1       2.431  81.467 110.371  0.00  0.00     0.149 HD
ENDBRANCH   6  13
BRANCH   5  18
ATOM     18  N   LIG d   1       1.545  83.853 108.070  0.00  0.00     0.381 N 
ATOM     19  H   LIG d   1       2.507  84.086 107.925  0.00  0.00    -0.090 HD
ATOM     20  H   LIG d   1       0.980  84.544 107.609  0.00  0.00    -0.090 HD
ATOM     21  H   LIG d   1       1.354  82.951 107.691  0.00  0.00    -0.090 HD
ENDBRANCH   5  18
BRANCH   3  22
ATOM     22  C   LIG d   1      -0.577  86.283 111.609  0.00  0.00     0.382 C 
ATOM     23  O   LIG d   1       0.308  87.139 111.849  0.00  0.00    -0.241 OA
ATOM     24  O   LIG d   1      -1.764  86.533 111.891  0.00  0.00    -0.241 OA
ENDBRANCH   3  22
TORSDOF 7
ENDMDL
MODEL 7
REMARK VINA RESULT:      -5.7      2.632      5.592
REMARK  7 active torsions:
REMARK  status: ('A' for Active; 'I' for Inactive)
REMARK    1  A    between atoms: C_2  and  C_3 
REMARK    2  A    between atoms: C_3  and  O_6 
REMARK    3  A    between atoms: C_3  and  C_4 
REMARK    4  A    between atoms: C_7  and  O_6 
REMARK    5  A    between atoms: C_9  and  C_10 
REMARK    6  A    between atoms: N_15  and  C_14 
REMARK    7  A    between atoms: N_20  and  C_19 
REMARK       I    between atoms: C_22  and  N_20 
ROOT
ATOM      1  C   LIG d   1       2.843  84.660 111.014  0.00  0.00     0.161 C 
ATOM      2  C   LIG d   1       2.857  83.988 109.780  0.00  0.00     0.016 C 
ATOM      3  C   LIG d   1       3.471  82.730 109.586  0.00  0.00     0.038 C 
ATOM      4  C   LIG d   1       3.986  81.983 110.656  0.00  0.00     0.028 C 
ATOM      5  C   LIG d   1       4.443  82.842 111.830  0.00  0.00    -0.047 C 
ATOM      6  C   LIG d   1       3.302  83.810 112.218  0.00  0.00     0.091 C 
ENDROOT
BRANCH   1   7
ATOM      7  O   LIG d   1       1.532  85.207 111.257  0.00  0.00    -0.368 OA
BRANCH   7   8
ATOM      8  C   LIG d   1       0.428  84.533 110.604  0.00  0.00     0.119 C 
BRANCH   8   9
ATOM      9  C   LIG d   1      -0.631  85.599 110.267  0.00  0.00     0.028 C 
ATOM     10  C   LIG d   1      -1.080  86.393 111.505  0.00  0.00     0.006 C 
ENDBRANCH   8   9
BRANCH   8  11
ATOM     11  C   LIG d   1      -0.269  83.555 111.555  0.00  0.00     0.028 C 
ATOM     12  C   LIG d   1       0.197  82.103 111.362  0.00  0.00     0.006 C 
ENDBRANCH   8  11
ENDBRANCH   7   8
ENDBRANCH   1   7
BRANCH   6  13
ATOM     13  N   LIG d   1       3.696  84.745 113.304  0.00  0.00    -0.311 N 
ATOM     14  C   LIG d   1       2.967  84.944 114.401  0.00  0.00     0.210 C 
ATOM     15  C   LIG d   1       3.545  85.965 115.385  0.00  0.00     0.109 C 
ATOM     16  O   LIG d   1       1.913  84.347 114.667  0.00  0.00    -0.276 OA
ATOM     17  H   LIG d   1       4.554  85.248 113.184  0.00  0.00     0.149 HD
ENDBRANCH   6  13
BRANCH   5  18
ATOM     18  N   LIG d   1       4.826  81.932 112.926  0.00  0.00     0.381 N 
ATOM     19  H   LIG d   1       4.554  82.326 113.804  0.00  0.00    -0.090 HD
ATOM     20  H   LIG d   1       5.825  81.824 112.924  0.00  0.00    -0.090 HD
ATOM     21  H   LIG d   1       4.389  81.046 112.802  0.00  0.00    -0.090 HD
ENDBRANCH   5  18
BRANCH   3  22
ATOM     22  C   LIG d   1       3.611  82.224 108.302  0.00  0.00     0.382 C 
ATOM     23  O   LIG d   1       4.718  81.769 107.925  0.00  0.00    -0.241 OA
ATOM     24  O   LIG d   1       2.656  82.257 107.503  0.00  0.00    -0.241 OA
ENDBRANCH   3  22
TORSDOF 7
ENDMDL
MODEL 8
REMARK VINA RESULT:      -5.7      2.372      4.404
REMARK  7 active torsions:
REMARK  status: ('A' for Active; 'I' for Inactive)
REMARK    1  A    between atoms: C_2  and  C_3 
REMARK    2  A    between atoms: C_3  and  O_6 
REMARK    3  A    between atoms: C_3  and  C_4 
REMARK    4  A    between atoms: C_7  and  O_6 
REMARK    5  A    between atoms: C_9  and  C_10 
REMARK    6  A    between atoms: N_15  and  C_14 
REMARK    7  A    between atoms: N_20  and  C_19 
REMARK       I    between atoms: C_22  and  N_20 
ROOT
ATOM      1  C   LIG d   1       1.704  82.619 112.319  0.00  0.00     0.161 C 
ATOM      2  C   LIG d   1       2.512  83.307 113.239  0.00  0.00     0.016 C 
ATOM      3  C   LIG d   1       3.925  83.328 113.171  0.00  0.00     0.038 C 
ATOM      4  C   LIG d   1       4.623  82.784 112.083  0.00  0.00     0.028 C 
ATOM      5  C   LIG d   1       3.879  81.645 111.394  0.00  0.00    -0.047 C 
ATOM      6  C   LIG d   1       2.443  82.112 111.062  0.00  0.00     0.091 C 
ENDROOT
BRANCH   1   7
ATOM      7  O   LIG d   1       0.582  83.441 111.943  0.00  0.00    -0.368 OA
BRANCH   7   8
ATOM      8  C   LIG d   1       0.901  84.761 111.436  0.00  0.00     0.119 C 
BRANCH   8   9
ATOM      9  C   LIG d   1       0.270  85.789 112.395  0.00  0.00     0.028 C 
ATOM     10  C   LIG d   1      -1.022  86.403 111.830  0.00  0.00     0.006 C 
ENDBRANCH   8   9
BRANCH   8  11
ATOM     11  C   LIG d   1       0.238  85.012 110.079  0.00  0.00     0.028 C 
ATOM     12  C   LIG d   1       1.168  84.703 108.895  0.00  0.00     0.006 C 
ENDBRANCH   8  11
ENDBRANCH   7   8
ENDBRANCH   1   7
BRANCH   6  13
ATOM     13  N   LIG d   1       1.619  81.030 110.462  0.00  0.00    -0.311 N 
ATOM     14  C   LIG d   1       1.529  80.819 109.150  0.00  0.00     0.210 C 
ATOM     15  C   LIG d   1       0.609  79.664 108.743  0.00  0.00     0.109 C 
ATOM     16  O   LIG d   1       2.147  81.460 108.287  0.00  0.00    -0.276 OA
ATOM     17  H   LIG d   1       1.109  80.443 111.092  0.00  0.00     0.149 HD
ENDBRANCH   6  13
BRANCH   5  18
ATOM     18  N   LIG d   1       4.654  81.264 110.199  0.00  0.00     0.381 N 
ATOM     19  H   LIG d   1       5.571  80.970 110.469  0.00  0.00    -0.090 HD
ATOM     20  H   LIG d   1       4.744  82.067 109.601  0.00  0.00    -0.090 HD
ATOM     21  H   LIG d   1       4.191  80.529 109.712  0.00  0.00    -0.090 HD
ENDBRANCH   5  18
BRANCH   3  22
ATOM     22  C   LIG d   1       4.655  83.865 114.220  0.00  0.00     0.382 C 
ATOM     23  O   LIG d   1       4.521  85.075 114.523  0.00  0.00    -0.241 OA
ATOM     24  O   LIG d   1       5.479  83.166 114.839  0.00  0.00    -0.241 OA
ENDBRANCH   3  22
TORSDOF 7
ENDMDL
MODEL 9
REMARK VINA RESULT:      -5.6      2.532      3.850
REMARK  7 active torsions:
REMARK  status: ('A' for Active; 'I' for Inactive)
REMARK    1  A    between atoms: C_2  and  C_3 
REMARK    2  A    between atoms: C_3  and  O_6 
REMARK    3  A    between atoms: C_3  and  C_4 
REMARK    4  A    between atoms: C_7  and  O_6 
REMARK    5  A    between atoms: C_9  and  C_10 
REMARK    6  A    between atoms: N_15  and  C_14 
REMARK    7  A    between atoms: N_20  and  C_19 
REMARK       I    between atoms: C_22  and  N_20 
ROOT
ATOM      1  C   LIG d   1       1.717  83.846 112.358  0.00  0.00     0.161 C 
ATOM      2  C   LIG d   1       2.569  84.962 112.323  0.00  0.00     0.016 C 
ATOM      3  C   LIG d   1       3.877  84.959 112.860  0.00  0.00     0.038 C 
ATOM      4  C   LIG d   1       4.480  83.785 113.336  0.00  0.00     0.028 C 
ATOM      5  C   LIG d   1       3.480  82.756 113.852  0.00  0.00    -0.047 C 
ATOM      6  C   LIG d   1       2.397  82.525 112.773  0.00  0.00     0.091 C 
ENDROOT
BRANCH   1   7
ATOM      7  O   LIG d   1       1.061  83.693 111.083  0.00  0.00    -0.368 OA
BRANCH   7   8
ATOM      8  C   LIG d   1       1.682  84.367 109.962  0.00  0.00     0.119 C 
BRANCH   8   9
ATOM      9  C   LIG d   1       0.578  85.144 109.219  0.00  0.00     0.028 C 
ATOM     10  C   LIG d   1      -0.589  85.532 110.143  0.00  0.00     0.006 C 
ENDBRANCH   8   9
BRANCH   8  11
ATOM     11  C   LIG d   1       2.228  83.364 108.941  0.00  0.00     0.028 C 
ATOM     12  C   LIG d   1       3.656  82.899 109.268  0.00  0.00     0.006 C 
ENDBRANCH   8  11
ENDBRANCH   7   8
ENDBRANCH   1   7
BRANCH   6  13
ATOM     13  N   LIG d   1       1.332  81.595 113.230  0.00  0.00    -0.311 N 
ATOM     14  C   LIG d   1       0.810  80.642 112.459  0.00  0.00     0.210 C 
ATOM     15  C   LIG d   1      -0.291  79.806 113.119  0.00  0.00     0.109 C 
ATOM     16  O   LIG d   1       1.177  80.389 111.302  0.00  0.00    -0.276 OA
ATOM     17  H   LIG d   1       0.997  81.709 114.167  0.00  0.00     0.149 HD
ENDBRANCH   6  13
BRANCH   5  18
ATOM     18  N   LIG d   1       4.232  81.532 114.188  0.00  0.00     0.381 N 
ATOM     19  H   LIG d   1       4.335  80.963 113.371  0.00  0.00    -0.090 HD
ATOM     20  H   LIG d   1       3.714  81.011 114.873  0.00  0.00    -0.090 HD
ATOM     21  H   LIG d   1       5.129  81.772 114.550  0.00  0.00    -0.090 HD
ENDBRANCH   5  18
BRANCH   3  22
ATOM     22  C   LIG d   1       4.582  86.149 112.960  0.00  0.00     0.382 C 
ATOM     23  O   LIG d   1       4.870  86.613 114.090  0.00  0.00    -0.241 OA
ATOM     24  O   LIG d   1       4.894  86.786 111.937  0.00  0.00    -0.241 OA
ENDBRANCH   3  22
TORSDOF 7
ENDMDL
