MODEL 1
REMARK VINA RESULT:      -6.8      0.000      0.000
REMARK  7 active torsions:
REMARK  status: ('A' for Active; 'I' for Inactive)
REMARK    1  A    between atoms: C_2  and  C_3 
REMARK    2  A    between atoms: C_3  and  O_6 
REMARK    3  A    between atoms: C_3  and  C_4 
REMARK    4  A    between atoms: C_7  and  O_6 
REMARK    5  A    between atoms: C_9  and  C_10 
REMARK    6  A    between atoms: N_15  and  C_14 
REMARK    7  A    between atoms: N_20  and  C_19 
REMARK       I    between atoms: C_22  and  N_20 
ROOT
ATOM      1  C   LIG d   1       1.147  83.760 109.414  0.00  0.00     0.161 C 
ATOM      2  C   LIG d   1       0.803  85.055 109.835  0.00  0.00     0.016 C 
ATOM      3  C   LIG d   1      -0.067  85.316 110.919  0.00  0.00     0.038 C 
ATOM      4  C   LIG d   1      -0.535  84.292 111.756  0.00  0.00     0.028 C 
ATOM      5  C   LIG d   1      -0.621  82.936 111.065  0.00  0.00    -0.047 C 
ATOM      6  C   LIG d   1       0.734  82.633 110.384  0.00  0.00     0.091 C 
ENDROOT
BRANCH   1   7
ATOM      7  O   LIG d   1       2.561  83.694 109.142  0.00  0.00    -0.368 OA
BRANCH   7   8
ATOM      8  C   LIG d   1       3.421  83.485 110.289  0.00  0.00     0.119 C 
BRANCH   8   9
ATOM      9  C   LIG d   1       4.089  84.834 110.619  0.00  0.00     0.028 C 
ATOM     10  C   LIG d   1       3.817  85.286 112.063  0.00  0.00     0.006 C 
ENDBRANCH   8   9
BRANCH   8  11
ATOM     11  C   LIG d   1       4.573  82.532 109.955  0.00  0.00     0.028 C 
ATOM     12  C   LIG d   1       4.449  81.915 108.554  0.00  0.00     0.006 C 
ENDBRANCH   8  11
ENDBRANCH   7   8
ENDBRANCH   1   7
BRANCH   6  13
ATOM     13  N   LIG d   1       0.710  81.363 109.613  0.00  0.00    -0.311 N 
ATOM     14  C   LIG d   1       1.411  80.284 109.957  0.00  0.00     0.210 C 
ATOM     15  C   LIG d   1       1.258  79.086 109.014  0.00  0.00     0.109 C 
ATOM     16  O   LIG d   1       2.119  80.194 110.971  0.00  0.00    -0.276 OA
ATOM     17  H   LIG d   1       0.137  81.338 108.793  0.00  0.00     0.149 HD
ENDBRANCH   6  13
BRANCH   5  18
ATOM     18  N   LIG d   1      -0.990  81.937 112.086  0.00  0.00     0.381 N 
ATOM     19  H   LIG d   1      -1.890  81.555 111.876  0.00  0.00    -0.090 HD
ATOM     20  H   LIG d   1      -1.041  82.392 112.981  0.00  0.00    -0.090 HD
ATOM     21  H   LIG d   1      -0.310  81.210 112.113  0.00  0.00    -0.090 HD
ENDBRANCH   5  18
BRANCH   3  22
ATOM     22  C   LIG d   1      -0.508  86.610 111.150  0.00  0.00     0.382 C 
ATOM     23  O   LIG d   1      -1.666  86.948 110.807  0.00  0.00    -0.241 OA
ATOM     24  O   LIG d   1       0.252  87.456 111.658  0.00  0.00    -0.241 OA
ENDBRANCH   3  22
TORSDOF 7
ENDMDL
MODEL 2
REMARK VINA RESULT:      -6.2      2.308      4.593
REMARK  7 active torsions:
REMARK  status: ('A' for Active; 'I' for Inactive)
REMARK    1  A    between atoms: C_2  and  C_3 
REMARK    2  A    between atoms: C_3  and  O_6 
REMARK    3  A    between atoms: C_3  and  C_4 
REMARK    4  A    between atoms: C_7  and  O_6 
REMARK    5  A    between atoms: C_9  and  C_10 
REMARK    6  A    between atoms: N_15  and  C_14 
REMARK    7  A    between atoms: N_20  and  C_19 
REMARK       I    between atoms: C_22  and  N_20 
ROOT
ATOM      1  C   LIG d   1       1.351  82.186 111.883  0.00  0.00     0.161 C 
ATOM      2  C   LIG d   1       2.400  82.690 111.096  0.00  0.00     0.016 C 
ATOM      3  C   LIG d   1       2.565  82.378 109.727  0.00  0.00     0.038 C 
ATOM      4  C   LIG d   1       1.599  81.656 109.009  0.00  0.00     0.028 C 
ATOM      5  C   LIG d   1       0.784  80.705 109.879  0.00  0.00    -0.047 C 
ATOM      6  C   LIG d   1       0.226  81.487 111.090  0.00  0.00     0.091 C 
ENDROOT
BRANCH   1   7
ATOM      7  O   LIG d   1       0.806  83.239 112.703  0.00  0.00    -0.368 OA
BRANCH   7   8
ATOM      8  C   LIG d   1       0.859  84.574 112.143  0.00  0.00     0.119 C 
BRANCH   8   9
ATOM      9  C   LIG d   1       1.337  85.524 113.259  0.00  0.00     0.028 C 
ATOM     10  C   LIG d   1       2.706  86.152 112.948  0.00  0.00     0.006 C 
ENDBRANCH   8   9
BRANCH   8  11
ATOM     11  C   LIG d   1      -0.537  85.072 111.757  0.00  0.00     0.028 C 
ATOM     12  C   LIG d   1      -0.618  85.543 110.296  0.00  0.00     0.006 C 
ENDBRANCH   8  11
ENDBRANCH   7   8
ENDBRANCH   1   7
BRANCH   6  13
ATOM     13  N   LIG d   1      -0.514  80.613 112.037  0.00  0.00    -0.311 N 
ATOM     14  C   LIG d   1      -1.702  80.929 112.551  0.00  0.00     0.210 C 
ATOM     15  C   LIG d   1      -2.282  79.896 113.522  0.00  0.00     0.109 C 
ATOM     16  O   LIG d   1      -2.344  81.952 112.270  0.00  0.00    -0.276 OA
ATOM     17  H   LIG d   1      -0.080  79.748 112.295  0.00  0.00     0.149 HD
ENDBRANCH   6  13
BRANCH   5  18
ATOM     18  N   LIG d   1      -0.273  80.122 109.031  0.00  0.00     0.381 N 
ATOM     19  H   LIG d   1       0.134  79.500 108.362  0.00  0.00    -0.090 HD
ATOM     20  H   LIG d   1      -0.736  80.862 108.533  0.00  0.00    -0.090 HD
ATOM     21  H   LIG d   1      -0.931  79.631 109.596  0.00  0.00    -0.090 HD
ENDBRANCH   5  18
BRANCH   3  22
ATOM     22  C   LIG d   1       3.727  82.756 109.071  0.00  0.00     0.382 C 
ATOM     23  O   LIG d   1       4.306  81.948 108.305  0.00  0.00    -0.241 OA
ATOM     24  O   LIG d   1       4.227  83.879 109.269  0.00  0.00    -0.241 OA
ENDBRANCH   3  22
TORSDOF 7
ENDMDL
MODEL 3
REMARK VINA RESULT:      -6.1      2.823      3.851
REMARK  7 active torsions:
REMARK  status: ('A' for Active; 'I' for Inactive)
REMARK    1  A    between atoms: C_2  and  C_3 
REMARK    2  A    between atoms: C_3  and  O_6 
REMARK    3  A    between atoms: C_3  and  C_4 
REMARK    4  A    between atoms: C_7  and  O_6 
REMARK    5  A    between atoms: C_9  and  C_10 
REMARK    6  A    between atoms: N_15  and  C_14 
REMARK    7  A    between atoms: N_20  and  C_19 
REMARK       I    between atoms: C_22  and  N_20 
ROOT
ATOM      1  C   LIG d   1       2.991  84.532 111.516  0.00  0.00     0.161 C 
ATOM      2  C   LIG d   1       3.714  85.733 111.606  0.00  0.00     0.016 C 
ATOM      3  C   LIG d   1       3.795  86.506 112.788  0.00  0.00     0.038 C 
ATOM      4  C   LIG d   1       3.279  86.049 114.009  0.00  0.00     0.028 C 
ATOM      5  C   LIG d   1       2.109  85.084 113.850  0.00  0.00    -0.047 C 
ATOM      6  C   LIG d   1       2.515  83.961 112.868  0.00  0.00     0.091 C 
ENDROOT
BRANCH   1   7
ATOM      7  O   LIG d   1       3.765  83.549 110.801  0.00  0.00    -0.368 OA
BRANCH   7   8
ATOM      8  C   LIG d   1       3.643  83.567 109.358  0.00  0.00     0.119 C 
BRANCH   8   9
ATOM      9  C   LIG d   1       2.143  83.458 109.019  0.00  0.00     0.028 C 
ATOM     10  C   LIG d   1       1.899  83.116 107.540  0.00  0.00     0.006 C 
ENDBRANCH   8   9
BRANCH   8  11
ATOM     11  C   LIG d   1       4.291  82.330 108.728  0.00  0.00     0.028 C 
ATOM     12  C   LIG d   1       4.431  81.162 109.717  0.00  0.00     0.006 C 
ENDBRANCH   8  11
ENDBRANCH   7   8
ENDBRANCH   1   7
BRANCH   6  13
ATOM     13  N   LIG d   1       1.398  83.020 112.590  0.00  0.00    -0.311 N 
ATOM     14  C   LIG d   1       1.545  81.697 112.559  0.00  0.00     0.210 C 
ATOM     15  C   LIG d   1       0.270  80.912 112.235  0.00  0.00     0.109 C 
ATOM     16  O   LIG d   1       2.603  81.097 112.802  0.00  0.00    -0.276 OA
ATOM     17  H   LIG d   1       0.498  83.421 112.413  0.00  0.00     0.149 HD
ENDBRANCH   6  13
BRANCH   5  18
ATOM     18  N   LIG d   1       1.760  84.581 115.192  0.00  0.00     0.381 N 
ATOM     19  H   LIG d   1       0.984  83.952 115.127  0.00  0.00    -0.090 HD
ATOM     20  H   LIG d   1       1.490  85.357 115.770  0.00  0.00    -0.090 HD
ATOM     21  H   LIG d   1       2.543  84.113 115.595  0.00  0.00    -0.090 HD
ENDBRANCH   5  18
BRANCH   3  22
ATOM     22  C   LIG d   1       4.363  87.770 112.744  0.00  0.00     0.382 C 
ATOM     23  O   LIG d   1       3.639  88.788 112.861  0.00  0.00    -0.241 OA
ATOM     24  O   LIG d   1       5.585  87.907 112.546  0.00  0.00    -0.241 OA
ENDBRANCH   3  22
TORSDOF 7
ENDMDL
MODEL 4
REMARK VINA RESULT:      -6.1      2.700      4.409
REMARK  7 active torsions:
REMARK  status: ('A' for Active; 'I' for Inactive)
REMARK    1  A    between atoms: C_2  and  C_3 
REMARK    2  A    between atoms: C_3  and  O_6 
REMARK    3  A    between atoms: C_3  and  C_4 
REMARK    4  A    between atoms: C_7  and  O_6 
REMARK    5  A    between atoms: C_9  and  C_10 
REMARK    6  A    between atoms: N_15  and  C_14 
REMARK    7  A    between atoms: N_20  and  C_19 
REMARK       I    between atoms: C_22  and  N_20 
ROOT
ATOM      1  C   LIG d   1       0.222  82.034 111.242  0.00  0.00     0.161 C 
ATOM      2  C   LIG d   1      -0.935  81.790 112.000  0.00  0.00     0.016 C 
ATOM      3  C   LIG d   1      -1.541  80.518 112.107  0.00  0.00     0.038 C 
ATOM      4  C   LIG d   1      -0.941  79.364 111.582  0.00  0.00     0.028 C 
ATOM      5  C   LIG d   1      -0.040  79.642 110.383  0.00  0.00    -0.047 C 
ATOM      6  C   LIG d   1       0.954  80.766 110.753  0.00  0.00     0.091 C 
ENDROOT
BRANCH   1   7
ATOM      7  O   LIG d   1       1.124  82.878 111.985  0.00  0.00    -0.368 OA
BRANCH   7   8
ATOM      8  C   LIG d   1       1.338  84.208 111.451  0.00  0.00     0.119 C 
BRANCH   8   9
ATOM      9  C   LIG d   1       0.806  85.214 112.490  0.00  0.00     0.028 C 
ATOM     10  C   LIG d   1      -0.622  85.686 112.172  0.00  0.00     0.006 C 
ENDBRANCH   8   9
BRANCH   8  11
ATOM     11  C   LIG d   1       0.499  84.444 110.192  0.00  0.00     0.028 C 
ATOM     12  C   LIG d   1       1.353  84.811 108.967  0.00  0.00     0.006 C 
ENDBRANCH   8  11
ENDBRANCH   7   8
ENDBRANCH   1   7
BRANCH   6  13
ATOM     13  N   LIG d   1       1.817  81.159 109.608  0.00  0.00    -0.311 N 
ATOM     14  C   LIG d   1       3.129  81.358 109.714  0.00  0.00     0.210 C 
ATOM     15  C   LIG d   1       3.827  81.776 108.416  0.00  0.00     0.109 C 
ATOM     16  O   LIG d   1       3.788  81.196 110.753  0.00  0.00    -0.276 OA
ATOM     17  H   LIG d   1       1.370  81.281 108.721  0.00  0.00     0.149 HD
ENDBRANCH   6  13
BRANCH   5  18
ATOM     18  N   LIG d   1       0.627  78.376 110.024  0.00  0.00     0.381 N 
ATOM     19  H   LIG d   1       0.698  77.789 110.831  0.00  0.00    -0.090 HD
ATOM     20  H   LIG d   1       1.555  78.579 109.698  0.00  0.00    -0.090 HD
ATOM     21  H   LIG d   1       0.111  77.910 109.310  0.00  0.00    -0.090 HD
ENDBRANCH   5  18
BRANCH   3  22
ATOM     22  C   LIG d   1      -2.783  80.397 112.712  0.00  0.00     0.382 C 
ATOM     23  O   LIG d   1      -3.617  81.330 112.625  0.00  0.00    -0.241 OA
ATOM     24  O   LIG d   1      -3.064  79.384 113.382  0.00  0.00    -0.241 OA
ENDBRANCH   3  22
TORSDOF 7
ENDMDL
MODEL 5
REMARK VINA RESULT:      -6.1      2.412      4.692
REMARK  7 active torsions:
REMARK  status: ('A' for Active; 'I' for Inactive)
REMARK    1  A    between atoms: C_2  and  C_3 
REMARK    2  A    between atoms: C_3  and  O_6 
REMARK    3  A    between atoms: C_3  and  C_4 
REMARK    4  A    between atoms: C_7  and  O_6 
REMARK    5  A    between atoms: C_9  and  C_10 
REMARK    6  A    between atoms: N_15  and  C_14 
REMARK    7  A    between atoms: N_20  and  C_19 
REMARK       I    between atoms: C_22  and  N_20 
ROOT
ATOM      1  C   LIG d   1       1.952  82.305 112.350  0.00  0.00     0.161 C 
ATOM      2  C   LIG d   1       0.848  81.437 112.336  0.00  0.00     0.016 C 
ATOM      3  C   LIG d   1      -0.418  81.797 111.820  0.00  0.00     0.038 C 
ATOM      4  C   LIG d   1      -0.625  83.007 111.140  0.00  0.00     0.028 C 
ATOM      5  C   LIG d   1       0.325  84.117 111.577  0.00  0.00    -0.047 C 
ATOM      6  C   LIG d   1       1.777  83.589 111.512  0.00  0.00     0.091 C 
ENDROOT
BRANCH   1   7
ATOM      7  O   LIG d   1       3.136  81.595 111.936  0.00  0.00    -0.368 OA
BRANCH   7   8
ATOM      8  C   LIG d   1       3.300  81.406 110.508  0.00  0.00     0.119 C 
BRANCH   8   9
ATOM      9  C   LIG d   1       3.395  79.890 110.250  0.00  0.00     0.028 C 
ATOM     10  C   LIG d   1       2.137  79.332 109.563  0.00  0.00     0.006 C 
ENDBRANCH   8   9
BRANCH   8  11
ATOM     11  C   LIG d   1       4.631  81.985 110.019  0.00  0.00     0.028 C 
ATOM     12  C   LIG d   1       4.537  82.583 108.606  0.00  0.00     0.006 C 
ENDBRANCH   8  11
ENDBRANCH   7   8
ENDBRANCH   1   7
BRANCH   6  13
ATOM     13  N   LIG d   1       2.765  84.585 112.003  0.00  0.00    -0.311 N 
ATOM     14  C   LIG d   1       3.369  85.469 111.212  0.00  0.00     0.210 C 
ATOM     15  C   LIG d   1       4.368  86.392 111.918  0.00  0.00     0.109 C 
ATOM     16  O   LIG d   1       3.150  85.598 109.998  0.00  0.00    -0.276 OA
ATOM     17  H   LIG d   1       2.979  84.571 112.981  0.00  0.00     0.149 HD
ENDBRANCH   6  13
BRANCH   5  18
ATOM     18  N   LIG d   1       0.092  85.276 110.694  0.00  0.00     0.381 N 
ATOM     19  H   LIG d   1      -0.304  84.968 109.829  0.00  0.00    -0.090 HD
ATOM     20  H   LIG d   1       0.973  85.718 110.498  0.00  0.00    -0.090 HD
ATOM     21  H   LIG d   1      -0.521  85.924 111.138  0.00  0.00    -0.090 HD
ENDBRANCH   5  18
BRANCH   3  22
ATOM     22  C   LIG d   1      -1.505  80.959 112.017  0.00  0.00     0.382 C 
ATOM     23  O   LIG d   1      -1.445  79.759 111.655  0.00  0.00    -0.241 OA
ATOM     24  O   LIG d   1      -2.560  81.398 112.512  0.00  0.00    -0.241 OA
ENDBRANCH   3  22
TORSDOF 7
ENDMDL
MODEL 6
REMARK VINA RESULT:      -5.8      2.611      4.322
REMARK  7 active torsions:
REMARK  status: ('A' for Active; 'I' for Inactive)
REMARK    1  A    between atoms: C_2  and  C_3 
REMARK    2  A    between atoms: C_3  and  O_6 
REMARK    3  A    between atoms: C_3  and  C_4 
REMARK    4  A    between atoms: C_7  and  O_6 
REMARK    5  A    between atoms: C_9  and  C_10 
REMARK    6  A    between atoms: N_15  and  C_14 
REMARK    7  A    between atoms: N_20  and  C_19 
REMARK       I    between atoms: C_22  and  N_20 
ROOT
ATOM      1  C   LIG d   1       2.452  84.889 111.582  0.00  0.00     0.161 C 
ATOM      2  C   LIG d   1       3.136  86.116 111.611  0.00  0.00     0.016 C 
ATOM      3  C   LIG d   1       3.896  86.557 112.719  0.00  0.00     0.038 C 
ATOM      4  C   LIG d   1       4.149  85.728 113.822  0.00  0.00     0.028 C 
ATOM      5  C   LIG d   1       3.064  84.682 114.054  0.00  0.00    -0.047 C 
ATOM      6  C   LIG d   1       2.807  83.923 112.732  0.00  0.00     0.091 C 
ENDROOT
BRANCH   1   7
ATOM      7  O   LIG d   1       2.654  84.247 110.308  0.00  0.00    -0.368 OA
BRANCH   7   8
ATOM      8  C   LIG d   1       1.463  84.007 109.519  0.00  0.00     0.119 C 
BRANCH   8   9
ATOM      9  C   LIG d   1       1.890  83.222 108.263  0.00  0.00     0.028 C 
ATOM     10  C   LIG d   1       3.216  82.470 108.464  0.00  0.00     0.006 C 
ENDBRANCH   8   9
BRANCH   8  11
ATOM     11  C   LIG d   1       0.869  85.318 108.994  0.00  0.00     0.028 C 
ATOM     12  C   LIG d   1      -0.374  85.764 109.779  0.00  0.00     0.006 C 
ENDBRANCH   8  11
ENDBRANCH   7   8
ENDBRANCH   1   7
BRANCH   6  13
ATOM     13  N   LIG d   1       1.700  82.938 112.850  0.00  0.00    -0.311 N 
ATOM     14  C   LIG d   1       1.805  81.669 112.460  0.00  0.00     0.210 C 
ATOM     15  C   LIG d   1       0.539  80.828 112.651  0.00  0.00     0.109 C 
ATOM     16  O   LIG d   1       2.835  81.151 112.004  0.00  0.00    -0.276 OA
ATOM     17  H   LIG d   1       0.838  83.265 113.238  0.00  0.00     0.149 HD
ENDBRANCH   6  13
BRANCH   5  18
ATOM     18  N   LIG d   1       3.520  83.801 115.146  0.00  0.00     0.381 N 
ATOM     19  H   LIG d   1       4.362  83.333 114.875  0.00  0.00    -0.090 HD
ATOM     20  H   LIG d   1       2.815  83.107 115.321  0.00  0.00    -0.090 HD
ATOM     21  H   LIG d   1       3.681  84.336 115.971  0.00  0.00    -0.090 HD
ENDBRANCH   5  18
BRANCH   3  22
ATOM     22  C   LIG d   1       4.380  87.856 112.747  0.00  0.00     0.382 C 
ATOM     23  O   LIG d   1       3.582  88.820 112.843  0.00  0.00    -0.241 OA
ATOM     24  O   LIG d   1       5.600  88.079 112.633  0.00  0.00    -0.241 OA
ENDBRANCH   3  22
TORSDOF 7
ENDMDL
MODEL 7
REMARK VINA RESULT:      -5.6      2.469      5.131
REMARK  7 active torsions:
REMARK  status: ('A' for Active; 'I' for Inactive)
REMARK    1  A    between atoms: C_2  and  C_3 
REMARK    2  A    between atoms: C_3  and  O_6 
REMARK    3  A    between atoms: C_3  and  C_4 
REMARK    4  A    between atoms: C_7  and  O_6 
REMARK    5  A    between atoms: C_9  and  C_10 
REMARK    6  A    between atoms: N_15  and  C_14 
REMARK    7  A    between atoms: N_20  and  C_19 
REMARK       I    between atoms: C_22  and  N_20 
ROOT
ATOM      1  C   LIG d   1       2.600  82.522 110.701  0.00  0.00     0.161 C 
ATOM      2  C   LIG d   1       1.972  81.611 109.835  0.00  0.00     0.016 C 
ATOM      3  C   LIG d   1       1.093  80.596 110.279  0.00  0.00     0.038 C 
ATOM      4  C   LIG d   1       0.663  80.518 111.612  0.00  0.00     0.028 C 
ATOM      5  C   LIG d   1       1.661  81.102 112.606  0.00  0.00    -0.047 C 
ATOM      6  C   LIG d   1       2.057  82.523 112.145  0.00  0.00     0.091 C 
ENDROOT
BRANCH   1   7
ATOM      7  O   LIG d   1       2.539  83.849 110.141  0.00  0.00    -0.368 OA
BRANCH   7   8
ATOM      8  C   LIG d   1       1.533  84.730 110.699  0.00  0.00     0.119 C 
BRANCH   8   9
ATOM      9  C   LIG d   1       0.444  84.927 109.627  0.00  0.00     0.028 C 
ATOM     10  C   LIG d   1      -0.673  85.876 110.092  0.00  0.00     0.006 C 
ENDBRANCH   8   9
BRANCH   8  11
ATOM     11  C   LIG d   1       2.101  86.128 110.962  0.00  0.00     0.028 C 
ATOM     12  C   LIG d   1       3.610  86.114 111.252  0.00  0.00     0.006 C 
ENDBRANCH   8  11
ENDBRANCH   7   8
ENDBRANCH   1   7
BRANCH   6  13
ATOM     13  N   LIG d   1       3.094  83.134 113.016  0.00  0.00    -0.311 N 
ATOM     14  C   LIG d   1       2.811  83.925 114.049  0.00  0.00     0.210 C 
ATOM     15  C   LIG d   1       4.031  84.465 114.803  0.00  0.00     0.109 C 
ATOM     16  O   LIG d   1       1.666  84.206 114.432  0.00  0.00    -0.276 OA
ATOM     17  H   LIG d   1       4.050  82.933 112.795  0.00  0.00     0.149 HD
ENDBRANCH   6  13
BRANCH   5  18
ATOM     18  N   LIG d   1       1.028  81.081 113.938  0.00  0.00     0.381 N 
ATOM     19  H   LIG d   1       0.033  81.064 113.839  0.00  0.00    -0.090 HD
ATOM     20  H   LIG d   1       1.282  81.919 114.431  0.00  0.00    -0.090 HD
ATOM     21  H   LIG d   1       1.333  80.281 114.448  0.00  0.00    -0.090 HD
ENDBRANCH   5  18
BRANCH   3  22
ATOM     22  C   LIG d   1       0.667  79.620 109.391  0.00  0.00     0.382 C 
ATOM     23  O   LIG d   1       1.474  78.752 108.979  0.00  0.00    -0.241 OA
ATOM     24  O   LIG d   1      -0.502  79.623 108.962  0.00  0.00    -0.241 OA
ENDBRANCH   3  22
TORSDOF 7
ENDMDL
MODEL 8
REMARK VINA RESULT:      -5.6      2.218      3.486
REMARK  7 active torsions:
REMARK  status: ('A' for Active; 'I' for Inactive)
REMARK    1  A    between atoms: C_2  and  C_3 
REMARK    2  A    between atoms: C_3  and  O_6 
REMARK    3  A    between atoms: C_3  and  C_4 
REMARK    4  A    between atoms: C_7  and  O_6 
REMARK    5  A    between atoms: C_9  and  C_10 
REMARK    6  A    between atoms: N_15  and  C_14 
REMARK    7  A    between atoms: N_20  and  C_19 
REMARK       I    between atoms: C_22  and  N_20 
ROOT
ATOM      1  C   LIG d   1       1.036  82.629 110.580  0.00  0.00     0.161 C 
ATOM      2  C   LIG d   1       1.689  83.831 110.260  0.00  0.00     0.016 C 
ATOM      3  C   LIG d   1       2.408  84.601 111.204  0.00  0.00     0.038 C 
ATOM      4  C   LIG d   1       2.652  84.139 112.506  0.00  0.00     0.028 C 
ATOM      5  C   LIG d   1       1.588  83.172 113.015  0.00  0.00    -0.047 C 
ATOM      6  C   LIG d   1       1.385  82.053 111.968  0.00  0.00     0.091 C 
ENDROOT
BRANCH   1   7
ATOM      7  O   LIG d   1       1.288  81.649 109.553  0.00  0.00    -0.368 OA
BRANCH   7   8
ATOM      8  C   LIG d   1       2.574  80.983 109.609  0.00  0.00     0.119 C 
BRANCH   8   9
ATOM      9  C   LIG d   1       3.385  81.438 108.380  0.00  0.00     0.028 C 
ATOM     10  C   LIG d   1       4.645  82.230 108.768  0.00  0.00     0.006 C 
ENDBRANCH   8   9
BRANCH   8  11
ATOM     11  C   LIG d   1       2.424  79.467 109.457  0.00  0.00     0.028 C 
ATOM     12  C   LIG d   1       0.956  79.011 109.453  0.00  0.00     0.006 C 
ENDBRANCH   8  11
ENDBRANCH   7   8
ENDBRANCH   1   7
BRANCH   6  13
ATOM     13  N   LIG d   1       0.301  81.110 112.349  0.00  0.00    -0.311 N 
ATOM     14  C   LIG d   1      -0.995  81.402 112.245  0.00  0.00     0.210 C 
ATOM     15  C   LIG d   1      -1.947  80.296 112.711  0.00  0.00     0.109 C 
ATOM     16  O   LIG d   1      -1.446  82.460 111.780  0.00  0.00    -0.276 OA
ATOM     17  H   LIG d   1       0.577  80.217 112.706  0.00  0.00     0.149 HD
ENDBRANCH   6  13
BRANCH   5  18
ATOM     18  N   LIG d   1       2.037  82.664 114.325  0.00  0.00     0.381 N 
ATOM     19  H   LIG d   1       1.312  82.115 114.742  0.00  0.00    -0.090 HD
ATOM     20  H   LIG d   1       2.228  83.445 114.928  0.00  0.00    -0.090 HD
ATOM     21  H   LIG d   1       2.859  82.113 114.213  0.00  0.00    -0.090 HD
ENDBRANCH   5  18
BRANCH   3  22
ATOM     22  C   LIG d   1       2.858  85.866 110.859  0.00  0.00     0.382 C 
ATOM     23  O   LIG d   1       2.048  86.725 110.434  0.00  0.00    -0.241 OA
ATOM     24  O   LIG d   1       4.070  86.145 110.925  0.00  0.00    -0.241 OA
ENDBRANCH   3  22
TORSDOF 7
ENDMDL
MODEL 9
REMARK VINA RESULT:      -5.4      3.647      5.112
REMARK  7 active torsions:
REMARK  status: ('A' for Active; 'I' for Inactive)
REMARK    1  A    between atoms: C_2  and  C_3 
REMARK    2  A    between atoms: C_3  and  O_6 
REMARK    3  A    between atoms: C_3  and  C_4 
REMARK    4  A    between atoms: C_7  and  O_6 
REMARK    5  A    between atoms: C_9  and  C_10 
REMARK    6  A    between atoms: N_15  and  C_14 
REMARK    7  A    between atoms: N_20  and  C_19 
REMARK       I    between atoms: C_22  and  N_20 
ROOT
ATOM      1  C   LIG d   1       2.023  85.883 112.700  0.00  0.00     0.161 C 
ATOM      2  C   LIG d   1       2.096  87.247 112.375  0.00  0.00     0.016 C 
ATOM      3  C   LIG d   1       2.566  88.236 113.271  0.00  0.00     0.038 C 
ATOM      4  C   LIG d   1       3.140  87.904 114.507  0.00  0.00     0.028 C 
ATOM      5  C   LIG d   1       2.623  86.589 115.081  0.00  0.00    -0.047 C 
ATOM      6  C   LIG d   1       2.748  85.488 114.003  0.00  0.00     0.091 C 
ENDROOT
BRANCH   1   7
ATOM      7  O   LIG d   1       2.509  85.092 111.597  0.00  0.00    -0.368 OA
BRANCH   7   8
ATOM      8  C   LIG d   1       1.501  84.421 110.801  0.00  0.00     0.119 C 
BRANCH   8   9
ATOM      9  C   LIG d   1       2.185  83.238 110.089  0.00  0.00     0.028 C 
ATOM     10  C   LIG d   1       1.922  83.235 108.573  0.00  0.00     0.006 C 
ENDBRANCH   8   9
BRANCH   8  11
ATOM     11  C   LIG d   1       0.983  85.326 109.679  0.00  0.00     0.028 C 
ATOM     12  C   LIG d   1      -0.458  85.803 109.915  0.00  0.00     0.006 C 
ENDBRANCH   8  11
ENDBRANCH   7   8
ENDBRANCH   1   7
BRANCH   6  13
ATOM     13  N   LIG d   1       2.187  84.187 114.454  0.00  0.00    -0.311 N 
ATOM     14  C   LIG d   1       2.910  83.247 115.059  0.00  0.00     0.210 C 
ATOM     15  C   LIG d   1       2.141  81.973 115.423  0.00  0.00     0.109 C 
ATOM     16  O   LIG d   1       4.109  83.359 115.357  0.00  0.00    -0.276 OA
ATOM     17  H   LIG d   1       1.214  84.025 114.280  0.00  0.00     0.149 HD
ENDBRANCH   6  13
BRANCH   5  18
ATOM     18  N   LIG d   1       3.403  86.297 116.299  0.00  0.00     0.381 N 
ATOM     19  H   LIG d   1       3.309  87.051 116.950  0.00  0.00    -0.090 HD
ATOM     20  H   LIG d   1       4.373  86.213 116.051  0.00  0.00    -0.090 HD
ATOM     21  H   LIG d   1       3.083  85.450 116.713  0.00  0.00    -0.090 HD
ENDBRANCH   5  18
BRANCH   3  22
ATOM     22  C   LIG d   1       2.427  89.577 112.948  0.00  0.00     0.382 C 
ATOM     23  O   LIG d   1       1.385  89.980 112.378  0.00  0.00    -0.241 OA
ATOM     24  O   LIG d   1       3.350  90.381 113.180  0.00  0.00    -0.241 OA
ENDBRANCH   3  22
TORSDOF 7
ENDMDL
