MODEL 1
REMARK VINA RESULT:      -5.8      0.000      0.000
REMARK  7 active torsions:
REMARK  status: ('A' for Active; 'I' for Inactive)
REMARK    1  A    between atoms: C_2  and  C_3 
REMARK    2  A    between atoms: C_3  and  O_6 
REMARK    3  A    between atoms: C_3  and  C_4 
REMARK    4  A    between atoms: C_7  and  O_6 
REMARK    5  A    between atoms: C_9  and  C_10 
REMARK    6  A    between atoms: N_15  and  C_14 
REMARK    7  A    between atoms: N_20  and  C_19 
REMARK       I    between atoms: C_22  and  N_20 
ROOT
ATOM      1  C   LIG d   1       2.437  84.898 110.654  0.00  0.00     0.161 C 
ATOM      2  C   LIG d   1       1.541  85.927 110.988  0.00  0.00     0.016 C 
ATOM      3  C   LIG d   1       0.153  85.724 111.163  0.00  0.00     0.038 C 
ATOM      4  C   LIG d   1      -0.415  84.441 111.164  0.00  0.00     0.028 C 
ATOM      5  C   LIG d   1       0.369  83.431 110.333  0.00  0.00    -0.047 C 
ATOM      6  C   LIG d   1       1.854  83.473 110.761  0.00  0.00     0.091 C 
ENDROOT
BRANCH   1   7
ATOM      7  O   LIG d   1       3.631  85.011 111.453  0.00  0.00    -0.368 OA
BRANCH   7   8
ATOM      8  C   LIG d   1       3.638  86.070 112.442  0.00  0.00     0.119 C 
BRANCH   8   9
ATOM      9  C   LIG d   1       4.761  87.054 112.059  0.00  0.00     0.028 C 
ATOM     10  C   LIG d   1       4.719  88.345 112.893  0.00  0.00     0.006 C 
ENDBRANCH   8   9
BRANCH   8  11
ATOM     11  C   LIG d   1       4.021  85.537 113.826  0.00  0.00     0.028 C 
ATOM     12  C   LIG d   1       2.798  85.176 114.684  0.00  0.00     0.006 C 
ENDBRANCH   8  11
ENDBRANCH   7   8
ENDBRANCH   1   7
BRANCH   6  13
ATOM     13  N   LIG d   1       2.706  82.575 109.938  0.00  0.00    -0.311 N 
ATOM     14  C   LIG d   1       3.001  81.324 110.286  0.00  0.00     0.210 C 
ATOM     15  C   LIG d   1       3.912  80.579 109.305  0.00  0.00     0.109 C 
ATOM     16  O   LIG d   1       2.569  80.749 111.296  0.00  0.00    -0.276 OA
ATOM     17  H   LIG d   1       3.074  82.950 109.086  0.00  0.00     0.149 HD
ENDBRANCH   6  13
BRANCH   5  18
ATOM     18  N   LIG d   1      -0.254  82.109 110.534  0.00  0.00     0.381 N 
ATOM     19  H   LIG d   1       0.376  81.390 110.240  0.00  0.00    -0.090 HD
ATOM     20  H   LIG d   1      -1.083  82.052 109.969  0.00  0.00    -0.090 HD
ATOM     21  H   LIG d   1      -0.487  81.985 111.494  0.00  0.00    -0.090 HD
ENDBRANCH   5  18
BRANCH   3  22
ATOM     22  C   LIG d   1      -0.690  86.817 111.300  0.00  0.00     0.382 C 
ATOM     23  O   LIG d   1      -1.926  86.679 111.141  0.00  0.00    -0.241 OA
ATOM     24  O   LIG d   1      -0.224  87.948 111.537  0.00  0.00    -0.241 OA
ENDBRANCH   3  22
TORSDOF 7
ENDMDL
MODEL 2
REMARK VINA RESULT:      -5.6      2.201      3.061
REMARK  7 active torsions:
REMARK  status: ('A' for Active; 'I' for Inactive)
REMARK    1  A    between atoms: C_2  and  C_3 
REMARK    2  A    between atoms: C_3  and  O_6 
REMARK    3  A    between atoms: C_3  and  C_4 
REMARK    4  A    between atoms: C_7  and  O_6 
REMARK    5  A    between atoms: C_9  and  C_10 
REMARK    6  A    between atoms: N_15  and  C_14 
REMARK    7  A    between atoms: N_20  and  C_19 
REMARK       I    between atoms: C_22  and  N_20 
ROOT
ATOM      1  C   LIG d   1       4.285  85.295 112.170  0.00  0.00     0.161 C 
ATOM      2  C   LIG d   1       4.010  86.623 112.538  0.00  0.00     0.016 C 
ATOM      3  C   LIG d   1       2.966  87.388 111.970  0.00  0.00     0.038 C 
ATOM      4  C   LIG d   1       2.024  86.825 111.097  0.00  0.00     0.028 C 
ATOM      5  C   LIG d   1       2.562  85.633 110.313  0.00  0.00    -0.047 C 
ATOM      6  C   LIG d   1       3.198  84.628 111.300  0.00  0.00     0.091 C 
ENDROOT
BRANCH   1   7
ATOM      7  O   LIG d   1       4.540  84.504 113.347  0.00  0.00    -0.368 OA
BRANCH   7   8
ATOM      8  C   LIG d   1       4.051  85.047 114.598  0.00  0.00     0.119 C 
BRANCH   8   9
ATOM      9  C   LIG d   1       5.215  85.003 115.608  0.00  0.00     0.028 C 
ATOM     10  C   LIG d   1       5.652  86.406 116.061  0.00  0.00     0.006 C 
ENDBRANCH   8   9
BRANCH   8  11
ATOM     11  C   LIG d   1       2.958  84.160 115.201  0.00  0.00     0.028 C 
ATOM     12  C   LIG d   1       2.011  84.933 116.133  0.00  0.00     0.006 C 
ENDBRANCH   8  11
ENDBRANCH   7   8
ENDBRANCH   1   7
BRANCH   6  13
ATOM     13  N   LIG d   1       3.824  83.472 110.607  0.00  0.00    -0.311 N 
ATOM     14  C   LIG d   1       3.173  82.344 110.328  0.00  0.00     0.210 C 
ATOM     15  C   LIG d   1       4.010  81.270 109.627  0.00  0.00     0.109 C 
ATOM     16  O   LIG d   1       1.972  82.144 110.566  0.00  0.00    -0.276 OA
ATOM     17  H   LIG d   1       4.788  83.561 110.351  0.00  0.00     0.149 HD
ENDBRANCH   6  13
BRANCH   5  18
ATOM     18  N   LIG d   1       1.439  85.059 109.548  0.00  0.00     0.381 N 
ATOM     19  H   LIG d   1       0.577  85.465 109.855  0.00  0.00    -0.090 HD
ATOM     20  H   LIG d   1       1.400  84.070 109.720  0.00  0.00    -0.090 HD
ATOM     21  H   LIG d   1       1.567  85.230 108.575  0.00  0.00    -0.090 HD
ENDBRANCH   5  18
BRANCH   3  22
ATOM     22  C   LIG d   1       2.881  88.745 112.245  0.00  0.00     0.382 C 
ATOM     23  O   LIG d   1       3.883  89.360 112.684  0.00  0.00    -0.241 OA
ATOM     24  O   LIG d   1       1.803  89.352 112.100  0.00  0.00    -0.241 OA
ENDBRANCH   3  22
TORSDOF 7
ENDMDL
MODEL 3
REMARK VINA RESULT:      -5.6      3.087      5.582
REMARK  7 active torsions:
REMARK  status: ('A' for Active; 'I' for Inactive)
REMARK    1  A    between atoms: C_2  and  C_3 
REMARK    2  A    between atoms: C_3  and  O_6 
REMARK    3  A    between atoms: C_3  and  C_4 
REMARK    4  A    between atoms: C_7  and  O_6 
REMARK    5  A    between atoms: C_9  and  C_10 
REMARK    6  A    between atoms: N_15  and  C_14 
REMARK    7  A    between atoms: N_20  and  C_19 
REMARK       I    between atoms: C_22  and  N_20 
ROOT
ATOM      1  C   LIG d   1       1.860  85.662 113.855  0.00  0.00     0.161 C 
ATOM      2  C   LIG d   1       2.508  86.660 113.110  0.00  0.00     0.016 C 
ATOM      3  C   LIG d   1       3.838  87.074 113.354  0.00  0.00     0.038 C 
ATOM      4  C   LIG d   1       4.665  86.407 114.270  0.00  0.00     0.028 C 
ATOM      5  C   LIG d   1       3.896  85.725 115.396  0.00  0.00    -0.047 C 
ATOM      6  C   LIG d   1       2.783  84.845 114.783  0.00  0.00     0.091 C 
ENDROOT
BRANCH   1   7
ATOM      7  O   LIG d   1       1.137  84.783 112.969  0.00  0.00    -0.368 OA
BRANCH   7   8
ATOM      8  C   LIG d   1       0.790  85.330 111.673  0.00  0.00     0.119 C 
BRANCH   8   9
ATOM      9  C   LIG d   1      -0.745  85.448 111.615  0.00  0.00     0.028 C 
ATOM     10  C   LIG d   1      -1.212  86.876 111.286  0.00  0.00     0.006 C 
ENDBRANCH   8   9
BRANCH   8  11
ATOM     11  C   LIG d   1       1.165  84.365 110.544  0.00  0.00     0.028 C 
ATOM     12  C   LIG d   1       2.617  84.538 110.070  0.00  0.00     0.006 C 
ENDBRANCH   8  11
ENDBRANCH   7   8
ENDBRANCH   1   7
BRANCH   6  13
ATOM     13  N   LIG d   1       1.929  84.208 115.820  0.00  0.00    -0.311 N 
ATOM     14  C   LIG d   1       2.166  82.998 116.322  0.00  0.00     0.210 C 
ATOM     15  C   LIG d   1       1.151  82.521 117.366  0.00  0.00     0.109 C 
ATOM     16  O   LIG d   1       3.138  82.287 116.026  0.00  0.00    -0.276 OA
ATOM     17  H   LIG d   1       1.135  84.728 116.140  0.00  0.00     0.149 HD
ENDBRANCH   6  13
BRANCH   5  18
ATOM     18  N   LIG d   1       4.867  84.955 116.196  0.00  0.00     0.381 N 
ATOM     19  H   LIG d   1       5.124  85.476 117.011  0.00  0.00    -0.090 HD
ATOM     20  H   LIG d   1       5.694  84.802 115.645  0.00  0.00    -0.090 HD
ATOM     21  H   LIG d   1       4.471  84.081 116.464  0.00  0.00    -0.090 HD
ENDBRANCH   5  18
BRANCH   3  22
ATOM     22  C   LIG d   1       4.339  88.193 112.708  0.00  0.00     0.382 C 
ATOM     23  O   LIG d   1       5.508  88.183 112.252  0.00  0.00    -0.241 OA
ATOM     24  O   LIG d   1       3.653  89.229 112.612  0.00  0.00    -0.241 OA
ENDBRANCH   3  22
TORSDOF 7
ENDMDL
MODEL 4
REMARK VINA RESULT:      -5.2     13.247     15.145
REMARK  7 active torsions:
REMARK  status: ('A' for Active; 'I' for Inactive)
REMARK    1  A    between atoms: C_2  and  C_3 
REMARK    2  A    between atoms: C_3  and  O_6 
REMARK    3  A    between atoms: C_3  and  C_4 
REMARK    4  A    between atoms: C_7  and  O_6 
REMARK    5  A    between atoms: C_9  and  C_10 
REMARK    6  A    between atoms: N_15  and  C_14 
REMARK    7  A    between atoms: N_20  and  C_19 
REMARK       I    between atoms: C_22  and  N_20 
ROOT
ATOM      1  C   LIG d   1      -7.893  75.822 117.015  0.00  0.00     0.161 C 
ATOM      2  C   LIG d   1      -7.062  76.945 116.871  0.00  0.00     0.016 C 
ATOM      3  C   LIG d   1      -7.313  78.185 117.501  0.00  0.00     0.038 C 
ATOM      4  C   LIG d   1      -8.337  78.342 118.446  0.00  0.00     0.028 C 
ATOM      5  C   LIG d   1      -9.503  77.381 118.241  0.00  0.00    -0.047 C 
ATOM      6  C   LIG d   1      -8.953  75.941 118.130  0.00  0.00     0.091 C 
ENDROOT
BRANCH   1   7
ATOM      7  O   LIG d   1      -7.089  74.641 117.213  0.00  0.00    -0.368 OA
BRANCH   7   8
ATOM      8  C   LIG d   1      -6.286  74.221 116.082  0.00  0.00     0.119 C 
BRANCH   8   9
ATOM      9  C   LIG d   1      -6.735  72.797 115.699  0.00  0.00     0.028 C 
ATOM     10  C   LIG d   1      -7.658  72.169 116.757  0.00  0.00     0.006 C 
ENDBRANCH   8   9
BRANCH   8  11
ATOM     11  C   LIG d   1      -4.809  74.090 116.465  0.00  0.00     0.028 C 
ATOM     12  C   LIG d   1      -3.901  75.039 115.668  0.00  0.00     0.006 C 
ENDBRANCH   8  11
ENDBRANCH   7   8
ENDBRANCH   1   7
BRANCH   6  13
ATOM     13  N   LIG d   1     -10.020  74.947 117.844  0.00  0.00    -0.311 N 
ATOM     14  C   LIG d   1     -10.259  73.886 118.614  0.00  0.00     0.210 C 
ATOM     15  C   LIG d   1     -11.392  72.977 118.127  0.00  0.00     0.109 C 
ATOM     16  O   LIG d   1      -9.663  73.630 119.671  0.00  0.00    -0.276 OA
ATOM     17  H   LIG d   1     -10.573  75.094 117.022  0.00  0.00     0.149 HD
ENDBRANCH   6  13
BRANCH   5  18
ATOM     18  N   LIG d   1     -10.432  77.559 119.373  0.00  0.00     0.381 N 
ATOM     19  H   LIG d   1     -10.163  78.360 119.909  0.00  0.00    -0.090 HD
ATOM     20  H   LIG d   1     -10.381  76.750 119.967  0.00  0.00    -0.090 HD
ATOM     21  H   LIG d   1     -11.363  77.674 119.036  0.00  0.00    -0.090 HD
ENDBRANCH   5  18
BRANCH   3  22
ATOM     22  C   LIG d   1      -6.558  79.296 117.157  0.00  0.00     0.382 C 
ATOM     23  O   LIG d   1      -5.306  79.225 117.148  0.00  0.00    -0.241 OA
ATOM     24  O   LIG d   1      -7.113  80.381 116.899  0.00  0.00    -0.241 OA
ENDBRANCH   3  22
TORSDOF 7
ENDMDL
MODEL 5
REMARK VINA RESULT:      -5.2      4.915      7.374
REMARK  7 active torsions:
REMARK  status: ('A' for Active; 'I' for Inactive)
REMARK    1  A    between atoms: C_2  and  C_3 
REMARK    2  A    between atoms: C_3  and  O_6 
REMARK    3  A    between atoms: C_3  and  C_4 
REMARK    4  A    between atoms: C_7  and  O_6 
REMARK    5  A    between atoms: C_9  and  C_10 
REMARK    6  A    between atoms: N_15  and  C_14 
REMARK    7  A    between atoms: N_20  and  C_19 
REMARK       I    between atoms: C_22  and  N_20 
ROOT
ATOM      1  C   LIG d   1       3.619  89.035 115.314  0.00  0.00     0.161 C 
ATOM      2  C   LIG d   1       2.868  88.506 114.250  0.00  0.00     0.016 C 
ATOM      3  C   LIG d   1       3.401  88.273 112.962  0.00  0.00     0.038 C 
ATOM      4  C   LIG d   1       4.770  88.413 112.689  0.00  0.00     0.028 C 
ATOM      5  C   LIG d   1       5.468  89.424 113.593  0.00  0.00    -0.047 C 
ATOM      6  C   LIG d   1       5.141  89.089 115.067  0.00  0.00     0.091 C 
ENDROOT
BRANCH   1   7
ATOM      7  O   LIG d   1       3.334  88.305 116.524  0.00  0.00    -0.368 OA
BRANCH   7   8
ATOM      8  C   LIG d   1       2.840  86.954 116.352  0.00  0.00     0.119 C 
BRANCH   8   9
ATOM      9  C   LIG d   1       1.718  86.736 117.385  0.00  0.00     0.028 C 
ATOM     10  C   LIG d   1       0.600  87.786 117.267  0.00  0.00     0.006 C 
ENDBRANCH   8   9
BRANCH   8  11
ATOM     11  C   LIG d   1       3.915  85.920 116.697  0.00  0.00     0.028 C 
ATOM     12  C   LIG d   1       4.639  85.375 115.456  0.00  0.00     0.006 C 
ENDBRANCH   8  11
ENDBRANCH   7   8
ENDBRANCH   1   7
BRANCH   6  13
ATOM     13  N   LIG d   1       5.716  90.080 116.014  0.00  0.00    -0.311 N 
ATOM     14  C   LIG d   1       6.891  89.919 116.619  0.00  0.00     0.210 C 
ATOM     15  C   LIG d   1       7.288  91.051 117.572  0.00  0.00     0.109 C 
ATOM     16  O   LIG d   1       7.658  88.963 116.432  0.00  0.00    -0.276 OA
ATOM     17  H   LIG d   1       5.174  90.901 116.199  0.00  0.00     0.149 HD
ENDBRANCH   6  13
BRANCH   5  18
ATOM     18  N   LIG d   1       6.911  89.368 113.294  0.00  0.00     0.381 N 
ATOM     19  H   LIG d   1       7.368  88.757 113.941  0.00  0.00    -0.090 HD
ATOM     20  H   LIG d   1       7.301  90.288 113.400  0.00  0.00    -0.090 HD
ATOM     21  H   LIG d   1       7.054  89.045 112.363  0.00  0.00    -0.090 HD
ENDBRANCH   5  18
BRANCH   3  22
ATOM     22  C   LIG d   1       2.554  87.934 111.919  0.00  0.00     0.382 C 
ATOM     23  O   LIG d   1       1.372  88.356 111.908  0.00  0.00    -0.241 OA
ATOM     24  O   LIG d   1       2.942  87.175 111.010  0.00  0.00    -0.241 OA
ENDBRANCH   3  22
TORSDOF 7
ENDMDL
MODEL 6
REMARK VINA RESULT:      -5.0     24.187     25.612
REMARK  7 active torsions:
REMARK  status: ('A' for Active; 'I' for Inactive)
REMARK    1  A    between atoms: C_2  and  C_3 
REMARK    2  A    between atoms: C_3  and  O_6 
REMARK    3  A    between atoms: C_3  and  C_4 
REMARK    4  A    between atoms: C_7  and  O_6 
REMARK    5  A    between atoms: C_9  and  C_10 
REMARK    6  A    between atoms: N_15  and  C_14 
REMARK    7  A    between atoms: N_20  and  C_19 
REMARK       I    between atoms: C_22  and  N_20 
ROOT
ATOM      1  C   LIG d   1     -22.769  83.699 115.489  0.00  0.00     0.161 C 
ATOM      2  C   LIG d   1     -22.395  85.025 115.214  0.00  0.00     0.016 C 
ATOM      3  C   LIG d   1     -22.667  85.671 113.987  0.00  0.00     0.038 C 
ATOM      4  C   LIG d   1     -23.471  85.081 113.000  0.00  0.00     0.028 C 
ATOM      5  C   LIG d   1     -23.444  83.557 113.029  0.00  0.00    -0.047 C 
ATOM      6  C   LIG d   1     -23.743  83.077 114.467  0.00  0.00     0.091 C 
ENDROOT
BRANCH   1   7
ATOM      7  O   LIG d   1     -23.315  83.612 116.820  0.00  0.00    -0.368 OA
BRANCH   7   8
ATOM      8  C   LIG d   1     -22.362  83.388 117.888  0.00  0.00     0.119 C 
BRANCH   8   9
ATOM      9  C   LIG d   1     -21.482  82.190 117.479  0.00  0.00     0.028 C 
ATOM     10  C   LIG d   1     -20.814  81.514 118.688  0.00  0.00     0.006 C 
ENDBRANCH   8   9
BRANCH   8  11
ATOM     11  C   LIG d   1     -23.062  82.955 119.179  0.00  0.00     0.028 C 
ATOM     12  C   LIG d   1     -24.524  82.537 118.953  0.00  0.00     0.006 C 
ENDBRANCH   8  11
ENDBRANCH   7   8
ENDBRANCH   1   7
BRANCH   6  13
ATOM     13  N   LIG d   1     -23.653  81.599 114.602  0.00  0.00    -0.311 N 
ATOM     14  C   LIG d   1     -24.554  80.867 115.255  0.00  0.00     0.210 C 
ATOM     15  C   LIG d   1     -24.261  79.363 115.291  0.00  0.00     0.109 C 
ATOM     16  O   LIG d   1     -25.585  81.315 115.779  0.00  0.00    -0.276 OA
ATOM     17  H   LIG d   1     -22.865  81.150 114.180  0.00  0.00     0.149 HD
ENDBRANCH   6  13
BRANCH   5  18
ATOM     18  N   LIG d   1     -24.428  83.075 112.042  0.00  0.00     0.381 N 
ATOM     19  H   LIG d   1     -23.958  82.792 111.205  0.00  0.00    -0.090 HD
ATOM     20  H   LIG d   1     -25.054  83.827 111.813  0.00  0.00    -0.090 HD
ATOM     21  H   LIG d   1     -24.941  82.308 112.418  0.00  0.00    -0.090 HD
ENDBRANCH   5  18
BRANCH   3  22
ATOM     22  C   LIG d   1     -22.099  86.908 113.720  0.00  0.00     0.382 C 
ATOM     23  O   LIG d   1     -20.893  86.984 113.384  0.00  0.00    -0.241 OA
ATOM     24  O   LIG d   1     -22.765  87.952 113.856  0.00  0.00    -0.241 OA
ENDBRANCH   3  22
TORSDOF 7
ENDMDL
MODEL 7
REMARK VINA RESULT:      -5.0     24.306     26.932
REMARK  7 active torsions:
REMARK  status: ('A' for Active; 'I' for Inactive)
REMARK    1  A    between atoms: C_2  and  C_3 
REMARK    2  A    between atoms: C_3  and  O_6 
REMARK    3  A    between atoms: C_3  and  C_4 
REMARK    4  A    between atoms: C_7  and  O_6 
REMARK    5  A    between atoms: C_9  and  C_10 
REMARK    6  A    between atoms: N_15  and  C_14 
REMARK    7  A    between atoms: N_20  and  C_19 
REMARK       I    between atoms: C_22  and  N_20 
ROOT
ATOM      1  C   LIG d   1     -24.748  83.925 113.380  0.00  0.00     0.161 C 
ATOM      2  C   LIG d   1     -24.015  85.093 113.115  0.00  0.00     0.016 C 
ATOM      3  C   LIG d   1     -22.807  85.420 113.773  0.00  0.00     0.038 C 
ATOM      4  C   LIG d   1     -22.168  84.520 114.639  0.00  0.00     0.028 C 
ATOM      5  C   LIG d   1     -23.126  83.549 115.318  0.00  0.00    -0.047 C 
ATOM      6  C   LIG d   1     -24.009  82.879 114.241  0.00  0.00     0.091 C 
ENDROOT
BRANCH   1   7
ATOM      7  O   LIG d   1     -25.190  83.334 112.142  0.00  0.00    -0.368 OA
BRANCH   7   8
ATOM      8  C   LIG d   1     -26.382  83.907 111.551  0.00  0.00     0.119 C 
BRANCH   8   9
ATOM      9  C   LIG d   1     -27.579  83.045 111.997  0.00  0.00     0.028 C 
ATOM     10  C   LIG d   1     -28.348  82.447 110.806  0.00  0.00     0.006 C 
ENDBRANCH   8   9
BRANCH   8  11
ATOM     11  C   LIG d   1     -26.353  83.801 110.023  0.00  0.00     0.028 C 
ATOM     12  C   LIG d   1     -25.713  85.028 109.354  0.00  0.00     0.006 C 
ENDBRANCH   8  11
ENDBRANCH   7   8
ENDBRANCH   1   7
BRANCH   6  13
ATOM     13  N   LIG d   1     -25.033  81.976 114.828  0.00  0.00    -0.311 N 
ATOM     14  C   LIG d   1     -24.786  80.713 115.173  0.00  0.00     0.210 C 
ATOM     15  C   LIG d   1     -25.987  79.951 115.742  0.00  0.00     0.109 C 
ATOM     16  O   LIG d   1     -23.677  80.163 115.093  0.00  0.00    -0.276 OA
ATOM     17  H   LIG d   1     -25.952  82.351 114.957  0.00  0.00     0.149 HD
ENDBRANCH   6  13
BRANCH   5  18
ATOM     18  N   LIG d   1     -22.315  82.583 116.083  0.00  0.00     0.381 N 
ATOM     19  H   LIG d   1     -22.485  81.656 115.747  0.00  0.00    -0.090 HD
ATOM     20  H   LIG d   1     -22.587  82.623 117.049  0.00  0.00    -0.090 HD
ATOM     21  H   LIG d   1     -21.348  82.804 115.993  0.00  0.00    -0.090 HD
ENDBRANCH   5  18
BRANCH   3  22
ATOM     22  C   LIG d   1     -22.246  86.676 113.597  0.00  0.00     0.382 C 
ATOM     23  O   LIG d   1     -21.066  86.784 113.183  0.00  0.00    -0.241 OA
ATOM     24  O   LIG d   1     -22.890  87.702 113.888  0.00  0.00    -0.241 OA
ENDBRANCH   3  22
TORSDOF 7
ENDMDL
MODEL 8
REMARK VINA RESULT:      -5.0      2.685      4.602
REMARK  7 active torsions:
REMARK  status: ('A' for Active; 'I' for Inactive)
REMARK    1  A    between atoms: C_2  and  C_3 
REMARK    2  A    between atoms: C_3  and  O_6 
REMARK    3  A    between atoms: C_3  and  C_4 
REMARK    4  A    between atoms: C_7  and  O_6 
REMARK    5  A    between atoms: C_9  and  C_10 
REMARK    6  A    between atoms: N_15  and  C_14 
REMARK    7  A    between atoms: N_20  and  C_19 
REMARK       I    between atoms: C_22  and  N_20 
ROOT
ATOM      1  C   LIG d   1       2.458  85.284 113.390  0.00  0.00     0.161 C 
ATOM      2  C   LIG d   1       3.283  86.410 113.546  0.00  0.00     0.016 C 
ATOM      3  C   LIG d   1       3.358  87.457 112.598  0.00  0.00     0.038 C 
ATOM      4  C   LIG d   1       2.494  87.522 111.495  0.00  0.00     0.028 C 
ATOM      5  C   LIG d   1       2.000  86.155 111.032  0.00  0.00    -0.047 C 
ATOM      6  C   LIG d   1       1.427  85.391 112.247  0.00  0.00     0.091 C 
ENDROOT
BRANCH   1   7
ATOM      7  O   LIG d   1       1.797  84.987 114.635  0.00  0.00    -0.368 OA
BRANCH   7   8
ATOM      8  C   LIG d   1       2.657  84.630 115.745  0.00  0.00     0.119 C 
BRANCH   8   9
ATOM      9  C   LIG d   1       2.210  83.245 116.251  0.00  0.00     0.028 C 
ATOM     10  C   LIG d   1       3.217  82.626 117.235  0.00  0.00     0.006 C 
ENDBRANCH   8   9
BRANCH   8  11
ATOM     11  C   LIG d   1       2.460  85.578 116.931  0.00  0.00     0.028 C 
ATOM     12  C   LIG d   1       1.040  85.514 117.515  0.00  0.00     0.006 C 
ENDBRANCH   8  11
ENDBRANCH   7   8
ENDBRANCH   1   7
BRANCH   6  13
ATOM     13  N   LIG d   1       0.997  84.012 111.898  0.00  0.00    -0.311 N 
ATOM     14  C   LIG d   1      -0.267  83.681 111.639  0.00  0.00     0.210 C 
ATOM     15  C   LIG d   1      -0.495  82.200 111.321  0.00  0.00     0.109 C 
ATOM     16  O   LIG d   1      -1.215  84.479 111.612  0.00  0.00    -0.276 OA
ATOM     17  H   LIG d   1       1.708  83.307 111.867  0.00  0.00     0.149 HD
ENDBRANCH   6  13
BRANCH   5  18
ATOM     18  N   LIG d   1       1.003  86.379 109.967  0.00  0.00     0.381 N 
ATOM     19  H   LIG d   1       1.115  87.297 109.586  0.00  0.00    -0.090 HD
ATOM     20  H   LIG d   1       0.083  86.312 110.364  0.00  0.00    -0.090 HD
ATOM     21  H   LIG d   1       1.113  85.698 109.249  0.00  0.00    -0.090 HD
ENDBRANCH   5  18
BRANCH   3  22
ATOM     22  C   LIG d   1       4.334  88.434 112.729  0.00  0.00     0.382 C 
ATOM     23  O   LIG d   1       4.040  89.552 113.215  0.00  0.00    -0.241 OA
ATOM     24  O   LIG d   1       5.494  88.226 112.326  0.00  0.00    -0.241 OA
ENDBRANCH   3  22
TORSDOF 7
ENDMDL
MODEL 9
REMARK VINA RESULT:      -5.0     13.767     15.857
REMARK  7 active torsions:
REMARK  status: ('A' for Active; 'I' for Inactive)
REMARK    1  A    between atoms: C_2  and  C_3 
REMARK    2  A    between atoms: C_3  and  O_6 
REMARK    3  A    between atoms: C_3  and  C_4 
REMARK    4  A    between atoms: C_7  and  O_6 
REMARK    5  A    between atoms: C_9  and  C_10 
REMARK    6  A    between atoms: N_15  and  C_14 
REMARK    7  A    between atoms: N_20  and  C_19 
REMARK       I    between atoms: C_22  and  N_20 
ROOT
ATOM      1  C   LIG d   1      -7.257  74.517 117.147  0.00  0.00     0.161 C 
ATOM      2  C   LIG d   1      -7.317  73.226 116.596  0.00  0.00     0.016 C 
ATOM      3  C   LIG d   1      -8.337  72.296 116.901  0.00  0.00     0.038 C 
ATOM      4  C   LIG d   1      -9.457  72.649 117.667  0.00  0.00     0.028 C 
ATOM      5  C   LIG d   1      -9.184  73.780 118.654  0.00  0.00    -0.047 C 
ATOM      6  C   LIG d   1      -8.531  74.959 117.898  0.00  0.00     0.091 C 
ENDROOT
BRANCH   1   7
ATOM      7  O   LIG d   1      -6.925  75.472 116.120  0.00  0.00    -0.368 OA
BRANCH   7   8
ATOM      8  C   LIG d   1      -5.518  75.788 115.974  0.00  0.00     0.119 C 
BRANCH   8   9
ATOM      9  C   LIG d   1      -4.839  75.513 117.330  0.00  0.00     0.028 C 
ATOM     10  C   LIG d   1      -3.560  74.672 117.186  0.00  0.00     0.006 C 
ENDBRANCH   8   9
BRANCH   8  11
ATOM     11  C   LIG d   1      -5.307  77.281 115.710  0.00  0.00     0.028 C 
ATOM     12  C   LIG d   1      -5.525  78.145 116.962  0.00  0.00     0.006 C 
ENDBRANCH   8  11
ENDBRANCH   7   8
ENDBRANCH   1   7
BRANCH   6  13
ATOM     13  N   LIG d   1      -8.154  76.074 118.805  0.00  0.00    -0.311 N 
ATOM     14  C   LIG d   1      -8.764  77.258 118.804  0.00  0.00     0.210 C 
ATOM     15  C   LIG d   1      -8.206  78.274 119.805  0.00  0.00     0.109 C 
ATOM     16  O   LIG d   1      -9.736  77.552 118.092  0.00  0.00    -0.276 OA
ATOM     17  H   LIG d   1      -7.395  75.911 119.438  0.00  0.00     0.149 HD
ENDBRANCH   6  13
BRANCH   5  18
ATOM     18  N   LIG d   1     -10.468  74.139 119.287  0.00  0.00     0.381 N 
ATOM     19  H   LIG d   1     -11.056  74.599 118.622  0.00  0.00    -0.090 HD
ATOM     20  H   LIG d   1     -10.290  74.774 120.044  0.00  0.00    -0.090 HD
ATOM     21  H   LIG d   1     -10.920  73.320 119.630  0.00  0.00    -0.090 HD
ENDBRANCH   5  18
BRANCH   3  22
ATOM     22  C   LIG d   1      -8.221  70.983 116.470  0.00  0.00     0.382 C 
ATOM     23  O   LIG d   1      -7.312  70.665 115.666  0.00  0.00    -0.241 OA
ATOM     24  O   LIG d   1      -9.041  70.122 116.841  0.00  0.00    -0.241 OA
ENDBRANCH   3  22
TORSDOF 7
ENDMDL
