MODEL 1
REMARK VINA RESULT:      -5.8      0.000      0.000
REMARK  7 active torsions:
REMARK  status: ('A' for Active; 'I' for Inactive)
REMARK    1  A    between atoms: C_2  and  C_3 
REMARK    2  A    between atoms: C_3  and  O_6 
REMARK    3  A    between atoms: C_3  and  C_4 
REMARK    4  A    between atoms: C_7  and  O_6 
REMARK    5  A    between atoms: C_9  and  C_10 
REMARK    6  A    between atoms: N_15  and  C_14 
REMARK    7  A    between atoms: N_20  and  C_19 
REMARK       I    between atoms: C_22  and  N_20 
ROOT
ATOM      1  C   LIG d   1       2.499  84.691 109.897  0.00  0.00     0.161 C 
ATOM      2  C   LIG d   1       1.514  85.676 110.077  0.00  0.00     0.016 C 
ATOM      3  C   LIG d   1       0.156  85.381 110.339  0.00  0.00     0.038 C 
ATOM      4  C   LIG d   1      -0.282  84.072 110.589  0.00  0.00     0.028 C 
ATOM      5  C   LIG d   1       0.578  83.006 109.920  0.00  0.00    -0.047 C 
ATOM      6  C   LIG d   1       2.061  83.261 110.276  0.00  0.00     0.091 C 
ENDROOT
BRANCH   1   7
ATOM      7  O   LIG d   1       3.693  85.057 110.616  0.00  0.00    -0.368 OA
BRANCH   7   8
ATOM      8  C   LIG d   1       3.496  85.823 111.830  0.00  0.00     0.119 C 
BRANCH   8   9
ATOM      9  C   LIG d   1       4.668  86.817 111.946  0.00  0.00     0.028 C 
ATOM     10  C   LIG d   1       4.498  87.790 113.124  0.00  0.00     0.006 C 
ENDBRANCH   8   9
BRANCH   8  11
ATOM     11  C   LIG d   1       3.596  84.933 113.073  0.00  0.00     0.028 C 
ATOM     12  C   LIG d   1       2.249  84.758 113.791  0.00  0.00     0.006 C 
ENDBRANCH   8  11
ENDBRANCH   7   8
ENDBRANCH   1   7
BRANCH   6  13
ATOM     13  N   LIG d   1       2.979  82.313 109.594  0.00  0.00    -0.311 N 
ATOM     14  C   LIG d   1       3.483  81.229 110.181  0.00  0.00     0.210 C 
ATOM     15  C   LIG d   1       4.426  80.398 109.305  0.00  0.00     0.109 C 
ATOM     16  O   LIG d   1       3.214  80.860 111.334  0.00  0.00    -0.276 OA
ATOM     17  H   LIG d   1       3.226  82.520 108.646  0.00  0.00     0.149 HD
ENDBRANCH   6  13
BRANCH   5  18
ATOM     18  N   LIG d   1       0.093  81.690 110.375  0.00  0.00     0.381 N 
ATOM     19  H   LIG d   1      -0.118  81.726 111.352  0.00  0.00    -0.090 HD
ATOM     20  H   LIG d   1       0.818  81.009 110.234  0.00  0.00    -0.090 HD
ATOM     21  H   LIG d   1      -0.721  81.430 109.862  0.00  0.00    -0.090 HD
ENDBRANCH   5  18
BRANCH   3  22
ATOM     22  C   LIG d   1      -0.786  86.398 110.312  0.00  0.00     0.382 C 
ATOM     23  O   LIG d   1      -1.875  86.228 109.712  0.00  0.00    -0.241 OA
ATOM     24  O   LIG d   1      -0.543  87.498 110.843  0.00  0.00    -0.241 OA
ENDBRANCH   3  22
TORSDOF 7
ENDMDL
MODEL 2
REMARK VINA RESULT:      -5.4      3.594      5.933
REMARK  7 active torsions:
REMARK  status: ('A' for Active; 'I' for Inactive)
REMARK    1  A    between atoms: C_2  and  C_3 
REMARK    2  A    between atoms: C_3  and  O_6 
REMARK    3  A    between atoms: C_3  and  C_4 
REMARK    4  A    between atoms: C_7  and  O_6 
REMARK    5  A    between atoms: C_9  and  C_10 
REMARK    6  A    between atoms: N_15  and  C_14 
REMARK    7  A    between atoms: N_20  and  C_19 
REMARK       I    between atoms: C_22  and  N_20 
ROOT
ATOM      1  C   LIG d   1       3.907  85.550 113.266  0.00  0.00     0.161 C 
ATOM      2  C   LIG d   1       4.368  86.812 112.856  0.00  0.00     0.016 C 
ATOM      3  C   LIG d   1       4.956  87.750 113.737  0.00  0.00     0.038 C 
ATOM      4  C   LIG d   1       5.263  87.426 115.067  0.00  0.00     0.028 C 
ATOM      5  C   LIG d   1       4.359  86.347 115.652  0.00  0.00    -0.047 C 
ATOM      6  C   LIG d   1       4.334  85.137 114.690  0.00  0.00     0.091 C 
ENDROOT
BRANCH   1   7
ATOM      7  O   LIG d   1       4.311  84.549 112.312  0.00  0.00    -0.368 OA
BRANCH   7   8
ATOM      8  C   LIG d   1       3.280  84.076 111.410  0.00  0.00     0.119 C 
BRANCH   8   9
ATOM      9  C   LIG d   1       3.811  84.241 109.973  0.00  0.00     0.028 C 
ATOM     10  C   LIG d   1       4.528  82.980 109.463  0.00  0.00     0.006 C 
ENDBRANCH   8   9
BRANCH   8  11
ATOM     11  C   LIG d   1       2.029  84.955 111.484  0.00  0.00     0.028 C 
ATOM     12  C   LIG d   1       1.830  85.815 110.226  0.00  0.00     0.006 C 
ENDBRANCH   8  11
ENDBRANCH   7   8
ENDBRANCH   1   7
BRANCH   6  13
ATOM     13  N   LIG d   1       3.407  84.069 115.146  0.00  0.00    -0.311 N 
ATOM     14  C   LIG d   1       3.798  83.010 115.853  0.00  0.00     0.210 C 
ATOM     15  C   LIG d   1       2.684  82.019 116.203  0.00  0.00     0.109 C 
ATOM     16  O   LIG d   1       4.956  82.814 116.251  0.00  0.00    -0.276 OA
ATOM     17  H   LIG d   1       2.442  84.165 114.894  0.00  0.00     0.149 HD
ENDBRANCH   6  13
BRANCH   5  18
ATOM     18  N   LIG d   1       4.876  86.011 116.992  0.00  0.00     0.381 N 
ATOM     19  H   LIG d   1       5.579  85.304 116.916  0.00  0.00    -0.090 HD
ATOM     20  H   LIG d   1       4.122  85.647 117.549  0.00  0.00    -0.090 HD
ATOM     21  H   LIG d   1       5.256  86.823 117.424  0.00  0.00    -0.090 HD
ENDBRANCH   5  18
BRANCH   3  22
ATOM     22  C   LIG d   1       5.207  89.041 113.298  0.00  0.00     0.382 C 
ATOM     23  O   LIG d   1       4.326  89.926 113.416  0.00  0.00    -0.241 OA
ATOM     24  O   LIG d   1       6.288  89.321 112.744  0.00  0.00    -0.241 OA
ENDBRANCH   3  22
TORSDOF 7
ENDMDL
MODEL 3
REMARK VINA RESULT:      -5.4     12.553     14.229
REMARK  7 active torsions:
REMARK  status: ('A' for Active; 'I' for Inactive)
REMARK    1  A    between atoms: C_2  and  C_3 
REMARK    2  A    between atoms: C_3  and  O_6 
REMARK    3  A    between atoms: C_3  and  C_4 
REMARK    4  A    between atoms: C_7  and  O_6 
REMARK    5  A    between atoms: C_9  and  C_10 
REMARK    6  A    between atoms: N_15  and  C_14 
REMARK    7  A    between atoms: N_20  and  C_19 
REMARK       I    between atoms: C_22  and  N_20 
ROOT
ATOM      1  C   LIG d   1      -7.244  76.391 117.580  0.00  0.00     0.161 C 
ATOM      2  C   LIG d   1      -8.377  77.134 117.951  0.00  0.00     0.016 C 
ATOM      3  C   LIG d   1      -8.392  78.546 118.020  0.00  0.00     0.038 C 
ATOM      4  C   LIG d   1      -7.312  79.322 117.573  0.00  0.00     0.028 C 
ATOM      5  C   LIG d   1      -5.970  78.604 117.667  0.00  0.00    -0.047 C 
ATOM      6  C   LIG d   1      -6.091  77.224 116.982  0.00  0.00     0.091 C 
ENDROOT
BRANCH   1   7
ATOM      7  O   LIG d   1      -7.626  75.339 116.671  0.00  0.00    -0.368 OA
BRANCH   7   8
ATOM      8  C   LIG d   1      -8.011  74.081 117.277  0.00  0.00     0.119 C 
BRANCH   8   9
ATOM      9  C   LIG d   1      -6.945  73.732 118.334  0.00  0.00     0.028 C 
ATOM     10  C   LIG d   1      -5.759  72.956 117.738  0.00  0.00     0.006 C 
ENDBRANCH   8   9
BRANCH   8  11
ATOM     11  C   LIG d   1      -7.964  72.936 116.261  0.00  0.00     0.028 C 
ATOM     12  C   LIG d   1      -9.201  72.027 116.331  0.00  0.00     0.006 C 
ENDBRANCH   8  11
ENDBRANCH   7   8
ENDBRANCH   1   7
BRANCH   6  13
ATOM     13  N   LIG d   1      -4.846  76.420 117.102  0.00  0.00    -0.311 N 
ATOM     14  C   LIG d   1      -4.177  75.944 116.054  0.00  0.00     0.210 C 
ATOM     15  C   LIG d   1      -2.931  75.124 116.401  0.00  0.00     0.109 C 
ATOM     16  O   LIG d   1      -4.479  76.150 114.869  0.00  0.00    -0.276 OA
ATOM     17  H   LIG d   1      -4.513  76.232 118.027  0.00  0.00     0.149 HD
ENDBRANCH   6  13
BRANCH   5  18
ATOM     18  N   LIG d   1      -4.955  79.473 117.042  0.00  0.00     0.381 N 
ATOM     19  H   LIG d   1      -5.261  80.425 117.068  0.00  0.00    -0.090 HD
ATOM     20  H   LIG d   1      -4.844  79.203 116.080  0.00  0.00    -0.090 HD
ATOM     21  H   LIG d   1      -4.087  79.382 117.522  0.00  0.00    -0.090 HD
ENDBRANCH   5  18
BRANCH   3  22
ATOM     22  C   LIG d   1      -9.483  79.195 118.578  0.00  0.00     0.382 C 
ATOM     23  O   LIG d   1      -9.834  80.319 118.144  0.00  0.00    -0.241 OA
ATOM     24  O   LIG d   1     -10.093  78.692 119.541  0.00  0.00    -0.241 OA
ENDBRANCH   3  22
TORSDOF 7
ENDMDL
MODEL 4
REMARK VINA RESULT:      -5.3      2.790      4.244
REMARK  7 active torsions:
REMARK  status: ('A' for Active; 'I' for Inactive)
REMARK    1  A    between atoms: C_2  and  C_3 
REMARK    2  A    between atoms: C_3  and  O_6 
REMARK    3  A    between atoms: C_3  and  C_4 
REMARK    4  A    between atoms: C_7  and  O_6 
REMARK    5  A    between atoms: C_9  and  C_10 
REMARK    6  A    between atoms: N_15  and  C_14 
REMARK    7  A    between atoms: N_20  and  C_19 
REMARK       I    between atoms: C_22  and  N_20 
ROOT
ATOM      1  C   LIG d   1       2.392  83.740 113.107  0.00  0.00     0.161 C 
ATOM      2  C   LIG d   1       3.005  85.003 113.141  0.00  0.00     0.016 C 
ATOM      3  C   LIG d   1       2.676  86.052 112.252  0.00  0.00     0.038 C 
ATOM      4  C   LIG d   1       1.597  85.958 111.361  0.00  0.00     0.028 C 
ATOM      5  C   LIG d   1       1.278  84.525 110.945  0.00  0.00    -0.047 C 
ATOM      6  C   LIG d   1       1.136  83.655 112.215  0.00  0.00     0.091 C 
ENDROOT
BRANCH   1   7
ATOM      7  O   LIG d   1       2.084  83.310 114.448  0.00  0.00    -0.368 OA
BRANCH   7   8
ATOM      8  C   LIG d   1       2.966  83.794 115.490  0.00  0.00     0.119 C 
BRANCH   8   9
ATOM      9  C   LIG d   1       3.722  82.578 116.059  0.00  0.00     0.028 C 
ATOM     10  C   LIG d   1       4.758  82.976 117.124  0.00  0.00     0.006 C 
ENDBRANCH   8   9
BRANCH   8  11
ATOM     11  C   LIG d   1       2.173  84.367 116.669  0.00  0.00     0.028 C 
ATOM     12  C   LIG d   1       2.215  85.902 116.726  0.00  0.00     0.006 C 
ENDBRANCH   8  11
ENDBRANCH   7   8
ENDBRANCH   1   7
BRANCH   6  13
ATOM     13  N   LIG d   1       0.907  82.221 111.896  0.00  0.00    -0.311 N 
ATOM     14  C   LIG d   1      -0.305  81.685 111.758  0.00  0.00     0.210 C 
ATOM     15  C   LIG d   1      -0.317  80.185 111.449  0.00  0.00     0.109 C 
ATOM     16  O   LIG d   1      -1.370  82.317 111.830  0.00  0.00    -0.276 OA
ATOM     17  H   LIG d   1       1.717  81.643 111.790  0.00  0.00     0.149 HD
ENDBRANCH   6  13
BRANCH   5  18
ATOM     18  N   LIG d   1       0.051  84.561 110.128  0.00  0.00     0.381 N 
ATOM     19  H   LIG d   1      -0.555  85.286 110.458  0.00  0.00    -0.090 HD
ATOM     20  H   LIG d   1      -0.428  83.683 110.223  0.00  0.00    -0.090 HD
ATOM     21  H   LIG d   1       0.282  84.721 109.172  0.00  0.00    -0.090 HD
ENDBRANCH   5  18
BRANCH   3  22
ATOM     22  C   LIG d   1       3.456  87.198 112.222  0.00  0.00     0.382 C 
ATOM     23  O   LIG d   1       4.645  87.137 111.825  0.00  0.00    -0.241 OA
ATOM     24  O   LIG d   1       3.000  88.284 112.629  0.00  0.00    -0.241 OA
ENDBRANCH   3  22
TORSDOF 7
ENDMDL
MODEL 5
REMARK VINA RESULT:      -5.2     12.307     13.980
REMARK  7 active torsions:
REMARK  status: ('A' for Active; 'I' for Inactive)
REMARK    1  A    between atoms: C_2  and  C_3 
REMARK    2  A    between atoms: C_3  and  O_6 
REMARK    3  A    between atoms: C_3  and  C_4 
REMARK    4  A    between atoms: C_7  and  O_6 
REMARK    5  A    between atoms: C_9  and  C_10 
REMARK    6  A    between atoms: N_15  and  C_14 
REMARK    7  A    between atoms: N_20  and  C_19 
REMARK       I    between atoms: C_22  and  N_20 
ROOT
ATOM      1  C   LIG d   1      -6.736  76.259 117.155  0.00  0.00     0.161 C 
ATOM      2  C   LIG d   1      -8.077  76.342 117.564  0.00  0.00     0.016 C 
ATOM      3  C   LIG d   1      -8.703  77.555 117.934  0.00  0.00     0.038 C 
ATOM      4  C   LIG d   1      -8.069  78.796 117.775  0.00  0.00     0.028 C 
ATOM      5  C   LIG d   1      -6.548  78.712 117.844  0.00  0.00    -0.047 C 
ATOM      6  C   LIG d   1      -6.061  77.617 116.869  0.00  0.00     0.091 C 
ENDROOT
BRANCH   1   7
ATOM      7  O   LIG d   1      -6.628  75.394 116.007  0.00  0.00    -0.368 OA
BRANCH   7   8
ATOM      8  C   LIG d   1      -5.998  74.109 116.233  0.00  0.00     0.119 C 
BRANCH   8   9
ATOM      9  C   LIG d   1      -7.103  73.036 116.182  0.00  0.00     0.028 C 
ATOM     10  C   LIG d   1      -7.273  72.305 117.524  0.00  0.00     0.006 C 
ENDBRANCH   8   9
BRANCH   8  11
ATOM     11  C   LIG d   1      -5.409  74.018 117.644  0.00  0.00     0.028 C 
ATOM     12  C   LIG d   1      -3.874  73.952 117.646  0.00  0.00     0.006 C 
ENDBRANCH   8  11
ENDBRANCH   7   8
ENDBRANCH   1   7
BRANCH   6  13
ATOM     13  N   LIG d   1      -4.590  77.411 116.935  0.00  0.00    -0.311 N 
ATOM     14  C   LIG d   1      -3.822  77.255 115.858  0.00  0.00     0.210 C 
ATOM     15  C   LIG d   1      -2.335  77.036 116.152  0.00  0.00     0.109 C 
ATOM     16  O   LIG d   1      -4.227  77.309 114.687  0.00  0.00    -0.276 OA
ATOM     17  H   LIG d   1      -4.174  77.385 117.846  0.00  0.00     0.149 HD
ENDBRANCH   6  13
BRANCH   5  18
ATOM     18  N   LIG d   1      -6.013  80.049 117.526  0.00  0.00     0.381 N 
ATOM     19  H   LIG d   1      -6.297  80.704 118.227  0.00  0.00    -0.090 HD
ATOM     20  H   LIG d   1      -6.389  80.349 116.644  0.00  0.00    -0.090 HD
ATOM     21  H   LIG d   1      -5.018  80.016 117.477  0.00  0.00    -0.090 HD
ENDBRANCH   5  18
BRANCH   3  22
ATOM     22  C   LIG d   1      -9.965  77.529 118.509  0.00  0.00     0.382 C 
ATOM     23  O   LIG d   1     -10.215  78.247 119.506  0.00  0.00    -0.241 OA
ATOM     24  O   LIG d   1     -10.843  76.763 118.069  0.00  0.00    -0.241 OA
ENDBRANCH   3  22
TORSDOF 7
ENDMDL
MODEL 6
REMARK VINA RESULT:      -5.2      3.347      5.604
REMARK  7 active torsions:
REMARK  status: ('A' for Active; 'I' for Inactive)
REMARK    1  A    between atoms: C_2  and  C_3 
REMARK    2  A    between atoms: C_3  and  O_6 
REMARK    3  A    between atoms: C_3  and  C_4 
REMARK    4  A    between atoms: C_7  and  O_6 
REMARK    5  A    between atoms: C_9  and  C_10 
REMARK    6  A    between atoms: N_15  and  C_14 
REMARK    7  A    between atoms: N_20  and  C_19 
REMARK       I    between atoms: C_22  and  N_20 
ROOT
ATOM      1  C   LIG d   1       2.067  84.805 114.055  0.00  0.00     0.161 C 
ATOM      2  C   LIG d   1       2.437  85.959 113.345  0.00  0.00     0.016 C 
ATOM      3  C   LIG d   1       3.668  86.629 113.535  0.00  0.00     0.038 C 
ATOM      4  C   LIG d   1       4.683  86.099 114.346  0.00  0.00     0.028 C 
ATOM      5  C   LIG d   1       4.158  85.208 115.467  0.00  0.00    -0.047 C 
ATOM      6  C   LIG d   1       3.206  84.150 114.863  0.00  0.00     0.091 C 
ENDROOT
BRANCH   1   7
ATOM      7  O   LIG d   1       1.475  83.847 113.156  0.00  0.00    -0.368 OA
BRANCH   7   8
ATOM      8  C   LIG d   1       1.355  84.260 111.772  0.00  0.00     0.119 C 
BRANCH   8   9
ATOM      9  C   LIG d   1      -0.136  84.180 111.392  0.00  0.00     0.028 C 
ATOM     10  C   LIG d   1      -0.559  85.308 110.436  0.00  0.00     0.006 C 
ENDBRANCH   8   9
BRANCH   8  11
ATOM     11  C   LIG d   1       2.066  83.280 110.834  0.00  0.00     0.028 C 
ATOM     12  C   LIG d   1       3.357  83.859 110.235  0.00  0.00     0.006 C 
ENDBRANCH   8  11
ENDBRANCH   7   8
ENDBRANCH   1   7
BRANCH   6  13
ATOM     13  N   LIG d   1       2.583  83.289 115.902  0.00  0.00    -0.311 N 
ATOM     14  C   LIG d   1       3.134  82.162 116.348  0.00  0.00     0.210 C 
ATOM     15  C   LIG d   1       2.316  81.416 117.406  0.00  0.00     0.109 C 
ATOM     16  O   LIG d   1       4.239  81.725 115.990  0.00  0.00    -0.276 OA
ATOM     17  H   LIG d   1       1.700  83.585 116.270  0.00  0.00     0.149 HD
ENDBRANCH   6  13
BRANCH   5  18
ATOM     18  N   LIG d   1       5.325  84.614 116.147  0.00  0.00     0.381 N 
ATOM     19  H   LIG d   1       5.915  84.164 115.477  0.00  0.00    -0.090 HD
ATOM     20  H   LIG d   1       5.003  83.921 116.799  0.00  0.00    -0.090 HD
ATOM     21  H   LIG d   1       5.835  85.322 116.628  0.00  0.00    -0.090 HD
ENDBRANCH   5  18
BRANCH   3  22
ATOM     22  C   LIG d   1       3.878  87.863 112.940  0.00  0.00     0.382 C 
ATOM     23  O   LIG d   1       2.899  88.588 112.637  0.00  0.00    -0.241 OA
ATOM     24  O   LIG d   1       5.031  88.243 112.662  0.00  0.00    -0.241 OA
ENDBRANCH   3  22
TORSDOF 7
ENDMDL
MODEL 7
REMARK VINA RESULT:      -5.2      2.999      4.904
REMARK  7 active torsions:
REMARK  status: ('A' for Active; 'I' for Inactive)
REMARK    1  A    between atoms: C_2  and  C_3 
REMARK    2  A    between atoms: C_3  and  O_6 
REMARK    3  A    between atoms: C_3  and  C_4 
REMARK    4  A    between atoms: C_7  and  O_6 
REMARK    5  A    between atoms: C_9  and  C_10 
REMARK    6  A    between atoms: N_15  and  C_14 
REMARK    7  A    between atoms: N_20  and  C_19 
REMARK       I    between atoms: C_22  and  N_20 
ROOT
ATOM      1  C   LIG d   1       3.976  85.117 112.929  0.00  0.00     0.161 C 
ATOM      2  C   LIG d   1       4.613  86.275 113.406  0.00  0.00     0.016 C 
ATOM      3  C   LIG d   1       4.170  87.585 113.109  0.00  0.00     0.038 C 
ATOM      4  C   LIG d   1       2.963  87.825 112.435  0.00  0.00     0.028 C 
ATOM      5  C   LIG d   1       2.555  86.690 111.502  0.00  0.00    -0.047 C 
ATOM      6  C   LIG d   1       2.594  85.358 112.284  0.00  0.00     0.091 C 
ENDROOT
BRANCH   1   7
ATOM      7  O   LIG d   1       3.872  84.145 113.988  0.00  0.00    -0.368 OA
BRANCH   7   8
ATOM      8  C   LIG d   1       3.859  84.672 115.337  0.00  0.00     0.119 C 
BRANCH   8   9
ATOM      9  C   LIG d   1       4.521  83.622 116.250  0.00  0.00     0.028 C 
ATOM     10  C   LIG d   1       3.778  82.275 116.232  0.00  0.00     0.006 C 
ENDBRANCH   8   9
BRANCH   8  11
ATOM     11  C   LIG d   1       2.428  84.821 115.863  0.00  0.00     0.028 C 
ATOM     12  C   LIG d   1       2.026  86.287 116.087  0.00  0.00     0.006 C 
ENDBRANCH   8  11
ENDBRANCH   7   8
ENDBRANCH   1   7
BRANCH   6  13
ATOM     13  N   LIG d   1       2.290  84.185 111.423  0.00  0.00    -0.311 N 
ATOM     14  C   LIG d   1       1.240  83.388 111.615  0.00  0.00     0.210 C 
ATOM     15  C   LIG d   1       1.122  82.225 110.625  0.00  0.00     0.109 C 
ATOM     16  O   LIG d   1       0.379  83.551 112.492  0.00  0.00    -0.276 OA
ATOM     17  H   LIG d   1       2.920  83.998 110.668  0.00  0.00     0.149 HD
ENDBRANCH   6  13
BRANCH   5  18
ATOM     18  N   LIG d   1       1.216  87.010 110.971  0.00  0.00     0.381 N 
ATOM     19  H   LIG d   1       1.110  86.614 110.059  0.00  0.00    -0.090 HD
ATOM     20  H   LIG d   1       1.126  88.008 110.895  0.00  0.00    -0.090 HD
ATOM     21  H   LIG d   1       0.514  86.652 111.580  0.00  0.00    -0.090 HD
ENDBRANCH   5  18
BRANCH   3  22
ATOM     22  C   LIG d   1       4.959  88.671 113.455  0.00  0.00     0.382 C 
ATOM     23  O   LIG d   1       4.645  89.823 113.068  0.00  0.00    -0.241 OA
ATOM     24  O   LIG d   1       6.006  88.509 114.111  0.00  0.00    -0.241 OA
ENDBRANCH   3  22
TORSDOF 7
ENDMDL
MODEL 8
REMARK VINA RESULT:      -5.1      3.103      6.031
REMARK  7 active torsions:
REMARK  status: ('A' for Active; 'I' for Inactive)
REMARK    1  A    between atoms: C_2  and  C_3 
REMARK    2  A    between atoms: C_3  and  O_6 
REMARK    3  A    between atoms: C_3  and  C_4 
REMARK    4  A    between atoms: C_7  and  O_6 
REMARK    5  A    between atoms: C_9  and  C_10 
REMARK    6  A    between atoms: N_15  and  C_14 
REMARK    7  A    between atoms: N_20  and  C_19 
REMARK       I    between atoms: C_22  and  N_20 
ROOT
ATOM      1  C   LIG d   1       2.546  84.391 112.916  0.00  0.00     0.161 C 
ATOM      2  C   LIG d   1       3.456  84.222 113.973  0.00  0.00     0.016 C 
ATOM      3  C   LIG d   1       4.131  85.296 114.598  0.00  0.00     0.038 C 
ATOM      4  C   LIG d   1       3.826  86.634 114.306  0.00  0.00     0.028 C 
ATOM      5  C   LIG d   1       3.283  86.838 112.896  0.00  0.00    -0.047 C 
ATOM      6  C   LIG d   1       2.117  85.851 112.659  0.00  0.00     0.091 C 
ENDROOT
BRANCH   1   7
ATOM      7  O   LIG d   1       1.388  83.559 113.130  0.00  0.00    -0.368 OA
BRANCH   7   8
ATOM      8  C   LIG d   1       1.313  82.354 112.329  0.00  0.00     0.119 C 
BRANCH   8   9
ATOM      9  C   LIG d   1       2.298  82.516 111.155  0.00  0.00     0.028 C 
ATOM     10  C   LIG d   1       1.583  82.590 109.796  0.00  0.00     0.006 C 
ENDBRANCH   8   9
BRANCH   8  11
ATOM     11  C   LIG d   1      -0.067  82.201 111.683  0.00  0.00     0.028 C 
ATOM     12  C   LIG d   1      -0.779  80.905 112.100  0.00  0.00     0.006 C 
ENDBRANCH   8  11
ENDBRANCH   7   8
ENDBRANCH   1   7
BRANCH   6  13
ATOM     13  N   LIG d   1       1.583  85.926 111.274  0.00  0.00    -0.311 N 
ATOM     14  C   LIG d   1       0.283  85.979 110.992  0.00  0.00     0.210 C 
ATOM     15  C   LIG d   1      -0.053  86.032 109.498  0.00  0.00     0.109 C 
ATOM     16  O   LIG d   1      -0.624  86.021 111.837  0.00  0.00    -0.276 OA
ATOM     17  H   LIG d   1       2.251  85.929 110.528  0.00  0.00     0.149 HD
ENDBRANCH   6  13
BRANCH   5  18
ATOM     18  N   LIG d   1       2.879  88.251 112.774  0.00  0.00     0.381 N 
ATOM     19  H   LIG d   1       2.171  88.460 113.450  0.00  0.00    -0.090 HD
ATOM     20  H   LIG d   1       2.494  88.401 111.858  0.00  0.00    -0.090 HD
ATOM     21  H   LIG d   1       3.667  88.845 112.913  0.00  0.00    -0.090 HD
ENDBRANCH   5  18
BRANCH   3  22
ATOM     22  C   LIG d   1       5.153  85.035 115.498  0.00  0.00     0.382 C 
ATOM     23  O   LIG d   1       5.408  83.852 115.831  0.00  0.00    -0.241 OA
ATOM     24  O   LIG d   1       5.793  85.969 116.016  0.00  0.00    -0.241 OA
ENDBRANCH   3  22
TORSDOF 7
ENDMDL
MODEL 9
REMARK VINA RESULT:      -5.1      3.065      4.868
REMARK  7 active torsions:
REMARK  status: ('A' for Active; 'I' for Inactive)
REMARK    1  A    between atoms: C_2  and  C_3 
REMARK    2  A    between atoms: C_3  and  O_6 
REMARK    3  A    between atoms: C_3  and  C_4 
REMARK    4  A    between atoms: C_7  and  O_6 
REMARK    5  A    between atoms: C_9  and  C_10 
REMARK    6  A    between atoms: N_15  and  C_14 
REMARK    7  A    between atoms: N_20  and  C_19 
REMARK       I    between atoms: C_22  and  N_20 
ROOT
ATOM      1  C   LIG d   1       2.061  84.537 113.179  0.00  0.00     0.161 C 
ATOM      2  C   LIG d   1       1.295  83.443 112.744  0.00  0.00     0.016 C 
ATOM      3  C   LIG d   1       0.555  83.442 111.539  0.00  0.00     0.038 C 
ATOM      4  C   LIG d   1       0.654  84.485 110.607  0.00  0.00     0.028 C 
ATOM      5  C   LIG d   1       1.018  85.826 111.236  0.00  0.00    -0.047 C 
ATOM      6  C   LIG d   1       2.271  85.641 112.122  0.00  0.00     0.091 C 
ENDROOT
BRANCH   1   7
ATOM      7  O   LIG d   1       3.332  84.075 113.679  0.00  0.00    -0.368 OA
BRANCH   7   8
ATOM      8  C   LIG d   1       3.510  84.130 115.116  0.00  0.00     0.119 C 
BRANCH   8   9
ATOM      9  C   LIG d   1       3.283  82.709 115.666  0.00  0.00     0.028 C 
ATOM     10  C   LIG d   1       2.512  82.711 116.997  0.00  0.00     0.006 C 
ENDBRANCH   8   9
BRANCH   8  11
ATOM     11  C   LIG d   1       2.435  84.998 115.777  0.00  0.00     0.028 C 
ATOM     12  C   LIG d   1       3.005  86.285 116.395  0.00  0.00     0.006 C 
ENDBRANCH   8  11
ENDBRANCH   7   8
ENDBRANCH   1   7
BRANCH   6  13
ATOM     13  N   LIG d   1       2.645  86.887 112.842  0.00  0.00    -0.311 N 
ATOM     14  C   LIG d   1       3.871  87.406 112.820  0.00  0.00     0.210 C 
ATOM     15  C   LIG d   1       4.047  88.684 113.646  0.00  0.00     0.109 C 
ATOM     16  O   LIG d   1       4.822  86.947 112.169  0.00  0.00    -0.276 OA
ATOM     17  H   LIG d   1       1.926  87.342 113.370  0.00  0.00     0.149 HD
ENDBRANCH   6  13
BRANCH   5  18
ATOM     18  N   LIG d   1       1.223  86.792 110.139  0.00  0.00     0.381 N 
ATOM     19  H   LIG d   1       1.459  86.304 109.298  0.00  0.00    -0.090 HD
ATOM     20  H   LIG d   1       1.989  87.396 110.378  0.00  0.00    -0.090 HD
ATOM     21  H   LIG d   1       0.397  87.330 110.000  0.00  0.00    -0.090 HD
ENDBRANCH   5  18
BRANCH   3  22
ATOM     22  C   LIG d   1      -0.326  82.404 111.275  0.00  0.00     0.382 C 
ATOM     23  O   LIG d   1      -1.425  82.347 111.878  0.00  0.00    -0.241 OA
ATOM     24  O   LIG d   1      -0.018  81.502 110.474  0.00  0.00    -0.241 OA
ENDBRANCH   3  22
TORSDOF 7
ENDMDL
