MODEL 1
REMARK VINA RESULT:      -6.3      0.000      0.000
REMARK  7 active torsions:
REMARK  status: ('A' for Active; 'I' for Inactive)
REMARK    1  A    between atoms: C_2  and  C_3 
REMARK    2  A    between atoms: C_3  and  O_6 
REMARK    3  A    between atoms: C_3  and  C_4 
REMARK    4  A    between atoms: C_7  and  O_6 
REMARK    5  A    between atoms: C_9  and  C_10 
REMARK    6  A    between atoms: N_15  and  C_14 
REMARK    7  A    between atoms: N_20  and  C_19 
REMARK       I    between atoms: C_22  and  N_20 
ROOT
ATOM      1  C   LIG d   1       1.818  83.199 111.689  0.00  0.00     0.161 C 
ATOM      2  C   LIG d   1       2.784  82.942 110.702  0.00  0.00     0.016 C 
ATOM      3  C   LIG d   1       2.748  81.811 109.853  0.00  0.00     0.038 C 
ATOM      4  C   LIG d   1       1.652  80.935 109.833  0.00  0.00     0.028 C 
ATOM      5  C   LIG d   1       0.900  80.874 111.158  0.00  0.00    -0.047 C 
ATOM      6  C   LIG d   1       0.557  82.313 111.607  0.00  0.00     0.091 C 
ENDROOT
BRANCH   1   7
ATOM      7  O   LIG d   1       1.454  84.593 111.664  0.00  0.00    -0.368 OA
BRANCH   7   8
ATOM      8  C   LIG d   1       1.913  85.352 110.519  0.00  0.00     0.119 C 
BRANCH   8   9
ATOM      9  C   LIG d   1       2.479  86.686 111.043  0.00  0.00     0.028 C 
ATOM     10  C   LIG d   1       3.957  86.575 111.454  0.00  0.00     0.006 C 
ENDBRANCH   8   9
BRANCH   8  11
ATOM     11  C   LIG d   1       0.748  85.738 109.602  0.00  0.00     0.028 C 
ATOM     12  C   LIG d   1      -0.586  85.861 110.355  0.00  0.00     0.006 C 
ENDBRANCH   8  11
ENDBRANCH   7   8
ENDBRANCH   1   7
BRANCH   6  13
ATOM     13  N   LIG d   1      -0.106  82.350 112.936  0.00  0.00    -0.311 N 
ATOM     14  C   LIG d   1      -1.427  82.313 113.097  0.00  0.00     0.210 C 
ATOM     15  C   LIG d   1      -1.903  82.382 114.552  0.00  0.00     0.109 C 
ATOM     16  O   LIG d   1      -2.250  82.198 112.176  0.00  0.00    -0.276 OA
ATOM     17  H   LIG d   1       0.488  82.411 113.740  0.00  0.00     0.149 HD
ENDBRANCH   6  13
BRANCH   5  18
ATOM     18  N   LIG d   1      -0.294  80.032 110.954  0.00  0.00     0.381 N 
ATOM     19  H   LIG d   1      -0.131  79.389 110.205  0.00  0.00    -0.090 HD
ATOM     20  H   LIG d   1      -1.068  80.621 110.702  0.00  0.00    -0.090 HD
ATOM     21  H   LIG d   1      -0.506  79.533 111.790  0.00  0.00    -0.090 HD
ENDBRANCH   5  18
BRANCH   3  22
ATOM     22  C   LIG d   1       3.834  81.527 109.041  0.00  0.00     0.382 C 
ATOM     23  O   LIG d   1       4.147  82.313 108.114  0.00  0.00    -0.241 OA
ATOM     24  O   LIG d   1       4.479  80.472 109.194  0.00  0.00    -0.241 OA
ENDBRANCH   3  22
TORSDOF 7
ENDMDL
MODEL 2
REMARK VINA RESULT:      -6.1      2.257      5.456
REMARK  7 active torsions:
REMARK  status: ('A' for Active; 'I' for Inactive)
REMARK    1  A    between atoms: C_2  and  C_3 
REMARK    2  A    between atoms: C_3  and  O_6 
REMARK    3  A    between atoms: C_3  and  C_4 
REMARK    4  A    between atoms: C_7  and  O_6 
REMARK    5  A    between atoms: C_9  and  C_10 
REMARK    6  A    between atoms: N_15  and  C_14 
REMARK    7  A    between atoms: N_20  and  C_19 
REMARK       I    between atoms: C_22  and  N_20 
ROOT
ATOM      1  C   LIG d   1       1.649  82.515 111.646  0.00  0.00     0.161 C 
ATOM      2  C   LIG d   1       0.528  81.717 111.928  0.00  0.00     0.016 C 
ATOM      3  C   LIG d   1      -0.726  82.245 112.313  0.00  0.00     0.038 C 
ATOM      4  C   LIG d   1      -0.988  83.623 112.295  0.00  0.00     0.028 C 
ATOM      5  C   LIG d   1       0.257  84.478 112.506  0.00  0.00    -0.047 C 
ATOM      6  C   LIG d   1       1.352  84.024 111.514  0.00  0.00     0.091 C 
ENDROOT
BRANCH   1   7
ATOM      7  O   LIG d   1       2.309  82.029 110.461  0.00  0.00    -0.368 OA
BRANCH   7   8
ATOM      8  C   LIG d   1       3.528  81.275 110.674  0.00  0.00     0.119 C 
BRANCH   8   9
ATOM      9  C   LIG d   1       4.700  82.136 110.166  0.00  0.00     0.028 C 
ATOM     10  C   LIG d   1       4.318  82.983 108.940  0.00  0.00     0.006 C 
ENDBRANCH   8   9
BRANCH   8  11
ATOM     11  C   LIG d   1       3.555  80.006 109.818  0.00  0.00     0.028 C 
ATOM     12  C   LIG d   1       2.185  79.667 109.211  0.00  0.00     0.006 C 
ENDBRANCH   8  11
ENDBRANCH   7   8
ENDBRANCH   1   7
BRANCH   6  13
ATOM     13  N   LIG d   1       2.632  84.753 111.710  0.00  0.00    -0.311 N 
ATOM     14  C   LIG d   1       2.922  85.901 111.100  0.00  0.00     0.210 C 
ATOM     15  C   LIG d   1       4.305  86.475 111.426  0.00  0.00     0.109 C 
ATOM     16  O   LIG d   1       2.153  86.515 110.345  0.00  0.00    -0.276 OA
ATOM     17  H   LIG d   1       3.301  84.341 112.330  0.00  0.00     0.149 HD
ENDBRANCH   6  13
BRANCH   5  18
ATOM     18  N   LIG d   1      -0.136  85.889 112.327  0.00  0.00     0.381 N 
ATOM     19  H   LIG d   1      -0.904  86.105 112.931  0.00  0.00    -0.090 HD
ATOM     20  H   LIG d   1      -0.433  86.025 111.377  0.00  0.00    -0.090 HD
ATOM     21  H   LIG d   1       0.635  86.486 112.531  0.00  0.00    -0.090 HD
ENDBRANCH   5  18
BRANCH   3  22
ATOM     22  C   LIG d   1      -1.723  81.391 112.759  0.00  0.00     0.382 C 
ATOM     23  O   LIG d   1      -1.422  80.270 113.237  0.00  0.00    -0.241 OA
ATOM     24  O   LIG d   1      -2.923  81.708 112.650  0.00  0.00    -0.241 OA
ENDBRANCH   3  22
TORSDOF 7
ENDMDL
MODEL 3
REMARK VINA RESULT:      -6.1      1.562      4.903
REMARK  7 active torsions:
REMARK  status: ('A' for Active; 'I' for Inactive)
REMARK    1  A    between atoms: C_2  and  C_3 
REMARK    2  A    between atoms: C_3  and  O_6 
REMARK    3  A    between atoms: C_3  and  C_4 
REMARK    4  A    between atoms: C_7  and  O_6 
REMARK    5  A    between atoms: C_9  and  C_10 
REMARK    6  A    between atoms: N_15  and  C_14 
REMARK    7  A    between atoms: N_20  and  C_19 
REMARK       I    between atoms: C_22  and  N_20 
ROOT
ATOM      1  C   LIG d   1       0.654  83.301 111.573  0.00  0.00     0.161 C 
ATOM      2  C   LIG d   1      -0.511  83.021 112.305  0.00  0.00     0.016 C 
ATOM      3  C   LIG d   1      -1.100  81.737 112.370  0.00  0.00     0.038 C 
ATOM      4  C   LIG d   1      -0.473  80.606 111.826  0.00  0.00     0.028 C 
ATOM      5  C   LIG d   1       0.443  80.928 110.650  0.00  0.00    -0.047 C 
ATOM      6  C   LIG d   1       1.413  82.057 111.064  0.00  0.00     0.091 C 
ENDROOT
BRANCH   1   7
ATOM      7  O   LIG d   1       1.531  84.139 112.352  0.00  0.00    -0.368 OA
BRANCH   7   8
ATOM      8  C   LIG d   1       1.772  85.469 111.830  0.00  0.00     0.119 C 
BRANCH   8   9
ATOM      9  C   LIG d   1       0.740  85.722 110.714  0.00  0.00     0.028 C 
ATOM     10  C   LIG d   1      -0.442  86.583 111.192  0.00  0.00     0.006 C 
ENDBRANCH   8   9
BRANCH   8  11
ATOM     11  C   LIG d   1       3.139  85.559 111.145  0.00  0.00     0.028 C 
ATOM     12  C   LIG d   1       3.981  86.742 111.649  0.00  0.00     0.006 C 
ENDBRANCH   8  11
ENDBRANCH   7   8
ENDBRANCH   1   7
BRANCH   6  13
ATOM     13  N   LIG d   1       2.289  82.491 109.945  0.00  0.00    -0.311 N 
ATOM     14  C   LIG d   1       3.520  82.021 109.752  0.00  0.00     0.210 C 
ATOM     15  C   LIG d   1       4.259  82.617 108.550  0.00  0.00     0.109 C 
ATOM     16  O   LIG d   1       4.058  81.144 110.444  0.00  0.00    -0.276 OA
ATOM     17  H   LIG d   1       1.919  83.178 109.317  0.00  0.00     0.149 HD
ENDBRANCH   6  13
BRANCH   5  18
ATOM     18  N   LIG d   1       1.135  79.681 110.270  0.00  0.00     0.381 N 
ATOM     19  H   LIG d   1       0.490  79.058 109.826  0.00  0.00    -0.090 HD
ATOM     20  H   LIG d   1       1.483  79.236 111.101  0.00  0.00    -0.090 HD
ATOM     21  H   LIG d   1       1.890  79.885 109.653  0.00  0.00    -0.090 HD
ENDBRANCH   5  18
BRANCH   3  22
ATOM     22  C   LIG d   1      -2.349  81.582 112.951  0.00  0.00     0.382 C 
ATOM     23  O   LIG d   1      -3.077  80.614 112.625  0.00  0.00    -0.241 OA
ATOM     24  O   LIG d   1      -2.776  82.423 113.764  0.00  0.00    -0.241 OA
ENDBRANCH   3  22
TORSDOF 7
ENDMDL
MODEL 4
REMARK VINA RESULT:      -6.0      2.193      5.044
REMARK  7 active torsions:
REMARK  status: ('A' for Active; 'I' for Inactive)
REMARK    1  A    between atoms: C_2  and  C_3 
REMARK    2  A    between atoms: C_3  and  O_6 
REMARK    3  A    between atoms: C_3  and  C_4 
REMARK    4  A    between atoms: C_7  and  O_6 
REMARK    5  A    between atoms: C_9  and  C_10 
REMARK    6  A    between atoms: N_15  and  C_14 
REMARK    7  A    between atoms: N_20  and  C_19 
REMARK       I    between atoms: C_22  and  N_20 
ROOT
ATOM      1  C   LIG d   1       2.289  84.949 110.517  0.00  0.00     0.161 C 
ATOM      2  C   LIG d   1       1.284  85.759 111.072  0.00  0.00     0.016 C 
ATOM      3  C   LIG d   1       0.165  85.244 111.767  0.00  0.00     0.038 C 
ATOM      4  C   LIG d   1       0.053  83.882 112.086  0.00  0.00     0.028 C 
ATOM      5  C   LIG d   1       0.787  82.969 111.110  0.00  0.00    -0.047 C 
ATOM      6  C   LIG d   1       2.241  83.469 110.951  0.00  0.00     0.091 C 
ENDROOT
BRANCH   1   7
ATOM      7  O   LIG d   1       3.584  85.514 110.803  0.00  0.00    -0.368 OA
BRANCH   7   8
ATOM      8  C   LIG d   1       3.690  86.278 112.029  0.00  0.00     0.119 C 
BRANCH   8   9
ATOM      9  C   LIG d   1       4.816  87.311 111.835  0.00  0.00     0.028 C 
ATOM     10  C   LIG d   1       4.726  88.474 112.838  0.00  0.00     0.006 C 
ENDBRANCH   8   9
BRANCH   8  11
ATOM     11  C   LIG d   1       4.145  85.397 113.197  0.00  0.00     0.028 C 
ATOM     12  C   LIG d   1       3.094  85.299 114.314  0.00  0.00     0.006 C 
ENDBRANCH   8  11
ENDBRANCH   7   8
ENDBRANCH   1   7
BRANCH   6  13
ATOM     13  N   LIG d   1       3.006  82.682 109.949  0.00  0.00    -0.311 N 
ATOM     14  C   LIG d   1       3.813  81.672 110.271  0.00  0.00     0.210 C 
ATOM     15  C   LIG d   1       4.521  81.008 109.086  0.00  0.00     0.109 C 
ATOM     16  O   LIG d   1       3.984  81.243 111.422  0.00  0.00    -0.276 OA
ATOM     17  H   LIG d   1       2.901  82.942 108.988  0.00  0.00     0.149 HD
ENDBRANCH   6  13
BRANCH   5  18
ATOM     18  N   LIG d   1       0.704  81.594 111.638  0.00  0.00     0.381 N 
ATOM     19  H   LIG d   1       1.295  80.989 111.103  0.00  0.00    -0.090 HD
ATOM     20  H   LIG d   1      -0.243  81.269 111.549  0.00  0.00    -0.090 HD
ATOM     21  H   LIG d   1       0.979  81.579 112.595  0.00  0.00    -0.090 HD
ENDBRANCH   5  18
BRANCH   3  22
ATOM     22  C   LIG d   1      -0.877  86.090 112.115  0.00  0.00     0.382 C 
ATOM     23  O   LIG d   1      -1.306  86.929 111.287  0.00  0.00    -0.241 OA
ATOM     24  O   LIG d   1      -1.363  86.054 113.261  0.00  0.00    -0.241 OA
ENDBRANCH   3  22
TORSDOF 7
ENDMDL
MODEL 5
REMARK VINA RESULT:      -6.0      2.070      2.798
REMARK  7 active torsions:
REMARK  status: ('A' for Active; 'I' for Inactive)
REMARK    1  A    between atoms: C_2  and  C_3 
REMARK    2  A    between atoms: C_3  and  O_6 
REMARK    3  A    between atoms: C_3  and  C_4 
REMARK    4  A    between atoms: C_7  and  O_6 
REMARK    5  A    between atoms: C_9  and  C_10 
REMARK    6  A    between atoms: N_15  and  C_14 
REMARK    7  A    between atoms: N_20  and  C_19 
REMARK       I    between atoms: C_22  and  N_20 
ROOT
ATOM      1  C   LIG d   1       2.354  84.902 111.630  0.00  0.00     0.161 C 
ATOM      2  C   LIG d   1       3.178  84.338 110.642  0.00  0.00     0.016 C 
ATOM      3  C   LIG d   1       2.820  83.196 109.889  0.00  0.00     0.038 C 
ATOM      4  C   LIG d   1       1.539  82.628 109.967  0.00  0.00     0.028 C 
ATOM      5  C   LIG d   1       0.857  82.856 111.312  0.00  0.00    -0.047 C 
ATOM      6  C   LIG d   1       0.908  84.363 111.652  0.00  0.00     0.091 C 
ENDROOT
BRANCH   1   7
ATOM      7  O   LIG d   1       2.351  86.338 111.502  0.00  0.00    -0.368 OA
BRANCH   7   8
ATOM      8  C   LIG d   1       3.139  87.066 112.476  0.00  0.00     0.119 C 
BRANCH   8   9
ATOM      9  C   LIG d   1       4.565  87.201 111.909  0.00  0.00     0.028 C 
ATOM     10  C   LIG d   1       5.375  88.303 112.614  0.00  0.00     0.006 C 
ENDBRANCH   8   9
BRANCH   8  11
ATOM     11  C   LIG d   1       3.292  86.271 113.775  0.00  0.00     0.028 C 
ATOM     12  C   LIG d   1       2.588  86.936 114.968  0.00  0.00     0.006 C 
ENDBRANCH   8  11
ENDBRANCH   7   8
ENDBRANCH   1   7
BRANCH   6  13
ATOM     13  N   LIG d   1       0.337  84.662 112.991  0.00  0.00    -0.311 N 
ATOM     14  C   LIG d   1      -0.599  85.587 113.199  0.00  0.00     0.210 C 
ATOM     15  C   LIG d   1      -1.035  85.749 114.658  0.00  0.00     0.109 C 
ATOM     16  O   LIG d   1      -1.132  86.266 112.309  0.00  0.00    -0.276 OA
ATOM     17  H   LIG d   1       0.690  84.135 113.765  0.00  0.00     0.149 HD
ENDBRANCH   6  13
BRANCH   5  18
ATOM     18  N   LIG d   1      -0.518  82.333 111.208  0.00  0.00     0.381 N 
ATOM     19  H   LIG d   1      -0.991  82.448 112.082  0.00  0.00    -0.090 HD
ATOM     20  H   LIG d   1      -0.478  81.351 110.998  0.00  0.00    -0.090 HD
ATOM     21  H   LIG d   1      -1.012  82.813 110.489  0.00  0.00    -0.090 HD
ENDBRANCH   5  18
BRANCH   3  22
ATOM     22  C   LIG d   1       3.762  82.587 109.074  0.00  0.00     0.382 C 
ATOM     23  O   LIG d   1       3.454  82.248 107.906  0.00  0.00    -0.241 OA
ATOM     24  O   LIG d   1       4.902  82.333 109.507  0.00  0.00    -0.241 OA
ENDBRANCH   3  22
TORSDOF 7
ENDMDL
MODEL 6
REMARK VINA RESULT:      -5.9      1.867      2.195
REMARK  7 active torsions:
REMARK  status: ('A' for Active; 'I' for Inactive)
REMARK    1  A    between atoms: C_2  and  C_3 
REMARK    2  A    between atoms: C_3  and  O_6 
REMARK    3  A    between atoms: C_3  and  C_4 
REMARK    4  A    between atoms: C_7  and  O_6 
REMARK    5  A    between atoms: C_9  and  C_10 
REMARK    6  A    between atoms: N_15  and  C_14 
REMARK    7  A    between atoms: N_20  and  C_19 
REMARK       I    between atoms: C_22  and  N_20 
ROOT
ATOM      1  C   LIG d   1       2.006  83.846 112.839  0.00  0.00     0.161 C 
ATOM      2  C   LIG d   1       2.801  82.995 112.053  0.00  0.00     0.016 C 
ATOM      3  C   LIG d   1       2.285  81.896 111.330  0.00  0.00     0.038 C 
ATOM      4  C   LIG d   1       0.906  81.662 111.221  0.00  0.00     0.028 C 
ATOM      5  C   LIG d   1       0.106  82.194 112.405  0.00  0.00    -0.047 C 
ATOM      6  C   LIG d   1       0.485  83.674 112.643  0.00  0.00     0.091 C 
ENDROOT
BRANCH   1   7
ATOM      7  O   LIG d   1       2.388  85.218 112.612  0.00  0.00    -0.368 OA
BRANCH   7   8
ATOM      8  C   LIG d   1       2.802  85.550 111.264  0.00  0.00     0.119 C 
BRANCH   8   9
ATOM      9  C   LIG d   1       4.034  86.469 111.372  0.00  0.00     0.028 C 
ATOM     10  C   LIG d   1       3.906  87.491 112.515  0.00  0.00     0.006 C 
ENDBRANCH   8   9
BRANCH   8  11
ATOM     11  C   LIG d   1       1.738  86.382 110.543  0.00  0.00     0.028 C 
ATOM     12  C   LIG d   1       0.928  85.561 109.527  0.00  0.00     0.006 C 
ENDBRANCH   8  11
ENDBRANCH   7   8
ENDBRANCH   1   7
BRANCH   6  13
ATOM     13  N   LIG d   1      -0.190  84.247 113.836  0.00  0.00    -0.311 N 
ATOM     14  C   LIG d   1      -0.876  85.389 113.812  0.00  0.00     0.210 C 
ATOM     15  C   LIG d   1      -1.476  85.811 115.157  0.00  0.00     0.109 C 
ATOM     16  O   LIG d   1      -1.073  86.075 112.797  0.00  0.00    -0.276 OA
ATOM     17  H   LIG d   1      -0.108  83.739 114.695  0.00  0.00     0.149 HD
ENDBRANCH   6  13
BRANCH   5  18
ATOM     18  N   LIG d   1      -1.325  82.006 112.097  0.00  0.00     0.381 N 
ATOM     19  H   LIG d   1      -1.761  81.475 112.824  0.00  0.00    -0.090 HD
ATOM     20  H   LIG d   1      -1.407  81.493 111.238  0.00  0.00    -0.090 HD
ATOM     21  H   LIG d   1      -1.773  82.891 112.008  0.00  0.00    -0.090 HD
ENDBRANCH   5  18
BRANCH   3  22
ATOM     22  C   LIG d   1       3.155  80.993 110.738  0.00  0.00     0.382 C 
ATOM     23  O   LIG d   1       4.388  81.080 110.949  0.00  0.00    -0.241 OA
ATOM     24  O   LIG d   1       2.726  80.119 109.960  0.00  0.00    -0.241 OA
ENDBRANCH   3  22
TORSDOF 7
ENDMDL
MODEL 7
REMARK VINA RESULT:      -5.8      2.591      5.206
REMARK  7 active torsions:
REMARK  status: ('A' for Active; 'I' for Inactive)
REMARK    1  A    between atoms: C_2  and  C_3 
REMARK    2  A    between atoms: C_3  and  O_6 
REMARK    3  A    between atoms: C_3  and  C_4 
REMARK    4  A    between atoms: C_7  and  O_6 
REMARK    5  A    between atoms: C_9  and  C_10 
REMARK    6  A    between atoms: N_15  and  C_14 
REMARK    7  A    between atoms: N_20  and  C_19 
REMARK       I    between atoms: C_22  and  N_20 
ROOT
ATOM      1  C   LIG d   1       3.323  83.766 111.621  0.00  0.00     0.161 C 
ATOM      2  C   LIG d   1       2.749  85.007 111.941  0.00  0.00     0.016 C 
ATOM      3  C   LIG d   1       1.826  85.677 111.105  0.00  0.00     0.038 C 
ATOM      4  C   LIG d   1       1.295  85.075 109.955  0.00  0.00     0.028 C 
ATOM      5  C   LIG d   1       2.224  84.040 109.330  0.00  0.00    -0.047 C 
ATOM      6  C   LIG d   1       2.672  83.043 110.423  0.00  0.00     0.091 C 
ENDROOT
BRANCH   1   7
ATOM      7  O   LIG d   1       3.321  82.912 112.782  0.00  0.00    -0.368 OA
BRANCH   7   8
ATOM      8  C   LIG d   1       2.083  82.860 113.533  0.00  0.00     0.119 C 
BRANCH   8   9
ATOM      9  C   LIG d   1       2.442  82.987 115.026  0.00  0.00     0.028 C 
ATOM     10  C   LIG d   1       2.200  84.405 115.570  0.00  0.00     0.006 C 
ENDBRANCH   8   9
BRANCH   8  11
ATOM     11  C   LIG d   1       1.404  81.494 113.394  0.00  0.00     0.028 C 
ATOM     12  C   LIG d   1       0.095  81.559 112.591  0.00  0.00     0.006 C 
ENDBRANCH   8  11
ENDBRANCH   7   8
ENDBRANCH   1   7
BRANCH   6  13
ATOM     13  N   LIG d   1       3.649  82.045 109.914  0.00  0.00    -0.311 N 
ATOM     14  C   LIG d   1       3.395  80.740 109.844  0.00  0.00     0.210 C 
ATOM     15  C   LIG d   1       4.548  79.885 109.308  0.00  0.00     0.109 C 
ATOM     16  O   LIG d   1       2.314  80.212 110.145  0.00  0.00    -0.276 OA
ATOM     17  H   LIG d   1       4.542  82.391 109.620  0.00  0.00     0.149 HD
ENDBRANCH   6  13
BRANCH   5  18
ATOM     18  N   LIG d   1       1.492  83.395 108.223  0.00  0.00     0.381 N 
ATOM     19  H   LIG d   1       1.401  82.415 108.404  0.00  0.00    -0.090 HD
ATOM     20  H   LIG d   1       2.017  83.511 107.375  0.00  0.00    -0.090 HD
ATOM     21  H   LIG d   1       0.591  83.807 108.124  0.00  0.00    -0.090 HD
ENDBRANCH   5  18
BRANCH   3  22
ATOM     22  C   LIG d   1       1.454  86.981 111.398  0.00  0.00     0.382 C 
ATOM     23  O   LIG d   1       0.255  87.250 111.647  0.00  0.00    -0.241 OA
ATOM     24  O   LIG d   1       2.296  87.898 111.371  0.00  0.00    -0.241 OA
ENDBRANCH   3  22
TORSDOF 7
ENDMDL
MODEL 8
REMARK VINA RESULT:      -5.7      2.189      4.990
REMARK  7 active torsions:
REMARK  status: ('A' for Active; 'I' for Inactive)
REMARK    1  A    between atoms: C_2  and  C_3 
REMARK    2  A    between atoms: C_3  and  O_6 
REMARK    3  A    between atoms: C_3  and  C_4 
REMARK    4  A    between atoms: C_7  and  O_6 
REMARK    5  A    between atoms: C_9  and  C_10 
REMARK    6  A    between atoms: N_15  and  C_14 
REMARK    7  A    between atoms: N_20  and  C_19 
REMARK       I    between atoms: C_22  and  N_20 
ROOT
ATOM      1  C   LIG d   1       0.017  84.317 111.386  0.00  0.00     0.161 C 
ATOM      2  C   LIG d   1      -0.312  85.209 112.420  0.00  0.00     0.016 C 
ATOM      3  C   LIG d   1      -0.694  84.791 113.715  0.00  0.00     0.038 C 
ATOM      4  C   LIG d   1      -0.627  83.447 114.111  0.00  0.00     0.028 C 
ATOM      5  C   LIG d   1      -0.786  82.466 112.954  0.00  0.00    -0.047 C 
ATOM      6  C   LIG d   1       0.204  82.851 111.831  0.00  0.00     0.091 C 
ENDROOT
BRANCH   1   7
ATOM      7  O   LIG d   1       1.192  84.784 110.693  0.00  0.00    -0.368 OA
BRANCH   7   8
ATOM      8  C   LIG d   1       2.352  85.055 111.518  0.00  0.00     0.119 C 
BRANCH   8   9
ATOM      9  C   LIG d   1       2.863  86.461 111.149  0.00  0.00     0.028 C 
ATOM     10  C   LIG d   1       4.217  86.784 111.804  0.00  0.00     0.006 C 
ENDBRANCH   8   9
BRANCH   8  11
ATOM     11  C   LIG d   1       3.506  84.104 111.187  0.00  0.00     0.028 C 
ATOM     12  C   LIG d   1       3.612  83.796 109.685  0.00  0.00     0.006 C 
ENDBRANCH   8  11
ENDBRANCH   7   8
ENDBRANCH   1   7
BRANCH   6  13
ATOM     13  N   LIG d   1       0.055  81.993 110.626  0.00  0.00    -0.311 N 
ATOM     14  C   LIG d   1       0.976  81.114 110.235  0.00  0.00     0.210 C 
ATOM     15  C   LIG d   1       0.633  80.345 108.954  0.00  0.00     0.109 C 
ATOM     16  O   LIG d   1       2.029  80.874 110.844  0.00  0.00    -0.276 OA
ATOM     17  H   LIG d   1      -0.784  82.100 110.090  0.00  0.00     0.149 HD
ENDBRANCH   6  13
BRANCH   5  18
ATOM     18  N   LIG d   1      -0.558  81.109 113.485  0.00  0.00     0.381 N 
ATOM     19  H   LIG d   1       0.143  81.138 114.199  0.00  0.00    -0.090 HD
ATOM     20  H   LIG d   1      -0.227  80.520 112.742  0.00  0.00    -0.090 HD
ATOM     21  H   LIG d   1      -1.406  80.742 113.858  0.00  0.00    -0.090 HD
ENDBRANCH   5  18
BRANCH   3  22
ATOM     22  C   LIG d   1      -1.188  85.720 114.619  0.00  0.00     0.382 C 
ATOM     23  O   LIG d   1      -2.417  85.761 114.867  0.00  0.00    -0.241 OA
ATOM     24  O   LIG d   1      -0.426  86.546 115.155  0.00  0.00    -0.241 OA
ENDBRANCH   3  22
TORSDOF 7
ENDMDL
MODEL 9
REMARK VINA RESULT:      -5.7      1.871      5.129
REMARK  7 active torsions:
REMARK  status: ('A' for Active; 'I' for Inactive)
REMARK    1  A    between atoms: C_2  and  C_3 
REMARK    2  A    between atoms: C_3  and  O_6 
REMARK    3  A    between atoms: C_3  and  C_4 
REMARK    4  A    between atoms: C_7  and  O_6 
REMARK    5  A    between atoms: C_9  and  C_10 
REMARK    6  A    between atoms: N_15  and  C_14 
REMARK    7  A    between atoms: N_20  and  C_19 
REMARK       I    between atoms: C_22  and  N_20 
ROOT
ATOM      1  C   LIG d   1       0.584  83.387 111.385  0.00  0.00     0.161 C 
ATOM      2  C   LIG d   1      -0.560  83.114 112.154  0.00  0.00     0.016 C 
ATOM      3  C   LIG d   1      -1.097  81.816 112.316  0.00  0.00     0.038 C 
ATOM      4  C   LIG d   1      -0.435  80.675 111.839  0.00  0.00     0.028 C 
ATOM      5  C   LIG d   1       0.451  80.950 110.628  0.00  0.00    -0.047 C 
ATOM      6  C   LIG d   1       1.382  82.141 110.948  0.00  0.00     0.091 C 
ENDROOT
BRANCH   1   7
ATOM      7  O   LIG d   1       1.438  84.309 112.090  0.00  0.00    -0.368 OA
BRANCH   7   8
ATOM      8  C   LIG d   1       2.481  83.716 112.904  0.00  0.00     0.119 C 
BRANCH   8   9
ATOM      9  C   LIG d   1       2.142  84.013 114.377  0.00  0.00     0.028 C 
ATOM     10  C   LIG d   1       1.880  82.732 115.188  0.00  0.00     0.006 C 
ENDBRANCH   8   9
BRANCH   8  11
ATOM     11  C   LIG d   1       3.833  84.391 112.655  0.00  0.00     0.028 C 
ATOM     12  C   LIG d   1       3.809  85.349 111.454  0.00  0.00     0.006 C 
ENDBRANCH   8  11
ENDBRANCH   7   8
ENDBRANCH   1   7
BRANCH   6  13
ATOM     13  N   LIG d   1       2.224  82.531 109.787  0.00  0.00    -0.311 N 
ATOM     14  C   LIG d   1       3.476  82.111 109.616  0.00  0.00     0.210 C 
ATOM     15  C   LIG d   1       4.173  82.647 108.361  0.00  0.00     0.109 C 
ATOM     16  O   LIG d   1       4.066  81.319 110.367  0.00  0.00    -0.276 OA
ATOM     17  H   LIG d   1       1.814  83.146 109.112  0.00  0.00     0.149 HD
ENDBRANCH   6  13
BRANCH   5  18
ATOM     18  N   LIG d   1       1.185  79.708 110.322  0.00  0.00     0.381 N 
ATOM     19  H   LIG d   1       1.560  79.756 109.396  0.00  0.00    -0.090 HD
ATOM     20  H   LIG d   1       0.545  78.934 110.362  0.00  0.00    -0.090 HD
ATOM     21  H   LIG d   1       1.920  79.575 110.980  0.00  0.00    -0.090 HD
ENDBRANCH   5  18
BRANCH   3  22
ATOM     22  C   LIG d   1      -2.331  81.655 112.927  0.00  0.00     0.382 C 
ATOM     23  O   LIG d   1      -3.071  80.696 112.601  0.00  0.00    -0.241 OA
ATOM     24  O   LIG d   1      -2.732  82.481 113.769  0.00  0.00    -0.241 OA
ENDBRANCH   3  22
TORSDOF 7
ENDMDL
