MODEL 1
REMARK VINA RESULT:      -6.6      0.000      0.000
REMARK  7 active torsions:
REMARK  status: ('A' for Active; 'I' for Inactive)
REMARK    1  A    between atoms: C_2  and  C_3 
REMARK    2  A    between atoms: C_3  and  O_6 
REMARK    3  A    between atoms: C_3  and  C_4 
REMARK    4  A    between atoms: C_7  and  O_6 
REMARK    5  A    between atoms: C_9  and  C_10 
REMARK    6  A    between atoms: N_15  and  C_14 
REMARK    7  A    between atoms: N_20  and  C_19 
REMARK       I    between atoms: C_22  and  N_20 
ROOT
ATOM      1  C   LIG d   1       1.855  83.926 111.700  0.00  0.00     0.161 C 
ATOM      2  C   LIG d   1       0.734  83.108 111.915  0.00  0.00     0.016 C 
ATOM      3  C   LIG d   1      -0.320  83.446 112.795  0.00  0.00     0.038 C 
ATOM      4  C   LIG d   1      -0.397  84.705 113.410  0.00  0.00     0.028 C 
ATOM      5  C   LIG d   1       0.964  85.362 113.617  0.00  0.00    -0.047 C 
ATOM      6  C   LIG d   1       1.735  85.352 112.277  0.00  0.00     0.091 C 
ENDROOT
BRANCH   1   7
ATOM      7  O   LIG d   1       2.159  83.979 110.292  0.00  0.00    -0.368 OA
BRANCH   7   8
ATOM      8  C   LIG d   1       1.034  83.833 109.391  0.00  0.00     0.119 C 
BRANCH   8   9
ATOM      9  C   LIG d   1       1.520  83.029 108.170  0.00  0.00     0.028 C 
ATOM     10  C   LIG d   1       1.197  83.730 106.840  0.00  0.00     0.006 C 
ENDBRANCH   8   9
BRANCH   8  11
ATOM     11  C   LIG d   1       0.587  85.188 108.834  0.00  0.00     0.028 C 
ATOM     12  C   LIG d   1      -0.628  85.766 109.576  0.00  0.00     0.006 C 
ENDBRANCH   8  11
ENDBRANCH   7   8
ENDBRANCH   1   7
BRANCH   6  13
ATOM     13  N   LIG d   1       3.110  85.901 112.410  0.00  0.00    -0.311 N 
ATOM     14  C   LIG d   1       3.413  87.179 112.190  0.00  0.00     0.210 C 
ATOM     15  C   LIG d   1       4.894  87.531 112.364  0.00  0.00     0.109 C 
ATOM     16  O   LIG d   1       2.592  88.061 111.898  0.00  0.00    -0.276 OA
ATOM     17  H   LIG d   1       3.833  85.261 112.674  0.00  0.00     0.149 HD
ENDBRANCH   6  13
BRANCH   5  18
ATOM     18  N   LIG d   1       0.727  86.722 114.138  0.00  0.00     0.381 N 
ATOM     19  H   LIG d   1       0.063  87.195 113.559  0.00  0.00    -0.090 HD
ATOM     20  H   LIG d   1       1.591  87.235 114.111  0.00  0.00    -0.090 HD
ATOM     21  H   LIG d   1       0.390  86.674 115.074  0.00  0.00    -0.090 HD
ENDBRANCH   5  18
BRANCH   3  22
ATOM     22  C   LIG d   1      -1.291  82.505 113.098  0.00  0.00     0.382 C 
ATOM     23  O   LIG d   1      -1.174  81.792 114.125  0.00  0.00    -0.241 OA
ATOM     24  O   LIG d   1      -2.260  82.328 112.336  0.00  0.00    -0.241 OA
ENDBRANCH   3  22
TORSDOF 7
ENDMDL
MODEL 2
REMARK VINA RESULT:      -6.3      2.425      5.431
REMARK  7 active torsions:
REMARK  status: ('A' for Active; 'I' for Inactive)
REMARK    1  A    between atoms: C_2  and  C_3 
REMARK    2  A    between atoms: C_3  and  O_6 
REMARK    3  A    between atoms: C_3  and  C_4 
REMARK    4  A    between atoms: C_7  and  O_6 
REMARK    5  A    between atoms: C_9  and  C_10 
REMARK    6  A    between atoms: N_15  and  C_14 
REMARK    7  A    between atoms: N_20  and  C_19 
REMARK       I    between atoms: C_22  and  N_20 
ROOT
ATOM      1  C   LIG d   1       1.886  83.520 111.764  0.00  0.00     0.161 C 
ATOM      2  C   LIG d   1       2.788  83.430 110.691  0.00  0.00     0.016 C 
ATOM      3  C   LIG d   1       2.601  82.568 109.587  0.00  0.00     0.038 C 
ATOM      4  C   LIG d   1       1.414  81.842 109.405  0.00  0.00     0.028 C 
ATOM      5  C   LIG d   1       0.698  81.517 110.712  0.00  0.00    -0.047 C 
ATOM      6  C   LIG d   1       0.532  82.818 111.530  0.00  0.00     0.091 C 
ENDROOT
BRANCH   1   7
ATOM      7  O   LIG d   1       1.680  84.903 112.114  0.00  0.00    -0.368 OA
BRANCH   7   8
ATOM      8  C   LIG d   1       1.984  85.874 111.083  0.00  0.00     0.119 C 
BRANCH   8   9
ATOM      9  C   LIG d   1       2.679  87.069 111.764  0.00  0.00     0.028 C 
ATOM     10  C   LIG d   1       4.178  86.819 112.002  0.00  0.00     0.006 C 
ENDBRANCH   8   9
BRANCH   8  11
ATOM     11  C   LIG d   1       0.707  86.447 110.463  0.00  0.00     0.028 C 
ATOM     12  C   LIG d   1       0.351  85.791 109.119  0.00  0.00     0.006 C 
ENDBRANCH   8  11
ENDBRANCH   7   8
ENDBRANCH   1   7
BRANCH   6  13
ATOM     13  N   LIG d   1      -0.085  82.577 112.860  0.00  0.00    -0.311 N 
ATOM     14  C   LIG d   1      -1.399  82.468 113.050  0.00  0.00     0.210 C 
ATOM     15  C   LIG d   1      -1.826  82.240 114.504  0.00  0.00     0.109 C 
ATOM     16  O   LIG d   1      -2.250  82.508 112.148  0.00  0.00    -0.276 OA
ATOM     17  H   LIG d   1       0.534  82.500 113.643  0.00  0.00     0.149 HD
ENDBRANCH   6  13
BRANCH   5  18
ATOM     18  N   LIG d   1      -0.589  80.882 110.368  0.00  0.00     0.381 N 
ATOM     19  H   LIG d   1      -0.627  80.705 109.384  0.00  0.00    -0.090 HD
ATOM     20  H   LIG d   1      -1.335  81.512 110.605  0.00  0.00    -0.090 HD
ATOM     21  H   LIG d   1      -0.692  80.028 110.871  0.00  0.00    -0.090 HD
ENDBRANCH   5  18
BRANCH   3  22
ATOM     22  C   LIG d   1       3.626  82.395 108.668  0.00  0.00     0.382 C 
ATOM     23  O   LIG d   1       4.805  82.685 108.983  0.00  0.00    -0.241 OA
ATOM     24  O   LIG d   1       3.379  81.994 107.515  0.00  0.00    -0.241 OA
ENDBRANCH   3  22
TORSDOF 7
ENDMDL
MODEL 3
REMARK VINA RESULT:      -6.1      3.134      6.224
REMARK  7 active torsions:
REMARK  status: ('A' for Active; 'I' for Inactive)
REMARK    1  A    between atoms: C_2  and  C_3 
REMARK    2  A    between atoms: C_3  and  O_6 
REMARK    3  A    between atoms: C_3  and  C_4 
REMARK    4  A    between atoms: C_7  and  O_6 
REMARK    5  A    between atoms: C_9  and  C_10 
REMARK    6  A    between atoms: N_15  and  C_14 
REMARK    7  A    between atoms: N_20  and  C_19 
REMARK       I    between atoms: C_22  and  N_20 
ROOT
ATOM      1  C   LIG d   1       0.327  82.584 110.729  0.00  0.00     0.161 C 
ATOM      2  C   LIG d   1       0.214  83.964 110.965  0.00  0.00     0.016 C 
ATOM      3  C   LIG d   1       0.582  84.948 110.020  0.00  0.00     0.038 C 
ATOM      4  C   LIG d   1       0.951  84.616 108.708  0.00  0.00     0.028 C 
ATOM      5  C   LIG d   1       1.562  83.224 108.585  0.00  0.00    -0.047 C 
ATOM      6  C   LIG d   1       0.622  82.201 109.263  0.00  0.00     0.091 C 
ENDROOT
BRANCH   1   7
ATOM      7  O   LIG d   1      -0.858  81.909 111.194  0.00  0.00    -0.368 OA
BRANCH   7   8
ATOM      8  C   LIG d   1      -0.774  81.304 112.507  0.00  0.00     0.119 C 
BRANCH   8   9
ATOM      9  C   LIG d   1      -0.930  79.781 112.327  0.00  0.00     0.028 C 
ATOM     10  C   LIG d   1      -2.390  79.320 112.468  0.00  0.00     0.006 C 
ENDBRANCH   8   9
BRANCH   8  11
ATOM     11  C   LIG d   1      -1.948  81.729 113.394  0.00  0.00     0.028 C 
ATOM     12  C   LIG d   1      -1.571  82.836 114.392  0.00  0.00     0.006 C 
ENDBRANCH   8  11
ENDBRANCH   7   8
ENDBRANCH   1   7
BRANCH   6  13
ATOM     13  N   LIG d   1       1.186  80.826 109.262  0.00  0.00    -0.311 N 
ATOM     14  C   LIG d   1       0.463  79.738 109.003  0.00  0.00     0.210 C 
ATOM     15  C   LIG d   1       1.235  78.417 109.074  0.00  0.00     0.109 C 
ATOM     16  O   LIG d   1      -0.737  79.744 108.690  0.00  0.00    -0.276 OA
ATOM     17  H   LIG d   1       2.159  80.732 109.475  0.00  0.00     0.149 HD
ENDBRANCH   6  13
BRANCH   5  18
ATOM     18  N   LIG d   1       1.771  82.954 107.150  0.00  0.00     0.381 N 
ATOM     19  H   LIG d   1       2.283  82.102 107.037  0.00  0.00    -0.090 HD
ATOM     20  H   LIG d   1       2.313  83.702 106.755  0.00  0.00    -0.090 HD
ATOM     21  H   LIG d   1       0.893  82.888 106.684  0.00  0.00    -0.090 HD
ENDBRANCH   5  18
BRANCH   3  22
ATOM     22  C   LIG d   1       0.623  86.282 110.398  0.00  0.00     0.382 C 
ATOM     23  O   LIG d   1      -0.434  86.874 110.724  0.00  0.00    -0.241 OA
ATOM     24  O   LIG d   1       1.696  86.913 110.373  0.00  0.00    -0.241 OA
ENDBRANCH   3  22
TORSDOF 7
ENDMDL
MODEL 4
REMARK VINA RESULT:      -6.0      2.822      4.597
REMARK  7 active torsions:
REMARK  status: ('A' for Active; 'I' for Inactive)
REMARK    1  A    between atoms: C_2  and  C_3 
REMARK    2  A    between atoms: C_3  and  O_6 
REMARK    3  A    between atoms: C_3  and  C_4 
REMARK    4  A    between atoms: C_7  and  O_6 
REMARK    5  A    between atoms: C_9  and  C_10 
REMARK    6  A    between atoms: N_15  and  C_14 
REMARK    7  A    between atoms: N_20  and  C_19 
REMARK       I    between atoms: C_22  and  N_20 
ROOT
ATOM      1  C   LIG d   1       0.061  82.716 111.280  0.00  0.00     0.161 C 
ATOM      2  C   LIG d   1      -1.027  82.517 112.146  0.00  0.00     0.016 C 
ATOM      3  C   LIG d   1      -1.578  81.245 112.424  0.00  0.00     0.038 C 
ATOM      4  C   LIG d   1      -0.978  80.062 111.970  0.00  0.00     0.028 C 
ATOM      5  C   LIG d   1      -0.179  80.243 110.683  0.00  0.00    -0.047 C 
ATOM      6  C   LIG d   1       0.799  81.427 110.862  0.00  0.00     0.091 C 
ENDROOT
BRANCH   1   7
ATOM      7  O   LIG d   1       0.985  83.655 111.864  0.00  0.00    -0.368 OA
BRANCH   7   8
ATOM      8  C   LIG d   1       1.148  84.911 111.160  0.00  0.00     0.119 C 
BRANCH   8   9
ATOM      9  C   LIG d   1       1.128  86.037 112.211  0.00  0.00     0.028 C 
ATOM     10  C   LIG d   1      -0.112  85.972 113.118  0.00  0.00     0.006 C 
ENDBRANCH   8   9
BRANCH   8  11
ATOM     11  C   LIG d   1      -0.044  85.193 110.241  0.00  0.00     0.028 C 
ATOM     12  C   LIG d   1       0.379  85.729 108.864  0.00  0.00     0.006 C 
ENDBRANCH   8  11
ENDBRANCH   7   8
ENDBRANCH   1   7
BRANCH   6  13
ATOM     13  N   LIG d   1       1.560  81.726 109.621  0.00  0.00    -0.311 N 
ATOM     14  C   LIG d   1       2.881  81.889 109.593  0.00  0.00     0.210 C 
ATOM     15  C   LIG d   1       3.464  82.211 108.213  0.00  0.00     0.109 C 
ATOM     16  O   LIG d   1       3.630  81.765 110.574  0.00  0.00    -0.276 OA
ATOM     17  H   LIG d   1       1.034  81.813 108.774  0.00  0.00     0.149 HD
ENDBRANCH   6  13
BRANCH   5  18
ATOM     18  N   LIG d   1       0.504  78.967 110.399  0.00  0.00     0.381 N 
ATOM     19  H   LIG d   1       1.003  79.035 109.534  0.00  0.00    -0.090 HD
ATOM     20  H   LIG d   1      -0.186  78.242 110.309  0.00  0.00    -0.090 HD
ATOM     21  H   LIG d   1       1.134  78.746 111.138  0.00  0.00    -0.090 HD
ENDBRANCH   5  18
BRANCH   3  22
ATOM     22  C   LIG d   1      -2.766  81.151 113.133  0.00  0.00     0.382 C 
ATOM     23  O   LIG d   1      -3.612  82.076 113.065  0.00  0.00    -0.241 OA
ATOM     24  O   LIG d   1      -2.984  80.174 113.873  0.00  0.00    -0.241 OA
ENDBRANCH   3  22
TORSDOF 7
ENDMDL
MODEL 5
REMARK VINA RESULT:      -5.8      2.991      4.236
REMARK  7 active torsions:
REMARK  status: ('A' for Active; 'I' for Inactive)
REMARK    1  A    between atoms: C_2  and  C_3 
REMARK    2  A    between atoms: C_3  and  O_6 
REMARK    3  A    between atoms: C_3  and  C_4 
REMARK    4  A    between atoms: C_7  and  O_6 
REMARK    5  A    between atoms: C_9  and  C_10 
REMARK    6  A    between atoms: N_15  and  C_14 
REMARK    7  A    between atoms: N_20  and  C_19 
REMARK       I    between atoms: C_22  and  N_20 
ROOT
ATOM      1  C   LIG d   1       0.082  81.265 111.654  0.00  0.00     0.161 C 
ATOM      2  C   LIG d   1      -0.497  80.025 111.335  0.00  0.00     0.016 C 
ATOM      3  C   LIG d   1      -1.658  79.523 111.967  0.00  0.00     0.038 C 
ATOM      4  C   LIG d   1      -2.411  80.299 112.860  0.00  0.00     0.028 C 
ATOM      5  C   LIG d   1      -1.586  81.356 113.588  0.00  0.00    -0.047 C 
ATOM      6  C   LIG d   1      -0.788  82.174 112.547  0.00  0.00     0.091 C 
ENDROOT
BRANCH   1   7
ATOM      7  O   LIG d   1       0.452  81.956 110.445  0.00  0.00    -0.368 OA
BRANCH   7   8
ATOM      8  C   LIG d   1       1.868  82.205 110.262  0.00  0.00     0.119 C 
BRANCH   8   9
ATOM      9  C   LIG d   1       2.041  83.712 109.989  0.00  0.00     0.028 C 
ATOM     10  C   LIG d   1       0.821  84.325 109.282  0.00  0.00     0.006 C 
ENDBRANCH   8   9
BRANCH   8  11
ATOM     11  C   LIG d   1       2.399  81.503 109.009  0.00  0.00     0.028 C 
ATOM     12  C   LIG d   1       3.819  81.952 108.631  0.00  0.00     0.006 C 
ENDBRANCH   8  11
ENDBRANCH   7   8
ENDBRANCH   1   7
BRANCH   6  13
ATOM     13  N   LIG d   1       0.110  83.175 113.180  0.00  0.00    -0.311 N 
ATOM     14  C   LIG d   1      -0.016  84.489 113.003  0.00  0.00     0.210 C 
ATOM     15  C   LIG d   1       1.027  85.342 113.731  0.00  0.00     0.109 C 
ATOM     16  O   LIG d   1      -0.911  85.030 112.337  0.00  0.00    -0.276 OA
ATOM     17  H   LIG d   1       0.845  82.824 113.762  0.00  0.00     0.149 HD
ENDBRANCH   6  13
BRANCH   5  18
ATOM     18  N   LIG d   1      -2.518  82.180 114.381  0.00  0.00     0.381 N 
ATOM     19  H   LIG d   1      -2.180  83.121 114.429  0.00  0.00    -0.090 HD
ATOM     20  H   LIG d   1      -2.563  81.813 115.315  0.00  0.00    -0.090 HD
ATOM     21  H   LIG d   1      -3.424  82.166 113.966  0.00  0.00    -0.090 HD
ENDBRANCH   5  18
BRANCH   3  22
ATOM     22  C   LIG d   1      -2.055  78.215 111.736  0.00  0.00     0.382 C 
ATOM     23  O   LIG d   1      -1.496  77.539 110.839  0.00  0.00    -0.241 OA
ATOM     24  O   LIG d   1      -2.995  77.716 112.383  0.00  0.00    -0.241 OA
ENDBRANCH   3  22
TORSDOF 7
ENDMDL
MODEL 6
REMARK VINA RESULT:      -5.8      1.952      4.824
REMARK  7 active torsions:
REMARK  status: ('A' for Active; 'I' for Inactive)
REMARK    1  A    between atoms: C_2  and  C_3 
REMARK    2  A    between atoms: C_3  and  O_6 
REMARK    3  A    between atoms: C_3  and  C_4 
REMARK    4  A    between atoms: C_7  and  O_6 
REMARK    5  A    between atoms: C_9  and  C_10 
REMARK    6  A    between atoms: N_15  and  C_14 
REMARK    7  A    between atoms: N_20  and  C_19 
REMARK       I    between atoms: C_22  and  N_20 
ROOT
ATOM      1  C   LIG d   1       2.100  84.663 110.810  0.00  0.00     0.161 C 
ATOM      2  C   LIG d   1       2.802  85.862 111.020  0.00  0.00     0.016 C 
ATOM      3  C   LIG d   1       3.003  86.433 112.298  0.00  0.00     0.038 C 
ATOM      4  C   LIG d   1       2.643  85.760 113.475  0.00  0.00     0.028 C 
ATOM      5  C   LIG d   1       1.484  84.787 113.286  0.00  0.00    -0.047 C 
ATOM      6  C   LIG d   1       1.797  83.859 112.091  0.00  0.00     0.091 C 
ENDROOT
BRANCH   1   7
ATOM      7  O   LIG d   1       2.807  83.843 109.859  0.00  0.00    -0.368 OA
BRANCH   7   8
ATOM      8  C   LIG d   1       1.994  82.954 109.054  0.00  0.00     0.119 C 
BRANCH   8   9
ATOM      9  C   LIG d   1       2.931  82.245 108.057  0.00  0.00     0.028 C 
ATOM     10  C   LIG d   1       4.390  82.214 108.543  0.00  0.00     0.006 C 
ENDBRANCH   8   9
BRANCH   8  11
ATOM     11  C   LIG d   1       1.000  83.736 108.191  0.00  0.00     0.028 C 
ATOM     12  C   LIG d   1       1.360  83.712 106.697  0.00  0.00     0.006 C 
ENDBRANCH   8  11
ENDBRANCH   7   8
ENDBRANCH   1   7
BRANCH   6  13
ATOM     13  N   LIG d   1       0.677  82.931 111.785  0.00  0.00    -0.311 N 
ATOM     14  C   LIG d   1       0.598  81.693 112.268  0.00  0.00     0.210 C 
ATOM     15  C   LIG d   1      -0.630  80.897 111.812  0.00  0.00     0.109 C 
ATOM     16  O   LIG d   1       1.411  81.188 113.057  0.00  0.00    -0.276 OA
ATOM     17  H   LIG d   1      -0.043  83.270 111.177  0.00  0.00     0.149 HD
ENDBRANCH   6  13
BRANCH   5  18
ATOM     18  N   LIG d   1       1.305  84.056 114.555  0.00  0.00     0.381 N 
ATOM     19  H   LIG d   1       1.851  84.487 115.274  0.00  0.00    -0.090 HD
ATOM     20  H   LIG d   1       1.630  83.113 114.435  0.00  0.00    -0.090 HD
ATOM     21  H   LIG d   1       0.343  84.053 114.814  0.00  0.00    -0.090 HD
ENDBRANCH   5  18
BRANCH   3  22
ATOM     22  C   LIG d   1       3.534  87.709 112.404  0.00  0.00     0.382 C 
ATOM     23  O   LIG d   1       4.774  87.881 112.326  0.00  0.00    -0.241 OA
ATOM     24  O   LIG d   1       2.792  88.686 112.622  0.00  0.00    -0.241 OA
ENDBRANCH   3  22
TORSDOF 7
ENDMDL
MODEL 7
REMARK VINA RESULT:      -5.6      2.873      5.079
REMARK  7 active torsions:
REMARK  status: ('A' for Active; 'I' for Inactive)
REMARK    1  A    between atoms: C_2  and  C_3 
REMARK    2  A    between atoms: C_3  and  O_6 
REMARK    3  A    between atoms: C_3  and  C_4 
REMARK    4  A    between atoms: C_7  and  O_6 
REMARK    5  A    between atoms: C_9  and  C_10 
REMARK    6  A    between atoms: N_15  and  C_14 
REMARK    7  A    between atoms: N_20  and  C_19 
REMARK       I    between atoms: C_22  and  N_20 
ROOT
ATOM      1  C   LIG d   1       1.125  82.793 110.128  0.00  0.00     0.161 C 
ATOM      2  C   LIG d   1       1.344  83.188 108.798  0.00  0.00     0.016 C 
ATOM      3  C   LIG d   1       0.907  84.425 108.271  0.00  0.00     0.038 C 
ATOM      4  C   LIG d   1       0.350  85.422 109.085  0.00  0.00     0.028 C 
ATOM      5  C   LIG d   1      -0.348  84.872 110.325  0.00  0.00    -0.047 C 
ATOM      6  C   LIG d   1       0.617  83.914 111.060  0.00  0.00     0.091 C 
ENDROOT
BRANCH   1   7
ATOM      7  O   LIG d   1       2.323  82.200 110.666  0.00  0.00    -0.368 OA
BRANCH   7   8
ATOM      8  C   LIG d   1       2.336  80.753 110.749  0.00  0.00     0.119 C 
BRANCH   8   9
ATOM      9  C   LIG d   1       3.141  80.227 109.545  0.00  0.00     0.028 C 
ATOM     10  C   LIG d   1       4.303  81.160 109.164  0.00  0.00     0.006 C 
ENDBRANCH   8   9
BRANCH   8  11
ATOM     11  C   LIG d   1       0.929  80.173 110.581  0.00  0.00     0.028 C 
ATOM     12  C   LIG d   1       0.844  79.135 109.451  0.00  0.00     0.006 C 
ENDBRANCH   8  11
ENDBRANCH   7   8
ENDBRANCH   1   7
BRANCH   6  13
ATOM     13  N   LIG d   1      -0.016  83.267 112.238  0.00  0.00    -0.311 N 
ATOM     14  C   LIG d   1       0.606  83.097 113.404  0.00  0.00     0.210 C 
ATOM     15  C   LIG d   1      -0.221  82.389 114.481  0.00  0.00     0.109 C 
ATOM     16  O   LIG d   1       1.753  83.495 113.658  0.00  0.00    -0.276 OA
ATOM     17  H   LIG d   1      -0.957  82.942 112.130  0.00  0.00     0.149 HD
ENDBRANCH   6  13
BRANCH   5  18
ATOM     18  N   LIG d   1      -0.761  86.023 111.151  0.00  0.00     0.381 N 
ATOM     19  H   LIG d   1      -1.354  85.711 111.893  0.00  0.00    -0.090 HD
ATOM     20  H   LIG d   1      -1.282  86.663 110.578  0.00  0.00    -0.090 HD
ATOM     21  H   LIG d   1       0.042  86.479 111.526  0.00  0.00    -0.090 HD
ENDBRANCH   5  18
BRANCH   3  22
ATOM     22  C   LIG d   1       0.990  84.658 106.907  0.00  0.00     0.382 C 
ATOM     23  O   LIG d   1       0.533  85.722 106.424  0.00  0.00    -0.241 OA
ATOM     24  O   LIG d   1       1.477  83.799 106.147  0.00  0.00    -0.241 OA
ENDBRANCH   3  22
TORSDOF 7
ENDMDL
MODEL 8
REMARK VINA RESULT:      -5.4      2.593      3.611
REMARK  7 active torsions:
REMARK  status: ('A' for Active; 'I' for Inactive)
REMARK    1  A    between atoms: C_2  and  C_3 
REMARK    2  A    between atoms: C_3  and  O_6 
REMARK    3  A    between atoms: C_3  and  C_4 
REMARK    4  A    between atoms: C_7  and  O_6 
REMARK    5  A    between atoms: C_9  and  C_10 
REMARK    6  A    between atoms: N_15  and  C_14 
REMARK    7  A    between atoms: N_20  and  C_19 
REMARK       I    between atoms: C_22  and  N_20 
ROOT
ATOM      1  C   LIG d   1       0.540  81.333 111.709  0.00  0.00     0.161 C 
ATOM      2  C   LIG d   1      -0.611  80.663 112.155  0.00  0.00     0.016 C 
ATOM      3  C   LIG d   1      -1.629  81.284 112.913  0.00  0.00     0.038 C 
ATOM      4  C   LIG d   1      -1.638  82.667 113.150  0.00  0.00     0.028 C 
ATOM      5  C   LIG d   1      -0.246  83.290 113.153  0.00  0.00    -0.047 C 
ATOM      6  C   LIG d   1       0.494  82.868 111.863  0.00  0.00     0.091 C 
ENDROOT
BRANCH   1   7
ATOM      7  O   LIG d   1       0.815  80.975 110.341  0.00  0.00    -0.368 OA
BRANCH   7   8
ATOM      8  C   LIG d   1       1.371  79.654 110.127  0.00  0.00     0.119 C 
BRANCH   8   9
ATOM      9  C   LIG d   1       2.848  79.833 109.724  0.00  0.00     0.028 C 
ATOM     10  C   LIG d   1       3.068  81.069 108.836  0.00  0.00     0.006 C 
ENDBRANCH   8   9
BRANCH   8  11
ATOM     11  C   LIG d   1       0.707  78.956 108.937  0.00  0.00     0.028 C 
ATOM     12  C   LIG d   1      -0.746  79.406 108.716  0.00  0.00     0.006 C 
ENDBRANCH   8  11
ENDBRANCH   7   8
ENDBRANCH   1   7
BRANCH   6  13
ATOM     13  N   LIG d   1       1.894  83.366 111.825  0.00  0.00    -0.311 N 
ATOM     14  C   LIG d   1       2.384  84.101 110.828  0.00  0.00     0.210 C 
ATOM     15  C   LIG d   1       3.858  84.492 110.977  0.00  0.00     0.109 C 
ATOM     16  O   LIG d   1       1.729  84.493 109.850  0.00  0.00    -0.276 OA
ATOM     17  H   LIG d   1       2.487  83.121 112.594  0.00  0.00     0.149 HD
ENDBRANCH   6  13
BRANCH   5  18
ATOM     18  N   LIG d   1      -0.412  84.751 113.273  0.00  0.00     0.381 N 
ATOM     19  H   LIG d   1      -1.264  84.957 113.756  0.00  0.00    -0.090 HD
ATOM     20  H   LIG d   1      -0.468  85.148 112.352  0.00  0.00    -0.090 HD
ATOM     21  H   LIG d   1       0.361  85.142 113.765  0.00  0.00    -0.090 HD
ENDBRANCH   5  18
BRANCH   3  22
ATOM     22  C   LIG d   1      -2.634  80.513 113.478  0.00  0.00     0.382 C 
ATOM     23  O   LIG d   1      -3.010  79.460 112.909  0.00  0.00    -0.241 OA
ATOM     24  O   LIG d   1      -3.199  80.880 114.525  0.00  0.00    -0.241 OA
ENDBRANCH   3  22
TORSDOF 7
ENDMDL
MODEL 9
REMARK VINA RESULT:      -5.0      2.717      4.728
REMARK  7 active torsions:
REMARK  status: ('A' for Active; 'I' for Inactive)
REMARK    1  A    between atoms: C_2  and  C_3 
REMARK    2  A    between atoms: C_3  and  O_6 
REMARK    3  A    between atoms: C_3  and  C_4 
REMARK    4  A    between atoms: C_7  and  O_6 
REMARK    5  A    between atoms: C_9  and  C_10 
REMARK    6  A    between atoms: N_15  and  C_14 
REMARK    7  A    between atoms: N_20  and  C_19 
REMARK       I    between atoms: C_22  and  N_20 
ROOT
ATOM      1  C   LIG d   1       0.627  82.548 112.392  0.00  0.00     0.161 C 
ATOM      2  C   LIG d   1       0.141  81.427 113.085  0.00  0.00     0.016 C 
ATOM      3  C   LIG d   1      -0.282  80.239 112.445  0.00  0.00     0.038 C 
ATOM      4  C   LIG d   1      -0.104  80.035 111.068  0.00  0.00     0.028 C 
ATOM      5  C   LIG d   1      -0.084  81.329 110.262  0.00  0.00    -0.047 C 
ATOM      6  C   LIG d   1       0.933  82.302 110.899  0.00  0.00     0.091 C 
ENDROOT
BRANCH   1   7
ATOM      7  O   LIG d   1       1.791  83.070 113.062  0.00  0.00    -0.368 OA
BRANCH   7   8
ATOM      8  C   LIG d   1       1.626  84.347 113.726  0.00  0.00     0.119 C 
BRANCH   8   9
ATOM      9  C   LIG d   1       0.117  84.661 113.756  0.00  0.00     0.028 C 
ATOM     10  C   LIG d   1      -0.183  86.132 113.425  0.00  0.00     0.006 C 
ENDBRANCH   8   9
BRANCH   8  11
ATOM     11  C   LIG d   1       2.259  85.482 112.915  0.00  0.00     0.028 C 
ATOM     12  C   LIG d   1       3.600  85.083 112.279  0.00  0.00     0.006 C 
ENDBRANCH   8  11
ENDBRANCH   7   8
ENDBRANCH   1   7
BRANCH   6  13
ATOM     13  N   LIG d   1       0.953  83.625 110.221  0.00  0.00    -0.311 N 
ATOM     14  C   LIG d   1      -0.113  84.417 110.127  0.00  0.00     0.210 C 
ATOM     15  C   LIG d   1       0.120  85.728 109.370  0.00  0.00     0.109 C 
ATOM     16  O   LIG d   1      -1.222  84.173 110.627  0.00  0.00    -0.276 OA
ATOM     17  H   LIG d   1       1.821  83.915 109.814  0.00  0.00     0.149 HD
ENDBRANCH   6  13
BRANCH   5  18
ATOM     18  N   LIG d   1       0.246  80.979 108.867  0.00  0.00     0.381 N 
ATOM     19  H   LIG d   1      -0.464  80.383 108.490  0.00  0.00    -0.090 HD
ATOM     20  H   LIG d   1       1.117  80.480 108.854  0.00  0.00    -0.090 HD
ATOM     21  H   LIG d   1       0.320  81.807 108.317  0.00  0.00    -0.090 HD
ENDBRANCH   5  18
BRANCH   3  22
ATOM     22  C   LIG d   1      -0.927  79.255 113.179  0.00  0.00     0.382 C 
ATOM     23  O   LIG d   1      -0.988  79.344 114.429  0.00  0.00    -0.241 OA
ATOM     24  O   LIG d   1      -1.411  78.258 112.610  0.00  0.00    -0.241 OA
ENDBRANCH   3  22
TORSDOF 7
ENDMDL
