MODEL 1
REMARK VINA RESULT:      -6.4      0.000      0.000
REMARK  7 active torsions:
REMARK  status: ('A' for Active; 'I' for Inactive)
REMARK    1  A    between atoms: C_2  and  C_3 
REMARK    2  A    between atoms: C_3  and  O_6 
REMARK    3  A    between atoms: C_3  and  C_4 
REMARK    4  A    between atoms: C_7  and  O_6 
REMARK    5  A    between atoms: C_9  and  C_10 
REMARK    6  A    between atoms: N_15  and  C_14 
REMARK    7  A    between atoms: N_20  and  C_19 
REMARK       I    between atoms: C_22  and  N_20 
ROOT
ATOM      1  C   LIG d   1       1.860  82.935 111.688  0.00  0.00     0.161 C 
ATOM      2  C   LIG d   1       2.768  82.978 110.617  0.00  0.00     0.016 C 
ATOM      3  C   LIG d   1       2.704  82.103 109.508  0.00  0.00     0.038 C 
ATOM      4  C   LIG d   1       1.630  81.220 109.321  0.00  0.00     0.028 C 
ATOM      5  C   LIG d   1       0.964  80.792 110.624  0.00  0.00    -0.047 C 
ATOM      6  C   LIG d   1       0.617  82.053 111.448  0.00  0.00     0.091 C 
ENDROOT
BRANCH   1   7
ATOM      7  O   LIG d   1       1.463  84.274 112.045  0.00  0.00    -0.368 OA
BRANCH   7   8
ATOM      8  C   LIG d   1       1.773  85.309 111.081  0.00  0.00     0.119 C 
BRANCH   8   9
ATOM      9  C   LIG d   1       2.358  86.505 111.857  0.00  0.00     0.028 C 
ATOM     10  C   LIG d   1       3.885  86.610 111.707  0.00  0.00     0.006 C 
ENDBRANCH   8   9
BRANCH   8  11
ATOM     11  C   LIG d   1       0.504  85.844 110.410  0.00  0.00     0.028 C 
ATOM     12  C   LIG d   1       0.501  85.634 108.887  0.00  0.00     0.006 C 
ENDBRANCH   8  11
ENDBRANCH   7   8
ENDBRANCH   1   7
BRANCH   6  13
ATOM     13  N   LIG d   1       0.038  81.721 112.776  0.00  0.00    -0.311 N 
ATOM     14  C   LIG d   1      -1.226  81.975 113.109  0.00  0.00     0.210 C 
ATOM     15  C   LIG d   1      -1.614  81.570 114.534  0.00  0.00     0.109 C 
ATOM     16  O   LIG d   1      -2.073  82.468 112.348  0.00  0.00    -0.276 OA
ATOM     17  H   LIG d   1       0.647  81.290 113.444  0.00  0.00     0.149 HD
ENDBRANCH   6  13
BRANCH   5  18
ATOM     18  N   LIG d   1      -0.221  79.986 110.275  0.00  0.00     0.381 N 
ATOM     19  H   LIG d   1      -0.750  79.786 111.100  0.00  0.00    -0.090 HD
ATOM     20  H   LIG d   1       0.084  79.114 109.878  0.00  0.00    -0.090 HD
ATOM     21  H   LIG d   1      -0.787  80.478 109.619  0.00  0.00    -0.090 HD
ENDBRANCH   5  18
BRANCH   3  22
ATOM     22  C   LIG d   1       3.744  82.079 108.591  0.00  0.00     0.382 C 
ATOM     23  O   LIG d   1       4.560  83.031 108.544  0.00  0.00    -0.241 OA
ATOM     24  O   LIG d   1       3.849  81.140 107.780  0.00  0.00    -0.241 OA
ENDBRANCH   3  22
TORSDOF 7
ENDMDL
MODEL 2
REMARK VINA RESULT:      -6.1      2.756      5.497
REMARK  7 active torsions:
REMARK  status: ('A' for Active; 'I' for Inactive)
REMARK    1  A    between atoms: C_2  and  C_3 
REMARK    2  A    between atoms: C_3  and  O_6 
REMARK    3  A    between atoms: C_3  and  C_4 
REMARK    4  A    between atoms: C_7  and  O_6 
REMARK    5  A    between atoms: C_9  and  C_10 
REMARK    6  A    between atoms: N_15  and  C_14 
REMARK    7  A    between atoms: N_20  and  C_19 
REMARK       I    between atoms: C_22  and  N_20 
ROOT
ATOM      1  C   LIG d   1       1.907  84.133 112.124  0.00  0.00     0.161 C 
ATOM      2  C   LIG d   1       0.877  83.180 112.200  0.00  0.00     0.016 C 
ATOM      3  C   LIG d   1      -0.283  83.350 112.990  0.00  0.00     0.038 C 
ATOM      4  C   LIG d   1      -0.564  84.558 113.645  0.00  0.00     0.028 C 
ATOM      5  C   LIG d   1       0.685  85.357 114.004  0.00  0.00    -0.047 C 
ATOM      6  C   LIG d   1       1.567  85.504 112.743  0.00  0.00     0.091 C 
ENDROOT
BRANCH   1   7
ATOM      7  O   LIG d   1       2.326  84.292 110.754  0.00  0.00    -0.368 OA
BRANCH   7   8
ATOM      8  C   LIG d   1       1.326  84.006 109.745  0.00  0.00     0.119 C 
BRANCH   8   9
ATOM      9  C   LIG d   1       2.028  83.253 108.598  0.00  0.00     0.028 C 
ATOM     10  C   LIG d   1       3.467  82.846 108.957  0.00  0.00     0.006 C 
ENDBRANCH   8   9
BRANCH   8  11
ATOM     11  C   LIG d   1       0.787  85.294 109.114  0.00  0.00     0.028 C 
ATOM     12  C   LIG d   1      -0.480  85.813 109.811  0.00  0.00     0.006 C 
ENDBRANCH   8  11
ENDBRANCH   7   8
ENDBRANCH   1   7
BRANCH   6  13
ATOM     13  N   LIG d   1       2.849  86.201 113.026  0.00  0.00    -0.311 N 
ATOM     14  C   LIG d   1       3.039  87.502 112.814  0.00  0.00     0.210 C 
ATOM     15  C   LIG d   1       4.441  88.015 113.155  0.00  0.00     0.109 C 
ATOM     16  O   LIG d   1       2.169  88.286 112.406  0.00  0.00    -0.276 OA
ATOM     17  H   LIG d   1       3.599  85.646 113.389  0.00  0.00     0.149 HD
ENDBRANCH   6  13
BRANCH   5  18
ATOM     18  N   LIG d   1       0.242  86.652 114.555  0.00  0.00     0.381 N 
ATOM     19  H   LIG d   1      -0.756  86.668 114.621  0.00  0.00    -0.090 HD
ATOM     20  H   LIG d   1       0.529  87.385 113.931  0.00  0.00    -0.090 HD
ATOM     21  H   LIG d   1       0.644  86.795 115.455  0.00  0.00    -0.090 HD
ENDBRANCH   5  18
BRANCH   3  22
ATOM     22  C   LIG d   1      -1.157  82.288 113.164  0.00  0.00     0.382 C 
ATOM     23  O   LIG d   1      -0.753  81.222 113.688  0.00  0.00    -0.241 OA
ATOM     24  O   LIG d   1      -2.334  82.366 112.762  0.00  0.00    -0.241 OA
ENDBRANCH   3  22
TORSDOF 7
ENDMDL
MODEL 3
REMARK VINA RESULT:      -5.9      1.490      4.989
REMARK  7 active torsions:
REMARK  status: ('A' for Active; 'I' for Inactive)
REMARK    1  A    between atoms: C_2  and  C_3 
REMARK    2  A    between atoms: C_3  and  O_6 
REMARK    3  A    between atoms: C_3  and  C_4 
REMARK    4  A    between atoms: C_7  and  O_6 
REMARK    5  A    between atoms: C_9  and  C_10 
REMARK    6  A    between atoms: N_15  and  C_14 
REMARK    7  A    between atoms: N_20  and  C_19 
REMARK       I    between atoms: C_22  and  N_20 
ROOT
ATOM      1  C   LIG d   1       0.128  83.303 111.417  0.00  0.00     0.161 C 
ATOM      2  C   LIG d   1      -0.906  83.007 112.321  0.00  0.00     0.016 C 
ATOM      3  C   LIG d   1      -1.382  81.697 112.557  0.00  0.00     0.038 C 
ATOM      4  C   LIG d   1      -0.750  80.569 112.013  0.00  0.00     0.028 C 
ATOM      5  C   LIG d   1      -0.025  80.855 110.702  0.00  0.00    -0.047 C 
ATOM      6  C   LIG d   1       0.904  82.075 110.897  0.00  0.00     0.091 C 
ENDROOT
BRANCH   1   7
ATOM      7  O   LIG d   1       1.035  84.256 112.007  0.00  0.00    -0.368 OA
BRANCH   7   8
ATOM      8  C   LIG d   1       1.059  85.572 111.401  0.00  0.00     0.119 C 
BRANCH   8   9
ATOM      9  C   LIG d   1      -0.030  85.600 110.311  0.00  0.00     0.028 C 
ATOM     10  C   LIG d   1       0.557  85.755 108.898  0.00  0.00     0.006 C 
ENDBRANCH   8   9
BRANCH   8  11
ATOM     11  C   LIG d   1       2.378  85.821 110.662  0.00  0.00     0.028 C 
ATOM     12  C   LIG d   1       3.566  85.086 111.301  0.00  0.00     0.006 C 
ENDBRANCH   8  11
ENDBRANCH   7   8
ENDBRANCH   1   7
BRANCH   6  13
ATOM     13  N   LIG d   1       1.587  82.474 109.640  0.00  0.00    -0.311 N 
ATOM     14  C   LIG d   1       2.803  82.050 109.300  0.00  0.00     0.210 C 
ATOM     15  C   LIG d   1       3.332  82.598 107.971  0.00  0.00     0.109 C 
ATOM     16  O   LIG d   1       3.482  81.246 109.958  0.00  0.00    -0.276 OA
ATOM     17  H   LIG d   1       1.096  83.100 109.032  0.00  0.00     0.149 HD
ENDBRANCH   6  13
BRANCH   5  18
ATOM     18  N   LIG d   1       0.702  79.630 110.318  0.00  0.00     0.381 N 
ATOM     19  H   LIG d   1       1.176  79.775 109.449  0.00  0.00    -0.090 HD
ATOM     20  H   LIG d   1       0.040  78.884 110.195  0.00  0.00    -0.090 HD
ATOM     21  H   LIG d   1       1.359  79.387 111.027  0.00  0.00    -0.090 HD
ENDBRANCH   5  18
BRANCH   3  22
ATOM     22  C   LIG d   1      -2.528  81.508 113.315  0.00  0.00     0.382 C 
ATOM     23  O   LIG d   1      -3.166  80.431 113.230  0.00  0.00    -0.241 OA
ATOM     24  O   LIG d   1      -2.957  82.418 114.049  0.00  0.00    -0.241 OA
ENDBRANCH   3  22
TORSDOF 7
ENDMDL
MODEL 4
REMARK VINA RESULT:      -5.8      2.407      5.764
REMARK  7 active torsions:
REMARK  status: ('A' for Active; 'I' for Inactive)
REMARK    1  A    between atoms: C_2  and  C_3 
REMARK    2  A    between atoms: C_3  and  O_6 
REMARK    3  A    between atoms: C_3  and  C_4 
REMARK    4  A    between atoms: C_7  and  O_6 
REMARK    5  A    between atoms: C_9  and  C_10 
REMARK    6  A    between atoms: N_15  and  C_14 
REMARK    7  A    between atoms: N_20  and  C_19 
REMARK       I    between atoms: C_22  and  N_20 
ROOT
ATOM      1  C   LIG d   1       0.879  82.834 111.658  0.00  0.00     0.161 C 
ATOM      2  C   LIG d   1      -0.235  82.091 112.084  0.00  0.00     0.016 C 
ATOM      3  C   LIG d   1      -1.212  82.595 112.974  0.00  0.00     0.038 C 
ATOM      4  C   LIG d   1      -1.222  83.937 113.381  0.00  0.00     0.028 C 
ATOM      5  C   LIG d   1       0.160  84.582 113.378  0.00  0.00    -0.047 C 
ATOM      6  C   LIG d   1       0.825  84.337 112.004  0.00  0.00     0.091 C 
ENDROOT
BRANCH   1   7
ATOM      7  O   LIG d   1       1.073  82.653 110.241  0.00  0.00    -0.368 OA
BRANCH   7   8
ATOM      8  C   LIG d   1       1.997  81.606 109.853  0.00  0.00     0.119 C 
BRANCH   8   9
ATOM      9  C   LIG d   1       2.961  82.203 108.810  0.00  0.00     0.028 C 
ATOM     10  C   LIG d   1       4.302  82.633 109.429  0.00  0.00     0.006 C 
ENDBRANCH   8   9
BRANCH   8  11
ATOM     11  C   LIG d   1       1.274  80.465 109.131  0.00  0.00     0.028 C 
ATOM     12  C   LIG d   1       2.119  79.184 109.047  0.00  0.00     0.006 C 
ENDBRANCH   8  11
ENDBRANCH   7   8
ENDBRANCH   1   7
BRANCH   6  13
ATOM     13  N   LIG d   1       2.213  84.863 111.944  0.00  0.00    -0.311 N 
ATOM     14  C   LIG d   1       2.523  86.061 111.454  0.00  0.00     0.210 C 
ATOM     15  C   LIG d   1       4.017  86.399 111.468  0.00  0.00     0.109 C 
ATOM     16  O   LIG d   1       1.699  86.890 111.038  0.00  0.00    -0.276 OA
ATOM     17  H   LIG d   1       2.941  84.268 112.290  0.00  0.00     0.149 HD
ENDBRANCH   6  13
BRANCH   5  18
ATOM     18  N   LIG d   1      -0.015  86.013 113.689  0.00  0.00     0.381 N 
ATOM     19  H   LIG d   1      -0.570  86.448 112.979  0.00  0.00    -0.090 HD
ATOM     20  H   LIG d   1       0.887  86.456 113.701  0.00  0.00    -0.090 HD
ATOM     21  H   LIG d   1      -0.457  86.118 114.576  0.00  0.00    -0.090 HD
ENDBRANCH   5  18
BRANCH   3  22
ATOM     22  C   LIG d   1      -2.170  81.740 113.497  0.00  0.00     0.382 C 
ATOM     23  O   LIG d   1      -3.328  81.727 113.014  0.00  0.00    -0.241 OA
ATOM     24  O   LIG d   1      -1.904  81.015 114.474  0.00  0.00    -0.241 OA
ENDBRANCH   3  22
TORSDOF 7
ENDMDL
MODEL 5
REMARK VINA RESULT:      -5.7      2.557      5.749
REMARK  7 active torsions:
REMARK  status: ('A' for Active; 'I' for Inactive)
REMARK    1  A    between atoms: C_2  and  C_3 
REMARK    2  A    between atoms: C_3  and  O_6 
REMARK    3  A    between atoms: C_3  and  C_4 
REMARK    4  A    between atoms: C_7  and  O_6 
REMARK    5  A    between atoms: C_9  and  C_10 
REMARK    6  A    between atoms: N_15  and  C_14 
REMARK    7  A    between atoms: N_20  and  C_19 
REMARK       I    between atoms: C_22  and  N_20 
ROOT
ATOM      1  C   LIG d   1       0.060  82.617 111.522  0.00  0.00     0.161 C 
ATOM      2  C   LIG d   1      -0.358  83.899 111.915  0.00  0.00     0.016 C 
ATOM      3  C   LIG d   1      -0.135  85.062 111.142  0.00  0.00     0.038 C 
ATOM      4  C   LIG d   1       0.392  84.999 109.844  0.00  0.00     0.028 C 
ATOM      5  C   LIG d   1       1.290  83.788 109.612  0.00  0.00    -0.047 C 
ATOM      6  C   LIG d   1       0.538  82.513 110.058  0.00  0.00     0.091 C 
ENDROOT
BRANCH   1   7
ATOM      7  O   LIG d   1      -0.988  81.661 111.775  0.00  0.00    -0.368 OA
BRANCH   7   8
ATOM      8  C   LIG d   1      -0.728  80.692 112.820  0.00  0.00     0.119 C 
BRANCH   8   9
ATOM      9  C   LIG d   1      -1.587  79.448 112.521  0.00  0.00     0.028 C 
ATOM     10  C   LIG d   1      -1.630  78.467 113.705  0.00  0.00     0.006 C 
ENDBRANCH   8   9
BRANCH   8  11
ATOM     11  C   LIG d   1      -1.209  81.199 114.183  0.00  0.00     0.028 C 
ATOM     12  C   LIG d   1      -2.563  81.923 114.105  0.00  0.00     0.006 C 
ENDBRANCH   8  11
ENDBRANCH   7   8
ENDBRANCH   1   7
BRANCH   6  13
ATOM     13  N   LIG d   1       1.376  81.292 109.944  0.00  0.00    -0.311 N 
ATOM     14  C   LIG d   1       1.036  80.235 109.208  0.00  0.00     0.210 C 
ATOM     15  C   LIG d   1       2.034  79.073 109.245  0.00  0.00     0.109 C 
ATOM     16  O   LIG d   1       0.019  80.162 108.503  0.00  0.00    -0.276 OA
ATOM     17  H   LIG d   1       2.235  81.278 110.459  0.00  0.00     0.149 HD
ENDBRANCH   6  13
BRANCH   5  18
ATOM     18  N   LIG d   1       1.658  83.773 108.184  0.00  0.00     0.381 N 
ATOM     19  H   LIG d   1       2.589  84.121 108.070  0.00  0.00    -0.090 HD
ATOM     20  H   LIG d   1       1.032  84.376 107.680  0.00  0.00    -0.090 HD
ATOM     21  H   LIG d   1       1.597  82.845 107.826  0.00  0.00    -0.090 HD
ENDBRANCH   5  18
BRANCH   3  22
ATOM     22  C   LIG d   1      -0.404  86.309 111.684  0.00  0.00     0.382 C 
ATOM     23  O   LIG d   1      -1.592  86.673 111.860  0.00  0.00    -0.241 OA
ATOM     24  O   LIG d   1       0.525  87.093 111.958  0.00  0.00    -0.241 OA
ENDBRANCH   3  22
TORSDOF 7
ENDMDL
MODEL 6
REMARK VINA RESULT:      -4.8      1.987      2.500
REMARK  7 active torsions:
REMARK  status: ('A' for Active; 'I' for Inactive)
REMARK    1  A    between atoms: C_2  and  C_3 
REMARK    2  A    between atoms: C_3  and  O_6 
REMARK    3  A    between atoms: C_3  and  C_4 
REMARK    4  A    between atoms: C_7  and  O_6 
REMARK    5  A    between atoms: C_9  and  C_10 
REMARK    6  A    between atoms: N_15  and  C_14 
REMARK    7  A    between atoms: N_20  and  C_19 
REMARK       I    between atoms: C_22  and  N_20 
ROOT
ATOM      1  C   LIG d   1       0.673  82.568 111.753  0.00  0.00     0.161 C 
ATOM      2  C   LIG d   1       1.981  83.030 111.529  0.00  0.00     0.016 C 
ATOM      3  C   LIG d   1       2.928  82.334 110.742  0.00  0.00     0.038 C 
ATOM      4  C   LIG d   1       2.581  81.196 109.999  0.00  0.00     0.028 C 
ATOM      5  C   LIG d   1       1.415  80.414 110.595  0.00  0.00    -0.047 C 
ATOM      6  C   LIG d   1       0.242  81.386 110.860  0.00  0.00     0.091 C 
ENDROOT
BRANCH   1   7
ATOM      7  O   LIG d   1      -0.259  83.659 111.624  0.00  0.00    -0.368 OA
BRANCH   7   8
ATOM      8  C   LIG d   1      -0.003  84.819 112.455  0.00  0.00     0.119 C 
BRANCH   8   9
ATOM      9  C   LIG d   1      -0.627  84.545 113.837  0.00  0.00     0.028 C 
ATOM     10  C   LIG d   1      -1.078  85.835 114.543  0.00  0.00     0.006 C 
ENDBRANCH   8   9
BRANCH   8  11
ATOM     11  C   LIG d   1      -0.727  86.058 111.921  0.00  0.00     0.028 C 
ATOM     12  C   LIG d   1      -1.009  85.979 110.412  0.00  0.00     0.006 C 
ENDBRANCH   8  11
ENDBRANCH   7   8
ENDBRANCH   1   7
BRANCH   6  13
ATOM     13  N   LIG d   1      -0.909  80.718 111.521  0.00  0.00    -0.311 N 
ATOM     14  C   LIG d   1      -0.931  80.408 112.816  0.00  0.00     0.210 C 
ATOM     15  C   LIG d   1      -2.206  79.705 113.291  0.00  0.00     0.109 C 
ATOM     16  O   LIG d   1      -0.028  80.676 113.623  0.00  0.00    -0.276 OA
ATOM     17  H   LIG d   1      -1.697  80.492 110.947  0.00  0.00     0.149 HD
ENDBRANCH   6  13
BRANCH   5  18
ATOM     18  N   LIG d   1       1.071  79.336 109.649  0.00  0.00     0.381 N 
ATOM     19  H   LIG d   1       1.302  79.617 108.717  0.00  0.00    -0.090 HD
ATOM     20  H   LIG d   1       0.081  79.170 109.693  0.00  0.00    -0.090 HD
ATOM     21  H   LIG d   1       1.566  78.504 109.886  0.00  0.00    -0.090 HD
ENDBRANCH   5  18
BRANCH   3  22
ATOM     22  C   LIG d   1       4.249  82.753 110.727  0.00  0.00     0.382 C 
ATOM     23  O   LIG d   1       4.891  82.764 109.649  0.00  0.00    -0.241 OA
ATOM     24  O   LIG d   1       4.821  83.079 111.784  0.00  0.00    -0.241 OA
ENDBRANCH   3  22
TORSDOF 7
ENDMDL
MODEL 7
REMARK VINA RESULT:      -4.6      2.343      5.764
REMARK  7 active torsions:
REMARK  status: ('A' for Active; 'I' for Inactive)
REMARK    1  A    between atoms: C_2  and  C_3 
REMARK    2  A    between atoms: C_3  and  O_6 
REMARK    3  A    between atoms: C_3  and  C_4 
REMARK    4  A    between atoms: C_7  and  O_6 
REMARK    5  A    between atoms: C_9  and  C_10 
REMARK    6  A    between atoms: N_15  and  C_14 
REMARK    7  A    between atoms: N_20  and  C_19 
REMARK       I    between atoms: C_22  and  N_20 
ROOT
ATOM      1  C   LIG d   1       1.016  82.545 112.158  0.00  0.00     0.161 C 
ATOM      2  C   LIG d   1       0.285  83.647 112.631  0.00  0.00     0.016 C 
ATOM      3  C   LIG d   1      -0.177  84.690 111.796  0.00  0.00     0.038 C 
ATOM      4  C   LIG d   1      -0.071  84.624 110.399  0.00  0.00     0.028 C 
ATOM      5  C   LIG d   1       1.103  83.776 109.920  0.00  0.00    -0.047 C 
ATOM      6  C   LIG d   1       1.046  82.400 110.622  0.00  0.00     0.091 C 
ENDROOT
BRANCH   1   7
ATOM      7  O   LIG d   1       0.522  81.334 112.765  0.00  0.00    -0.368 OA
BRANCH   7   8
ATOM      8  C   LIG d   1      -0.897  81.081 112.619  0.00  0.00     0.119 C 
BRANCH   8   9
ATOM      9  C   LIG d   1      -1.467  80.816 114.026  0.00  0.00     0.028 C 
ATOM     10  C   LIG d   1      -2.589  81.798 114.399  0.00  0.00     0.006 C 
ENDBRANCH   8   9
BRANCH   8  11
ATOM     11  C   LIG d   1      -1.154  79.795 111.829  0.00  0.00     0.028 C 
ATOM     12  C   LIG d   1      -2.116  78.835 112.548  0.00  0.00     0.006 C 
ENDBRANCH   8  11
ENDBRANCH   7   8
ENDBRANCH   1   7
BRANCH   6  13
ATOM     13  N   LIG d   1       2.205  81.538 110.274  0.00  0.00    -0.311 N 
ATOM     14  C   LIG d   1       3.471  81.943 110.359  0.00  0.00     0.210 C 
ATOM     15  C   LIG d   1       4.513  80.903 109.933  0.00  0.00     0.109 C 
ATOM     16  O   LIG d   1       3.832  83.053 110.777  0.00  0.00    -0.276 OA
ATOM     17  H   LIG d   1       2.005  80.610 109.955  0.00  0.00     0.149 HD
ENDBRANCH   6  13
BRANCH   5  18
ATOM     18  N   LIG d   1       1.014  83.680 108.451  0.00  0.00     0.381 N 
ATOM     19  H   LIG d   1       1.933  83.623 108.059  0.00  0.00    -0.090 HD
ATOM     20  H   LIG d   1       0.572  84.511 108.097  0.00  0.00    -0.090 HD
ATOM     21  H   LIG d   1       0.484  82.877 108.193  0.00  0.00    -0.090 HD
ENDBRANCH   5  18
BRANCH   3  22
ATOM     22  C   LIG d   1      -0.720  85.834 112.362  0.00  0.00     0.382 C 
ATOM     23  O   LIG d   1      -0.732  86.909 111.714  0.00  0.00    -0.241 OA
ATOM     24  O   LIG d   1      -1.157  85.816 113.528  0.00  0.00    -0.241 OA
ENDBRANCH   3  22
TORSDOF 7
ENDMDL
MODEL 8
REMARK VINA RESULT:      -4.2      2.524      5.494
REMARK  7 active torsions:
REMARK  status: ('A' for Active; 'I' for Inactive)
REMARK    1  A    between atoms: C_2  and  C_3 
REMARK    2  A    between atoms: C_3  and  O_6 
REMARK    3  A    between atoms: C_3  and  C_4 
REMARK    4  A    between atoms: C_7  and  O_6 
REMARK    5  A    between atoms: C_9  and  C_10 
REMARK    6  A    between atoms: N_15  and  C_14 
REMARK    7  A    between atoms: N_20  and  C_19 
REMARK       I    between atoms: C_22  and  N_20 
ROOT
ATOM      1  C   LIG d   1       1.981  83.494 112.726  0.00  0.00     0.161 C 
ATOM      2  C   LIG d   1       1.652  84.664 113.430  0.00  0.00     0.016 C 
ATOM      3  C   LIG d   1       2.112  85.949 113.062  0.00  0.00     0.038 C 
ATOM      4  C   LIG d   1       2.814  86.171 111.868  0.00  0.00     0.028 C 
ATOM      5  C   LIG d   1       3.599  84.954 111.391  0.00  0.00    -0.047 C 
ATOM      6  C   LIG d   1       2.655  83.730 111.358  0.00  0.00     0.091 C 
ENDROOT
BRANCH   1   7
ATOM      7  O   LIG d   1       0.809  82.670 112.572  0.00  0.00    -0.368 OA
BRANCH   7   8
ATOM      8  C   LIG d   1      -0.457  83.371 112.495  0.00  0.00     0.119 C 
BRANCH   8   9
ATOM      9  C   LIG d   1      -1.558  82.389 112.940  0.00  0.00     0.028 C 
ATOM     10  C   LIG d   1      -1.347  81.883 114.376  0.00  0.00     0.006 C 
ENDBRANCH   8   9
BRANCH   8  11
ATOM     11  C   LIG d   1      -0.802  83.740 111.049  0.00  0.00     0.028 C 
ATOM     12  C   LIG d   1      -0.746  85.254 110.790  0.00  0.00     0.006 C 
ENDBRANCH   8  11
ENDBRANCH   7   8
ENDBRANCH   1   7
BRANCH   6  13
ATOM     13  N   LIG d   1       3.362  82.478 110.983  0.00  0.00    -0.311 N 
ATOM     14  C   LIG d   1       3.030  81.736 109.928  0.00  0.00     0.210 C 
ATOM     15  C   LIG d   1       3.876  80.474 109.733  0.00  0.00     0.109 C 
ATOM     16  O   LIG d   1       2.135  82.020 109.117  0.00  0.00    -0.276 OA
ATOM     17  H   LIG d   1       4.121  82.190 111.569  0.00  0.00     0.149 HD
ENDBRANCH   6  13
BRANCH   5  18
ATOM     18  N   LIG d   1       4.169  85.280 110.071  0.00  0.00     0.381 N 
ATOM     19  H   LIG d   1       3.623  84.851 109.350  0.00  0.00    -0.090 HD
ATOM     20  H   LIG d   1       5.103  84.912 110.020  0.00  0.00    -0.090 HD
ATOM     21  H   LIG d   1       4.186  86.268 109.941  0.00  0.00    -0.090 HD
ENDBRANCH   5  18
BRANCH   3  22
ATOM     22  C   LIG d   1       1.904  87.024 113.914  0.00  0.00     0.382 C 
ATOM     23  O   LIG d   1       0.812  87.141 114.519  0.00  0.00    -0.241 OA
ATOM     24  O   LIG d   1       2.779  87.900 114.050  0.00  0.00    -0.241 OA
ENDBRANCH   3  22
TORSDOF 7
ENDMDL
MODEL 9
REMARK VINA RESULT:      -4.2     29.094     31.105
REMARK  7 active torsions:
REMARK  status: ('A' for Active; 'I' for Inactive)
REMARK    1  A    between atoms: C_2  and  C_3 
REMARK    2  A    between atoms: C_3  and  O_6 
REMARK    3  A    between atoms: C_3  and  C_4 
REMARK    4  A    between atoms: C_7  and  O_6 
REMARK    5  A    between atoms: C_9  and  C_10 
REMARK    6  A    between atoms: N_15  and  C_14 
REMARK    7  A    between atoms: N_20  and  C_19 
REMARK       I    between atoms: C_22  and  N_20 
ROOT
ATOM      1  C   LIG d   1     -13.471  55.573 110.237  0.00  0.00     0.161 C 
ATOM      2  C   LIG d   1     -14.572  55.549 109.365  0.00  0.00     0.016 C 
ATOM      3  C   LIG d   1     -15.726  56.346 109.546  0.00  0.00     0.038 C 
ATOM      4  C   LIG d   1     -15.793  57.339 110.535  0.00  0.00     0.028 C 
ATOM      5  C   LIG d   1     -14.912  57.050 111.745  0.00  0.00    -0.047 C 
ATOM      6  C   LIG d   1     -13.480  56.731 111.258  0.00  0.00     0.091 C 
ENDROOT
BRANCH   1   7
ATOM      7  O   LIG d   1     -12.247  55.585 109.477  0.00  0.00    -0.368 OA
BRANCH   7   8
ATOM      8  C   LIG d   1     -12.299  54.954 108.174  0.00  0.00     0.119 C 
BRANCH   8   9
ATOM      9  C   LIG d   1     -11.038  54.081 108.031  0.00  0.00     0.028 C 
ATOM     10  C   LIG d   1     -10.063  54.626 106.973  0.00  0.00     0.006 C 
ENDBRANCH   8   9
BRANCH   8  11
ATOM     11  C   LIG d   1     -12.205  55.990 107.049  0.00  0.00     0.028 C 
ATOM     12  C   LIG d   1     -13.345  55.864 106.026  0.00  0.00     0.006 C 
ENDBRANCH   8  11
ENDBRANCH   7   8
ENDBRANCH   1   7
BRANCH   6  13
ATOM     13  N   LIG d   1     -12.573  56.353 112.373  0.00  0.00    -0.311 N 
ATOM     14  C   LIG d   1     -11.857  57.237 113.066  0.00  0.00     0.210 C 
ATOM     15  C   LIG d   1     -10.970  56.635 114.161  0.00  0.00     0.109 C 
ATOM     16  O   LIG d   1     -11.896  58.465 112.900  0.00  0.00    -0.276 OA
ATOM     17  H   LIG d   1     -12.504  55.380 112.596  0.00  0.00     0.149 HD
ENDBRANCH   6  13
BRANCH   5  18
ATOM     18  N   LIG d   1     -14.972  58.227 112.632  0.00  0.00     0.381 N 
ATOM     19  H   LIG d   1     -14.671  57.974 113.552  0.00  0.00    -0.090 HD
ATOM     20  H   LIG d   1     -15.923  58.544 112.687  0.00  0.00    -0.090 HD
ATOM     21  H   LIG d   1     -14.392  58.954 112.273  0.00  0.00    -0.090 HD
ENDBRANCH   5  18
BRANCH   3  22
ATOM     22  C   LIG d   1     -16.845  56.126 108.757  0.00  0.00     0.382 C 
ATOM     23  O   LIG d   1     -17.311  57.056 108.056  0.00  0.00    -0.241 OA
ATOM     24  O   LIG d   1     -17.420  55.021 108.771  0.00  0.00    -0.241 OA
ENDBRANCH   3  22
TORSDOF 7
ENDMDL
