MODEL 1
REMARK VINA RESULT:      -6.6      0.000      0.000
REMARK  7 active torsions:
REMARK  status: ('A' for Active; 'I' for Inactive)
REMARK    1  A    between atoms: C_2  and  C_3 
REMARK    2  A    between atoms: C_3  and  O_6 
REMARK    3  A    between atoms: C_3  and  C_4 
REMARK    4  A    between atoms: C_7  and  O_6 
REMARK    5  A    between atoms: C_9  and  C_10 
REMARK    6  A    between atoms: N_15  and  C_14 
REMARK    7  A    between atoms: N_20  and  C_19 
REMARK       I    between atoms: C_22  and  N_20 
ROOT
ATOM      1  C   LIG d   1       0.500  82.966 110.948  0.00  0.00     0.161 C 
ATOM      2  C   LIG d   1      -0.579  82.741 111.819  0.00  0.00     0.016 C 
ATOM      3  C   LIG d   1      -1.097  81.456 112.100  0.00  0.00     0.038 C 
ATOM      4  C   LIG d   1      -0.468  80.288 111.645  0.00  0.00     0.028 C 
ATOM      5  C   LIG d   1       0.321  80.487 110.356  0.00  0.00    -0.047 C 
ATOM      6  C   LIG d   1       1.269  81.696 110.530  0.00  0.00     0.091 C 
ENDROOT
BRANCH   1   7
ATOM      7  O   LIG d   1       1.403  83.929 111.528  0.00  0.00    -0.368 OA
BRANCH   7   8
ATOM      8  C   LIG d   1       1.424  85.238 110.906  0.00  0.00     0.119 C 
BRANCH   8   9
ATOM      9  C   LIG d   1       0.394  85.222 109.760  0.00  0.00     0.028 C 
ATOM     10  C   LIG d   1       1.026  85.560 108.399  0.00  0.00     0.006 C 
ENDBRANCH   8   9
BRANCH   8  11
ATOM     11  C   LIG d   1       2.773  85.515 110.236  0.00  0.00     0.028 C 
ATOM     12  C   LIG d   1       3.968  85.120 111.118  0.00  0.00     0.006 C 
ENDBRANCH   8  11
ENDBRANCH   7   8
ENDBRANCH   1   7
BRANCH   6  13
ATOM     13  N   LIG d   1       2.018  82.012 109.286  0.00  0.00    -0.311 N 
ATOM     14  C   LIG d   1       3.347  81.999 109.207  0.00  0.00     0.210 C 
ATOM     15  C   LIG d   1       3.917  82.376 107.836  0.00  0.00     0.109 C 
ATOM     16  O   LIG d   1       4.108  81.680 110.133  0.00  0.00    -0.276 OA
ATOM     17  H   LIG d   1       1.478  82.252 108.477  0.00  0.00     0.149 HD
ENDBRANCH   6  13
BRANCH   5  18
ATOM     18  N   LIG d   1       1.035  79.228 110.071  0.00  0.00     0.381 N 
ATOM     19  H   LIG d   1       2.019  79.401 110.021  0.00  0.00    -0.090 HD
ATOM     20  H   LIG d   1       0.731  78.877 109.180  0.00  0.00    -0.090 HD
ATOM     21  H   LIG d   1       0.843  78.559 110.783  0.00  0.00    -0.090 HD
ENDBRANCH   5  18
BRANCH   3  22
ATOM     22  C   LIG d   1      -2.280  81.333 112.813  0.00  0.00     0.382 C 
ATOM     23  O   LIG d   1      -2.741  80.195 113.071  0.00  0.00    -0.241 OA
ATOM     24  O   LIG d   1      -2.914  82.346 113.164  0.00  0.00    -0.241 OA
ENDBRANCH   3  22
TORSDOF 7
ENDMDL
MODEL 2
REMARK VINA RESULT:      -6.5      2.614      4.268
REMARK  7 active torsions:
REMARK  status: ('A' for Active; 'I' for Inactive)
REMARK    1  A    between atoms: C_2  and  C_3 
REMARK    2  A    between atoms: C_3  and  O_6 
REMARK    3  A    between atoms: C_3  and  C_4 
REMARK    4  A    between atoms: C_7  and  O_6 
REMARK    5  A    between atoms: C_9  and  C_10 
REMARK    6  A    between atoms: N_15  and  C_14 
REMARK    7  A    between atoms: N_20  and  C_19 
REMARK       I    between atoms: C_22  and  N_20 
ROOT
ATOM      1  C   LIG d   1       2.059  83.880 111.502  0.00  0.00     0.161 C 
ATOM      2  C   LIG d   1       1.019  82.936 111.487  0.00  0.00     0.016 C 
ATOM      3  C   LIG d   1      -0.134  83.035 112.300  0.00  0.00     0.038 C 
ATOM      4  C   LIG d   1      -0.395  84.172 113.079  0.00  0.00     0.028 C 
ATOM      5  C   LIG d   1       0.865  84.915 113.510  0.00  0.00    -0.047 C 
ATOM      6  C   LIG d   1       1.739  85.183 112.264  0.00  0.00     0.091 C 
ENDROOT
BRANCH   1   7
ATOM      7  O   LIG d   1       2.470  84.176 110.152  0.00  0.00    -0.368 OA
BRANCH   7   8
ATOM      8  C   LIG d   1       1.440  84.080 109.138  0.00  0.00     0.119 C 
BRANCH   8   9
ATOM      9  C   LIG d   1       2.089  83.481 107.875  0.00  0.00     0.028 C 
ATOM     10  C   LIG d   1       3.373  82.695 108.191  0.00  0.00     0.006 C 
ENDBRANCH   8   9
BRANCH   8  11
ATOM     11  C   LIG d   1       0.942  85.466 108.718  0.00  0.00     0.028 C 
ATOM     12  C   LIG d   1      -0.284  85.927 109.522  0.00  0.00     0.006 C 
ENDBRANCH   8  11
ENDBRANCH   7   8
ENDBRANCH   1   7
BRANCH   6  13
ATOM     13  N   LIG d   1       3.032  85.832 112.607  0.00  0.00    -0.311 N 
ATOM     14  C   LIG d   1       3.357  87.066 112.225  0.00  0.00     0.210 C 
ATOM     15  C   LIG d   1       4.745  87.536 112.669  0.00  0.00     0.109 C 
ATOM     16  O   LIG d   1       2.614  87.828 111.588  0.00  0.00    -0.276 OA
ATOM     17  H   LIG d   1       3.681  85.296 113.148  0.00  0.00     0.149 HD
ENDBRANCH   6  13
BRANCH   5  18
ATOM     18  N   LIG d   1       0.442  86.151 114.195  0.00  0.00     0.381 N 
ATOM     19  H   LIG d   1       0.660  86.945 113.628  0.00  0.00    -0.090 HD
ATOM     20  H   LIG d   1       0.947  86.232 115.060  0.00  0.00    -0.090 HD
ATOM     21  H   LIG d   1      -0.538  86.122 114.376  0.00  0.00    -0.090 HD
ENDBRANCH   5  18
BRANCH   3  22
ATOM     22  C   LIG d   1      -1.020  81.971 112.369  0.00  0.00     0.382 C 
ATOM     23  O   LIG d   1      -2.252  82.173 112.254  0.00  0.00    -0.241 OA
ATOM     24  O   LIG d   1      -0.605  80.817 112.591  0.00  0.00    -0.241 OA
ENDBRANCH   3  22
TORSDOF 7
ENDMDL
MODEL 3
REMARK VINA RESULT:      -6.3      1.684      4.771
REMARK  7 active torsions:
REMARK  status: ('A' for Active; 'I' for Inactive)
REMARK    1  A    between atoms: C_2  and  C_3 
REMARK    2  A    between atoms: C_3  and  O_6 
REMARK    3  A    between atoms: C_3  and  C_4 
REMARK    4  A    between atoms: C_7  and  O_6 
REMARK    5  A    between atoms: C_9  and  C_10 
REMARK    6  A    between atoms: N_15  and  C_14 
REMARK    7  A    between atoms: N_20  and  C_19 
REMARK       I    between atoms: C_22  and  N_20 
ROOT
ATOM      1  C   LIG d   1       1.218  82.565 111.442  0.00  0.00     0.161 C 
ATOM      2  C   LIG d   1       2.103  82.085 110.463  0.00  0.00     0.016 C 
ATOM      3  C   LIG d   1       1.932  80.848 109.799  0.00  0.00     0.038 C 
ATOM      4  C   LIG d   1       0.775  80.073 109.963  0.00  0.00     0.028 C 
ATOM      5  C   LIG d   1       0.097  80.272 111.314  0.00  0.00    -0.047 C 
ATOM      6  C   LIG d   1      -0.109  81.786 111.553  0.00  0.00     0.091 C 
ENDROOT
BRANCH   1   7
ATOM      7  O   LIG d   1       0.958  83.966 111.222  0.00  0.00    -0.368 OA
BRANCH   7   8
ATOM      8  C   LIG d   1       1.656  84.576 110.108  0.00  0.00     0.119 C 
BRANCH   8   9
ATOM      9  C   LIG d   1       2.466  85.763 110.663  0.00  0.00     0.028 C 
ATOM     10  C   LIG d   1       3.983  85.518 110.603  0.00  0.00     0.006 C 
ENDBRANCH   8   9
BRANCH   8  11
ATOM     11  C   LIG d   1       0.675  85.188 109.104  0.00  0.00     0.028 C 
ATOM     12  C   LIG d   1      -0.432  86.012 109.779  0.00  0.00     0.006 C 
ENDBRANCH   8  11
ENDBRANCH   7   8
ENDBRANCH   1   7
BRANCH   6  13
ATOM     13  N   LIG d   1      -0.690  82.074 112.891  0.00  0.00    -0.311 N 
ATOM     14  C   LIG d   1      -2.000  82.111 113.129  0.00  0.00     0.210 C 
ATOM     15  C   LIG d   1      -2.386  82.446 114.573  0.00  0.00     0.109 C 
ATOM     16  O   LIG d   1      -2.879  81.866 112.289  0.00  0.00    -0.276 OA
ATOM     17  H   LIG d   1      -0.048  82.254 113.638  0.00  0.00     0.149 HD
ENDBRANCH   6  13
BRANCH   5  18
ATOM     18  N   LIG d   1      -1.166  79.512 111.296  0.00  0.00     0.381 N 
ATOM     19  H   LIG d   1      -0.992  78.573 110.999  0.00  0.00    -0.090 HD
ATOM     20  H   LIG d   1      -1.794  79.940 110.638  0.00  0.00    -0.090 HD
ATOM     21  H   LIG d   1      -1.577  79.511 112.204  0.00  0.00    -0.090 HD
ENDBRANCH   5  18
BRANCH   3  22
ATOM     22  C   LIG d   1       2.946  80.357 108.991  0.00  0.00     0.382 C 
ATOM     23  O   LIG d   1       3.011  79.128 108.745  0.00  0.00    -0.241 OA
ATOM     24  O   LIG d   1       3.821  81.120 108.540  0.00  0.00    -0.241 OA
ENDBRANCH   3  22
TORSDOF 7
ENDMDL
MODEL 4
REMARK VINA RESULT:      -5.9      2.308      3.922
REMARK  7 active torsions:
REMARK  status: ('A' for Active; 'I' for Inactive)
REMARK    1  A    between atoms: C_2  and  C_3 
REMARK    2  A    between atoms: C_3  and  O_6 
REMARK    3  A    between atoms: C_3  and  C_4 
REMARK    4  A    between atoms: C_7  and  O_6 
REMARK    5  A    between atoms: C_9  and  C_10 
REMARK    6  A    between atoms: N_15  and  C_14 
REMARK    7  A    between atoms: N_20  and  C_19 
REMARK       I    between atoms: C_22  and  N_20 
ROOT
ATOM      1  C   LIG d   1       2.415  82.322 112.155  0.00  0.00     0.161 C 
ATOM      2  C   LIG d   1       1.371  81.404 112.354  0.00  0.00     0.016 C 
ATOM      3  C   LIG d   1       0.004  81.740 112.228  0.00  0.00     0.038 C 
ATOM      4  C   LIG d   1      -0.410  82.990 111.744  0.00  0.00     0.028 C 
ATOM      5  C   LIG d   1       0.592  84.107 112.014  0.00  0.00    -0.047 C 
ATOM      6  C   LIG d   1       1.986  83.661 111.518  0.00  0.00     0.091 C 
ENDROOT
BRANCH   1   7
ATOM      7  O   LIG d   1       3.463  81.710 111.377  0.00  0.00    -0.368 OA
BRANCH   7   8
ATOM      8  C   LIG d   1       3.203  81.565 109.959  0.00  0.00     0.119 C 
BRANCH   8   9
ATOM      9  C   LIG d   1       3.379  80.076 109.606  0.00  0.00     0.028 C 
ATOM     10  C   LIG d   1       2.046  79.395 109.251  0.00  0.00     0.006 C 
ENDBRANCH   8   9
BRANCH   8  11
ATOM     11  C   LIG d   1       4.249  82.307 109.122  0.00  0.00     0.028 C 
ATOM     12  C   LIG d   1       3.740  82.671 107.718  0.00  0.00     0.006 C 
ENDBRANCH   8  11
ENDBRANCH   7   8
ENDBRANCH   1   7
BRANCH   6  13
ATOM     13  N   LIG d   1       3.043  84.661 111.820  0.00  0.00    -0.311 N 
ATOM     14  C   LIG d   1       3.426  85.604 110.960  0.00  0.00     0.210 C 
ATOM     15  C   LIG d   1       4.545  86.521 111.464  0.00  0.00     0.109 C 
ATOM     16  O   LIG d   1       2.924  85.788 109.841  0.00  0.00    -0.276 OA
ATOM     17  H   LIG d   1       3.482  84.605 112.718  0.00  0.00     0.149 HD
ENDBRANCH   6  13
BRANCH   5  18
ATOM     18  N   LIG d   1       0.099  85.321 111.337  0.00  0.00     0.381 N 
ATOM     19  H   LIG d   1       0.867  85.927 111.126  0.00  0.00    -0.090 HD
ATOM     20  H   LIG d   1      -0.525  85.808 111.956  0.00  0.00    -0.090 HD
ATOM     21  H   LIG d   1      -0.379  85.074 110.498  0.00  0.00    -0.090 HD
ENDBRANCH   5  18
BRANCH   3  22
ATOM     22  C   LIG d   1      -0.967  80.834 112.628  0.00  0.00     0.382 C 
ATOM     23  O   LIG d   1      -2.075  80.804 112.041  0.00  0.00    -0.241 OA
ATOM     24  O   LIG d   1      -0.764  80.077 113.595  0.00  0.00    -0.241 OA
ENDBRANCH   3  22
TORSDOF 7
ENDMDL
MODEL 5
REMARK VINA RESULT:      -5.9      1.766      5.069
REMARK  7 active torsions:
REMARK  status: ('A' for Active; 'I' for Inactive)
REMARK    1  A    between atoms: C_2  and  C_3 
REMARK    2  A    between atoms: C_3  and  O_6 
REMARK    3  A    between atoms: C_3  and  C_4 
REMARK    4  A    between atoms: C_7  and  O_6 
REMARK    5  A    between atoms: C_9  and  C_10 
REMARK    6  A    between atoms: N_15  and  C_14 
REMARK    7  A    between atoms: N_20  and  C_19 
REMARK       I    between atoms: C_22  and  N_20 
ROOT
ATOM      1  C   LIG d   1       1.602  82.214 111.797  0.00  0.00     0.161 C 
ATOM      2  C   LIG d   1       2.638  82.742 111.008  0.00  0.00     0.016 C 
ATOM      3  C   LIG d   1       2.806  82.435 109.638  0.00  0.00     0.038 C 
ATOM      4  C   LIG d   1       1.856  81.692 108.923  0.00  0.00     0.028 C 
ATOM      5  C   LIG d   1       1.063  80.723 109.794  0.00  0.00    -0.047 C 
ATOM      6  C   LIG d   1       0.492  81.491 111.007  0.00  0.00     0.091 C 
ENDROOT
BRANCH   1   7
ATOM      7  O   LIG d   1       1.036  83.254 112.619  0.00  0.00    -0.368 OA
BRANCH   7   8
ATOM      8  C   LIG d   1       1.213  84.611 112.143  0.00  0.00     0.119 C 
BRANCH   8   9
ATOM      9  C   LIG d   1       1.460  85.505 113.373  0.00  0.00     0.028 C 
ATOM     10  C   LIG d   1       0.169  85.795 114.157  0.00  0.00     0.006 C 
ENDBRANCH   8   9
BRANCH   8  11
ATOM     11  C   LIG d   1      -0.070  85.148 111.502  0.00  0.00     0.028 C 
ATOM     12  C   LIG d   1       0.071  85.380 109.989  0.00  0.00     0.006 C 
ENDBRANCH   8  11
ENDBRANCH   7   8
ENDBRANCH   1   7
BRANCH   6  13
ATOM     13  N   LIG d   1      -0.227  80.600 111.955  0.00  0.00    -0.311 N 
ATOM     14  C   LIG d   1      -1.455  80.848 112.406  0.00  0.00     0.210 C 
ATOM     15  C   LIG d   1      -2.004  79.810 113.391  0.00  0.00     0.109 C 
ATOM     16  O   LIG d   1      -2.155  81.811 112.059  0.00  0.00    -0.276 OA
ATOM     17  H   LIG d   1       0.255  79.779 112.263  0.00  0.00     0.149 HD
ENDBRANCH   6  13
BRANCH   5  18
ATOM     18  N   LIG d   1       0.018  80.117 108.948  0.00  0.00     0.381 N 
ATOM     19  H   LIG d   1      -0.440  79.382 109.450  0.00  0.00    -0.090 HD
ATOM     20  H   LIG d   1       0.449  79.720 108.132  0.00  0.00    -0.090 HD
ATOM     21  H   LIG d   1      -0.646  80.809 108.678  0.00  0.00    -0.090 HD
ENDBRANCH   5  18
BRANCH   3  22
ATOM     22  C   LIG d   1       3.958  82.839 108.980  0.00  0.00     0.382 C 
ATOM     23  O   LIG d   1       4.655  83.770 109.451  0.00  0.00    -0.241 OA
ATOM     24  O   LIG d   1       4.284  82.315 107.899  0.00  0.00    -0.241 OA
ENDBRANCH   3  22
TORSDOF 7
ENDMDL
MODEL 6
REMARK VINA RESULT:      -5.8      3.818      5.580
REMARK  7 active torsions:
REMARK  status: ('A' for Active; 'I' for Inactive)
REMARK    1  A    between atoms: C_2  and  C_3 
REMARK    2  A    between atoms: C_3  and  O_6 
REMARK    3  A    between atoms: C_3  and  C_4 
REMARK    4  A    between atoms: C_7  and  O_6 
REMARK    5  A    between atoms: C_9  and  C_10 
REMARK    6  A    between atoms: N_15  and  C_14 
REMARK    7  A    between atoms: N_20  and  C_19 
REMARK       I    between atoms: C_22  and  N_20 
ROOT
ATOM      1  C   LIG d   1       3.037  85.226 113.138  0.00  0.00     0.161 C 
ATOM      2  C   LIG d   1       1.902  84.401 113.073  0.00  0.00     0.016 C 
ATOM      3  C   LIG d   1       0.655  84.746 113.643  0.00  0.00     0.038 C 
ATOM      4  C   LIG d   1       0.417  86.016 114.191  0.00  0.00     0.028 C 
ATOM      5  C   LIG d   1       1.675  86.689 114.730  0.00  0.00    -0.047 C 
ATOM      6  C   LIG d   1       2.766  86.662 113.635  0.00  0.00     0.091 C 
ENDROOT
BRANCH   1   7
ATOM      7  O   LIG d   1       3.695  85.256 111.856  0.00  0.00    -0.368 OA
BRANCH   7   8
ATOM      8  C   LIG d   1       3.218  84.304 110.873  0.00  0.00     0.119 C 
BRANCH   8   9
ATOM      9  C   LIG d   1       4.428  83.469 110.413  0.00  0.00     0.028 C 
ATOM     10  C   LIG d   1       4.322  83.046 108.938  0.00  0.00     0.006 C 
ENDBRANCH   8   9
BRANCH   8  11
ATOM     11  C   LIG d   1       2.710  85.011 109.613  0.00  0.00     0.028 C 
ATOM     12  C   LIG d   1       1.840  86.238 109.929  0.00  0.00     0.006 C 
ENDBRANCH   8  11
ENDBRANCH   7   8
ENDBRANCH   1   7
BRANCH   6  13
ATOM     13  N   LIG d   1       4.057  87.226 114.108  0.00  0.00    -0.311 N 
ATOM     14  C   LIG d   1       4.728  88.171 113.452  0.00  0.00     0.210 C 
ATOM     15  C   LIG d   1       6.048  88.597 114.103  0.00  0.00     0.109 C 
ATOM     16  O   LIG d   1       4.340  88.720 112.410  0.00  0.00    -0.276 OA
ATOM     17  H   LIG d   1       4.429  86.859 114.962  0.00  0.00     0.149 HD
ENDBRANCH   6  13
BRANCH   5  18
ATOM     18  N   LIG d   1       1.306  88.056 115.144  0.00  0.00     0.381 N 
ATOM     19  H   LIG d   1       0.943  88.041 116.076  0.00  0.00    -0.090 HD
ATOM     20  H   LIG d   1       0.586  88.398 114.531  0.00  0.00    -0.090 HD
ATOM     21  H   LIG d   1       2.102  88.653 115.099  0.00  0.00    -0.090 HD
ENDBRANCH   5  18
BRANCH   3  22
ATOM     22  C   LIG d   1      -0.357  83.801 113.705  0.00  0.00     0.382 C 
ATOM     23  O   LIG d   1      -1.078  83.588 112.700  0.00  0.00    -0.241 OA
ATOM     24  O   LIG d   1      -0.588  83.191 114.766  0.00  0.00    -0.241 OA
ENDBRANCH   3  22
TORSDOF 7
ENDMDL
MODEL 7
REMARK VINA RESULT:      -5.6      1.798      2.470
REMARK  7 active torsions:
REMARK  status: ('A' for Active; 'I' for Inactive)
REMARK    1  A    between atoms: C_2  and  C_3 
REMARK    2  A    between atoms: C_3  and  O_6 
REMARK    3  A    between atoms: C_3  and  C_4 
REMARK    4  A    between atoms: C_7  and  O_6 
REMARK    5  A    between atoms: C_9  and  C_10 
REMARK    6  A    between atoms: N_15  and  C_14 
REMARK    7  A    between atoms: N_20  and  C_19 
REMARK       I    between atoms: C_22  and  N_20 
ROOT
ATOM      1  C   LIG d   1       0.717  83.469 112.101  0.00  0.00     0.161 C 
ATOM      2  C   LIG d   1      -0.504  83.086 112.680  0.00  0.00     0.016 C 
ATOM      3  C   LIG d   1      -1.086  81.810 112.497  0.00  0.00     0.038 C 
ATOM      4  C   LIG d   1      -0.406  80.773 111.841  0.00  0.00     0.028 C 
ATOM      5  C   LIG d   1       0.603  81.267 110.810  0.00  0.00    -0.047 C 
ATOM      6  C   LIG d   1       1.526  82.315 111.474  0.00  0.00     0.091 C 
ENDROOT
BRANCH   1   7
ATOM      7  O   LIG d   1       1.517  84.173 113.070  0.00  0.00    -0.368 OA
BRANCH   7   8
ATOM      8  C   LIG d   1       1.379  85.615 113.085  0.00  0.00     0.119 C 
BRANCH   8   9
ATOM      9  C   LIG d   1       2.778  86.218 112.855  0.00  0.00     0.028 C 
ATOM     10  C   LIG d   1       3.895  85.165 112.960  0.00  0.00     0.006 C 
ENDBRANCH   8   9
BRANCH   8  11
ATOM     11  C   LIG d   1       0.943  86.119 114.465  0.00  0.00     0.028 C 
ATOM     12  C   LIG d   1       1.645  87.424 114.872  0.00  0.00     0.006 C 
ENDBRANCH   8  11
ENDBRANCH   7   8
ENDBRANCH   1   7
BRANCH   6  13
ATOM     13  N   LIG d   1       2.489  82.911 110.512  0.00  0.00    -0.311 N 
ATOM     14  C   LIG d   1       3.702  82.411 110.284  0.00  0.00     0.210 C 
ATOM     15  C   LIG d   1       4.543  83.191 109.269  0.00  0.00     0.109 C 
ATOM     16  O   LIG d   1       4.149  81.376 110.801  0.00  0.00    -0.276 OA
ATOM     17  H   LIG d   1       2.196  83.735 110.025  0.00  0.00     0.149 HD
ENDBRANCH   6  13
BRANCH   5  18
ATOM     18  N   LIG d   1       1.335  80.090 110.303  0.00  0.00     0.381 N 
ATOM     19  H   LIG d   1       2.320  80.253 110.363  0.00  0.00    -0.090 HD
ATOM     20  H   LIG d   1       1.096  79.951 109.337  0.00  0.00    -0.090 HD
ATOM     21  H   LIG d   1       1.091  79.283 110.834  0.00  0.00    -0.090 HD
ENDBRANCH   5  18
BRANCH   3  22
ATOM     22  C   LIG d   1      -2.379  81.574 112.939  0.00  0.00     0.382 C 
ATOM     23  O   LIG d   1      -2.947  82.406 113.686  0.00  0.00    -0.241 OA
ATOM     24  O   LIG d   1      -2.967  80.518 112.637  0.00  0.00    -0.241 OA
ENDBRANCH   3  22
TORSDOF 7
ENDMDL
MODEL 8
REMARK VINA RESULT:      -5.5      2.091      5.139
REMARK  7 active torsions:
REMARK  status: ('A' for Active; 'I' for Inactive)
REMARK    1  A    between atoms: C_2  and  C_3 
REMARK    2  A    between atoms: C_3  and  O_6 
REMARK    3  A    between atoms: C_3  and  C_4 
REMARK    4  A    between atoms: C_7  and  O_6 
REMARK    5  A    between atoms: C_9  and  C_10 
REMARK    6  A    between atoms: N_15  and  C_14 
REMARK    7  A    between atoms: N_20  and  C_19 
REMARK       I    between atoms: C_22  and  N_20 
ROOT
ATOM      1  C   LIG d   1       2.112  83.199 111.514  0.00  0.00     0.161 C 
ATOM      2  C   LIG d   1       2.577  84.487 111.830  0.00  0.00     0.016 C 
ATOM      3  C   LIG d   1       2.688  85.528 110.880  0.00  0.00     0.038 C 
ATOM      4  C   LIG d   1       2.196  85.396 109.573  0.00  0.00     0.028 C 
ATOM      5  C   LIG d   1       2.183  83.955 109.074  0.00  0.00    -0.047 C 
ATOM      6  C   LIG d   1       1.466  83.069 110.118  0.00  0.00     0.091 C 
ENDROOT
BRANCH   1   7
ATOM      7  O   LIG d   1       1.199  82.746 112.533  0.00  0.00    -0.368 OA
BRANCH   7   8
ATOM      8  C   LIG d   1      -0.155  83.253 112.446  0.00  0.00     0.119 C 
BRANCH   8   9
ATOM      9  C   LIG d   1      -0.401  84.130 113.690  0.00  0.00     0.028 C 
ATOM     10  C   LIG d   1       0.424  83.671 114.904  0.00  0.00     0.006 C 
ENDBRANCH   8   9
BRANCH   8  11
ATOM     11  C   LIG d   1      -1.182  82.121 112.540  0.00  0.00     0.028 C 
ATOM     12  C   LIG d   1      -0.531  80.729 112.594  0.00  0.00     0.006 C 
ENDBRANCH   8  11
ENDBRANCH   7   8
ENDBRANCH   1   7
BRANCH   6  13
ATOM     13  N   LIG d   1       1.483  81.630 109.748  0.00  0.00    -0.311 N 
ATOM     14  C   LIG d   1       2.602  80.918 109.624  0.00  0.00     0.210 C 
ATOM     15  C   LIG d   1       2.396  79.456 109.214  0.00  0.00     0.109 C 
ATOM     16  O   LIG d   1       3.743  81.349 109.846  0.00  0.00    -0.276 OA
ATOM     17  H   LIG d   1       0.599  81.192 109.580  0.00  0.00     0.149 HD
ENDBRANCH   6  13
BRANCH   5  18
ATOM     18  N   LIG d   1       1.520  83.946 107.756  0.00  0.00     0.381 N 
ATOM     19  H   LIG d   1       0.637  84.412 107.818  0.00  0.00    -0.090 HD
ATOM     20  H   LIG d   1       1.355  82.994 107.481  0.00  0.00    -0.090 HD
ATOM     21  H   LIG d   1       2.096  84.400 107.082  0.00  0.00    -0.090 HD
ENDBRANCH   5  18
BRANCH   3  22
ATOM     22  C   LIG d   1       3.334  86.706 111.225  0.00  0.00     0.382 C 
ATOM     23  O   LIG d   1       2.671  87.686 111.641  0.00  0.00    -0.241 OA
ATOM     24  O   LIG d   1       4.567  86.816 111.082  0.00  0.00    -0.241 OA
ENDBRANCH   3  22
TORSDOF 7
ENDMDL
MODEL 9
REMARK VINA RESULT:      -5.4      2.206      5.259
REMARK  7 active torsions:
REMARK  status: ('A' for Active; 'I' for Inactive)
REMARK    1  A    between atoms: C_2  and  C_3 
REMARK    2  A    between atoms: C_3  and  O_6 
REMARK    3  A    between atoms: C_3  and  C_4 
REMARK    4  A    between atoms: C_7  and  O_6 
REMARK    5  A    between atoms: C_9  and  C_10 
REMARK    6  A    between atoms: N_15  and  C_14 
REMARK    7  A    between atoms: N_20  and  C_19 
REMARK       I    between atoms: C_22  and  N_20 
ROOT
ATOM      1  C   LIG d   1       0.434  82.926 111.941  0.00  0.00     0.161 C 
ATOM      2  C   LIG d   1       1.354  83.526 111.065  0.00  0.00     0.016 C 
ATOM      3  C   LIG d   1       1.882  82.876 109.926  0.00  0.00     0.038 C 
ATOM      4  C   LIG d   1       1.407  81.628 109.499  0.00  0.00     0.028 C 
ATOM      5  C   LIG d   1       0.848  80.772 110.630  0.00  0.00    -0.047 C 
ATOM      6  C   LIG d   1      -0.180  81.606 111.429  0.00  0.00     0.091 C 
ENDROOT
BRANCH   1   7
ATOM      7  O   LIG d   1      -0.606  83.866 112.275  0.00  0.00    -0.368 OA
BRANCH   7   8
ATOM      8  C   LIG d   1      -0.650  84.304 113.656  0.00  0.00     0.119 C 
BRANCH   8   9
ATOM      9  C   LIG d   1      -0.244  85.790 113.683  0.00  0.00     0.028 C 
ATOM     10  C   LIG d   1       1.230  85.989 114.075  0.00  0.00     0.006 C 
ENDBRANCH   8   9
BRANCH   8  11
ATOM     11  C   LIG d   1       0.401  83.581 114.503  0.00  0.00     0.028 C 
ATOM     12  C   LIG d   1      -0.202  82.885 115.733  0.00  0.00     0.006 C 
ENDBRANCH   8  11
ENDBRANCH   7   8
ENDBRANCH   1   7
BRANCH   6  13
ATOM     13  N   LIG d   1      -0.714  80.872 112.606  0.00  0.00    -0.311 N 
ATOM     14  C   LIG d   1      -2.004  80.855 112.935  0.00  0.00     0.210 C 
ATOM     15  C   LIG d   1      -2.339  80.053 114.197  0.00  0.00     0.109 C 
ATOM     16  O   LIG d   1      -2.908  81.399 112.283  0.00  0.00    -0.276 OA
ATOM     17  H   LIG d   1      -0.054  80.377 113.172  0.00  0.00     0.149 HD
ENDBRANCH   6  13
BRANCH   5  18
ATOM     18  N   LIG d   1       0.263  79.560 110.026  0.00  0.00     0.381 N 
ATOM     19  H   LIG d   1       0.001  78.916 110.745  0.00  0.00    -0.090 HD
ATOM     20  H   LIG d   1       0.956  79.120 109.446  0.00  0.00    -0.090 HD
ATOM     21  H   LIG d   1      -0.534  79.802 109.479  0.00  0.00    -0.090 HD
ENDBRANCH   5  18
BRANCH   3  22
ATOM     22  C   LIG d   1       2.926  83.460 109.224  0.00  0.00     0.382 C 
ATOM     23  O   LIG d   1       3.342  84.597 109.550  0.00  0.00    -0.241 OA
ATOM     24  O   LIG d   1       3.427  82.882 108.241  0.00  0.00    -0.241 OA
ENDBRANCH   3  22
TORSDOF 7
ENDMDL
