MODEL 1
REMARK VINA RESULT:      -6.7      0.000      0.000
REMARK  7 active torsions:
REMARK  status: ('A' for Active; 'I' for Inactive)
REMARK    1  A    between atoms: C_2  and  C_3 
REMARK    2  A    between atoms: C_3  and  O_6 
REMARK    3  A    between atoms: C_3  and  C_4 
REMARK    4  A    between atoms: C_7  and  O_6 
REMARK    5  A    between atoms: C_9  and  C_10 
REMARK    6  A    between atoms: N_15  and  C_14 
REMARK    7  A    between atoms: N_20  and  C_19 
REMARK       I    between atoms: C_22  and  N_20 
ROOT
ATOM      1  C   LIG d   1       1.380  81.329 111.778  0.00  0.00     0.161 C 
ATOM      2  C   LIG d   1       2.514  81.854 111.136  0.00  0.00     0.016 C 
ATOM      3  C   LIG d   1       2.733  81.759 109.743  0.00  0.00     0.038 C 
ATOM      4  C   LIG d   1       1.754  81.262 108.870  0.00  0.00     0.028 C 
ATOM      5  C   LIG d   1       0.808  80.262 109.528  0.00  0.00    -0.047 C 
ATOM      6  C   LIG d   1       0.249  80.882 110.829  0.00  0.00     0.091 C 
ENDROOT
BRANCH   1   7
ATOM      7  O   LIG d   1       0.880  82.278 112.741  0.00  0.00    -0.368 OA
BRANCH   7   8
ATOM      8  C   LIG d   1       1.085  83.677 112.422  0.00  0.00     0.119 C 
BRANCH   8   9
ATOM      9  C   LIG d   1       1.484  84.395 113.726  0.00  0.00     0.028 C 
ATOM     10  C   LIG d   1       0.990  85.851 113.769  0.00  0.00     0.006 C 
ENDBRANCH   8   9
BRANCH   8  11
ATOM     11  C   LIG d   1      -0.220  84.344 111.975  0.00  0.00     0.028 C 
ATOM     12  C   LIG d   1      -0.291  84.553 110.455  0.00  0.00     0.006 C 
ENDBRANCH   8  11
ENDBRANCH   7   8
ENDBRANCH   1   7
BRANCH   6  13
ATOM     13  N   LIG d   1      -0.620  79.937 111.578  0.00  0.00    -0.311 N 
ATOM     14  C   LIG d   1      -1.747  80.303 112.186  0.00  0.00     0.210 C 
ATOM     15  C   LIG d   1      -2.482  79.176 112.919  0.00  0.00     0.109 C 
ATOM     16  O   LIG d   1      -2.226  81.447 112.160  0.00  0.00    -0.276 OA
ATOM     17  H   LIG d   1      -0.323  78.982 111.624  0.00  0.00     0.149 HD
ENDBRANCH   6  13
BRANCH   5  18
ATOM     18  N   LIG d   1      -0.242  79.931 108.547  0.00  0.00     0.381 N 
ATOM     19  H   LIG d   1      -1.048  80.501 108.708  0.00  0.00    -0.090 HD
ATOM     20  H   LIG d   1      -0.507  78.969 108.666  0.00  0.00    -0.090 HD
ATOM     21  H   LIG d   1       0.097  80.077 107.622  0.00  0.00    -0.090 HD
ENDBRANCH   5  18
BRANCH   3  22
ATOM     22  C   LIG d   1       3.961  82.128 109.213  0.00  0.00     0.382 C 
ATOM     23  O   LIG d   1       4.402  83.287 109.404  0.00  0.00    -0.241 OA
ATOM     24  O   LIG d   1       4.611  81.331 108.511  0.00  0.00    -0.241 OA
ENDBRANCH   3  22
TORSDOF 7
ENDMDL
MODEL 2
REMARK VINA RESULT:      -6.5      2.431      4.866
REMARK  7 active torsions:
REMARK  status: ('A' for Active; 'I' for Inactive)
REMARK    1  A    between atoms: C_2  and  C_3 
REMARK    2  A    between atoms: C_3  and  O_6 
REMARK    3  A    between atoms: C_3  and  C_4 
REMARK    4  A    between atoms: C_7  and  O_6 
REMARK    5  A    between atoms: C_9  and  C_10 
REMARK    6  A    between atoms: N_15  and  C_14 
REMARK    7  A    between atoms: N_20  and  C_19 
REMARK       I    between atoms: C_22  and  N_20 
ROOT
ATOM      1  C   LIG d   1       0.982  84.026 109.761  0.00  0.00     0.161 C 
ATOM      2  C   LIG d   1       0.641  85.146 110.539  0.00  0.00     0.016 C 
ATOM      3  C   LIG d   1      -0.137  85.067 111.717  0.00  0.00     0.038 C 
ATOM      4  C   LIG d   1      -0.503  83.837 112.283  0.00  0.00     0.028 C 
ATOM      5  C   LIG d   1      -0.611  82.709 111.263  0.00  0.00    -0.047 C 
ATOM      6  C   LIG d   1       0.686  82.665 110.424  0.00  0.00     0.091 C 
ENDROOT
BRANCH   1   7
ATOM      7  O   LIG d   1       2.368  84.104 109.374  0.00  0.00    -0.368 OA
BRANCH   7   8
ATOM      8  C   LIG d   1       3.325  83.564 110.317  0.00  0.00     0.119 C 
BRANCH   8   9
ATOM      9  C   LIG d   1       3.948  84.752 111.076  0.00  0.00     0.028 C 
ATOM     10  C   LIG d   1       3.767  84.635 112.599  0.00  0.00     0.006 C 
ENDBRANCH   8   9
BRANCH   8  11
ATOM     11  C   LIG d   1       4.494  82.885 109.598  0.00  0.00     0.028 C 
ATOM     12  C   LIG d   1       4.113  82.359 108.205  0.00  0.00     0.006 C 
ENDBRANCH   8  11
ENDBRANCH   7   8
ENDBRANCH   1   7
BRANCH   6  13
ATOM     13  N   LIG d   1       0.629  81.643 109.346  0.00  0.00    -0.311 N 
ATOM     14  C   LIG d   1       1.380  80.543 109.338  0.00  0.00     0.210 C 
ATOM     15  C   LIG d   1       1.179  79.632 108.123  0.00  0.00     0.109 C 
ATOM     16  O   LIG d   1       2.170  80.220 110.237  0.00  0.00    -0.276 OA
ATOM     17  H   LIG d   1      -0.008  81.811 108.592  0.00  0.00     0.149 HD
ENDBRANCH   6  13
BRANCH   5  18
ATOM     18  N   LIG d   1      -0.863  81.459 112.006  0.00  0.00     0.381 N 
ATOM     19  H   LIG d   1      -0.397  80.698 111.554  0.00  0.00    -0.090 HD
ATOM     20  H   LIG d   1      -1.850  81.272 112.002  0.00  0.00    -0.090 HD
ATOM     21  H   LIG d   1      -0.537  81.549 112.943  0.00  0.00    -0.090 HD
ENDBRANCH   5  18
BRANCH   3  22
ATOM     22  C   LIG d   1      -0.591  86.231 112.319  0.00  0.00     0.382 C 
ATOM     23  O   LIG d   1      -0.037  86.655 113.362  0.00  0.00    -0.241 OA
ATOM     24  O   LIG d   1      -1.576  86.838 111.857  0.00  0.00    -0.241 OA
ENDBRANCH   3  22
TORSDOF 7
ENDMDL
MODEL 3
REMARK VINA RESULT:      -6.4      2.945      5.509
REMARK  7 active torsions:
REMARK  status: ('A' for Active; 'I' for Inactive)
REMARK    1  A    between atoms: C_2  and  C_3 
REMARK    2  A    between atoms: C_3  and  O_6 
REMARK    3  A    between atoms: C_3  and  C_4 
REMARK    4  A    between atoms: C_7  and  O_6 
REMARK    5  A    between atoms: C_9  and  C_10 
REMARK    6  A    between atoms: N_15  and  C_14 
REMARK    7  A    between atoms: N_20  and  C_19 
REMARK       I    between atoms: C_22  and  N_20 
ROOT
ATOM      1  C   LIG d   1       2.161  85.349 110.341  0.00  0.00     0.161 C 
ATOM      2  C   LIG d   1       1.186  86.089 111.030  0.00  0.00     0.016 C 
ATOM      3  C   LIG d   1      -0.036  85.538 111.479  0.00  0.00     0.038 C 
ATOM      4  C   LIG d   1      -0.302  84.163 111.401  0.00  0.00     0.028 C 
ATOM      5  C   LIG d   1       0.435  83.467 110.262  0.00  0.00    -0.047 C 
ATOM      6  C   LIG d   1       1.937  83.822 110.345  0.00  0.00     0.091 C 
ENDROOT
BRANCH   1   7
ATOM      7  O   LIG d   1       3.469  85.665 110.857  0.00  0.00    -0.368 OA
BRANCH   7   8
ATOM      8  C   LIG d   1       3.510  86.221 112.194  0.00  0.00     0.119 C 
BRANCH   8   9
ATOM      9  C   LIG d   1       4.605  87.305 112.211  0.00  0.00     0.028 C 
ATOM     10  C   LIG d   1       4.948  87.770 113.636  0.00  0.00     0.006 C 
ENDBRANCH   8   9
BRANCH   8  11
ATOM     11  C   LIG d   1       3.957  85.176 113.220  0.00  0.00     0.028 C 
ATOM     12  C   LIG d   1       2.782  84.558 113.993  0.00  0.00     0.006 C 
ENDBRANCH   8  11
ENDBRANCH   7   8
ENDBRANCH   1   7
BRANCH   6  13
ATOM     13  N   LIG d   1       2.718  83.249 109.218  0.00  0.00    -0.311 N 
ATOM     14  C   LIG d   1       3.721  82.389 109.384  0.00  0.00     0.210 C 
ATOM     15  C   LIG d   1       4.406  81.937 108.090  0.00  0.00     0.109 C 
ATOM     16  O   LIG d   1       4.087  81.932 110.477  0.00  0.00    -0.276 OA
ATOM     17  H   LIG d   1       2.467  83.542 108.294  0.00  0.00     0.149 HD
ENDBRANCH   6  13
BRANCH   5  18
ATOM     18  N   LIG d   1       0.176  82.019 110.383  0.00  0.00     0.381 N 
ATOM     19  H   LIG d   1      -0.199  81.817 111.288  0.00  0.00    -0.090 HD
ATOM     20  H   LIG d   1       1.044  81.524 110.283  0.00  0.00    -0.090 HD
ATOM     21  H   LIG d   1      -0.464  81.728 109.677  0.00  0.00    -0.090 HD
ENDBRANCH   5  18
BRANCH   3  22
ATOM     22  C   LIG d   1      -1.025  86.374 111.976  0.00  0.00     0.382 C 
ATOM     23  O   LIG d   1      -1.280  86.380 113.205  0.00  0.00    -0.241 OA
ATOM     24  O   LIG d   1      -1.695  87.088 111.207  0.00  0.00    -0.241 OA
ENDBRANCH   3  22
TORSDOF 7
ENDMDL
MODEL 4
REMARK VINA RESULT:      -6.2      2.617      5.933
REMARK  7 active torsions:
REMARK  status: ('A' for Active; 'I' for Inactive)
REMARK    1  A    between atoms: C_2  and  C_3 
REMARK    2  A    between atoms: C_3  and  O_6 
REMARK    3  A    between atoms: C_3  and  C_4 
REMARK    4  A    between atoms: C_7  and  O_6 
REMARK    5  A    between atoms: C_9  and  C_10 
REMARK    6  A    between atoms: N_15  and  C_14 
REMARK    7  A    between atoms: N_20  and  C_19 
REMARK       I    between atoms: C_22  and  N_20 
ROOT
ATOM      1  C   LIG d   1       2.201  82.430 111.745  0.00  0.00     0.161 C 
ATOM      2  C   LIG d   1       1.122  81.531 111.750  0.00  0.00     0.016 C 
ATOM      3  C   LIG d   1      -0.229  81.936 111.658  0.00  0.00     0.038 C 
ATOM      4  C   LIG d   1      -0.588  83.268 111.400  0.00  0.00     0.028 C 
ATOM      5  C   LIG d   1       0.443  84.278 111.892  0.00  0.00    -0.047 C 
ATOM      6  C   LIG d   1       1.836  83.877 111.354  0.00  0.00     0.091 C 
ENDROOT
BRANCH   1   7
ATOM      7  O   LIG d   1       3.250  81.930 110.893  0.00  0.00    -0.368 OA
BRANCH   7   8
ATOM      8  C   LIG d   1       2.833  81.413 109.605  0.00  0.00     0.119 C 
BRANCH   8   9
ATOM      9  C   LIG d   1       3.468  80.019 109.438  0.00  0.00     0.028 C 
ATOM     10  C   LIG d   1       2.446  78.958 108.996  0.00  0.00     0.006 C 
ENDBRANCH   8   9
BRANCH   8  11
ATOM     11  C   LIG d   1       3.396  82.256 108.457  0.00  0.00     0.028 C 
ATOM     12  C   LIG d   1       4.873  82.629 108.662  0.00  0.00     0.006 C 
ENDBRANCH   8  11
ENDBRANCH   7   8
ENDBRANCH   1   7
BRANCH   6  13
ATOM     13  N   LIG d   1       2.916  84.765 111.856  0.00  0.00    -0.311 N 
ATOM     14  C   LIG d   1       3.240  85.922 111.282  0.00  0.00     0.210 C 
ATOM     15  C   LIG d   1       4.397  86.674 111.949  0.00  0.00     0.109 C 
ATOM     16  O   LIG d   1       2.659  86.413 110.303  0.00  0.00    -0.276 OA
ATOM     17  H   LIG d   1       3.419  84.459 112.666  0.00  0.00     0.149 HD
ENDBRANCH   6  13
BRANCH   5  18
ATOM     18  N   LIG d   1       0.011  85.613 111.437  0.00  0.00     0.381 N 
ATOM     19  H   LIG d   1      -0.958  85.745 111.647  0.00  0.00    -0.090 HD
ATOM     20  H   LIG d   1       0.128  85.671 110.440  0.00  0.00    -0.090 HD
ATOM     21  H   LIG d   1       0.554  86.319 111.884  0.00  0.00    -0.090 HD
ENDBRANCH   5  18
BRANCH   3  22
ATOM     22  C   LIG d   1      -1.240  81.010 111.863  0.00  0.00     0.382 C 
ATOM     23  O   LIG d   1      -1.073  79.814 111.524  0.00  0.00    -0.241 OA
ATOM     24  O   LIG d   1      -2.334  81.365 112.343  0.00  0.00    -0.241 OA
ENDBRANCH   3  22
TORSDOF 7
ENDMDL
MODEL 5
REMARK VINA RESULT:      -5.4      3.438      4.224
REMARK  7 active torsions:
REMARK  status: ('A' for Active; 'I' for Inactive)
REMARK    1  A    between atoms: C_2  and  C_3 
REMARK    2  A    between atoms: C_3  and  O_6 
REMARK    3  A    between atoms: C_3  and  C_4 
REMARK    4  A    between atoms: C_7  and  O_6 
REMARK    5  A    between atoms: C_9  and  C_10 
REMARK    6  A    between atoms: N_15  and  C_14 
REMARK    7  A    between atoms: N_20  and  C_19 
REMARK       I    between atoms: C_22  and  N_20 
ROOT
ATOM      1  C   LIG d   1       2.598  84.104 111.923  0.00  0.00     0.161 C 
ATOM      2  C   LIG d   1       3.416  83.423 111.005  0.00  0.00     0.016 C 
ATOM      3  C   LIG d   1       3.067  83.226 109.649  0.00  0.00     0.038 C 
ATOM      4  C   LIG d   1       1.938  83.832 109.079  0.00  0.00     0.028 C 
ATOM      5  C   LIG d   1       0.824  84.106 110.084  0.00  0.00    -0.047 C 
ATOM      6  C   LIG d   1       1.415  84.868 111.292  0.00  0.00     0.091 C 
ENDROOT
BRANCH   1   7
ATOM      7  O   LIG d   1       3.400  84.995 112.723  0.00  0.00    -0.368 OA
BRANCH   7   8
ATOM      8  C   LIG d   1       3.226  86.411 112.469  0.00  0.00     0.119 C 
BRANCH   8   9
ATOM      9  C   LIG d   1       4.519  86.924 111.807  0.00  0.00     0.028 C 
ATOM     10  C   LIG d   1       5.209  88.020 112.637  0.00  0.00     0.006 C 
ENDBRANCH   8   9
BRANCH   8  11
ATOM     11  C   LIG d   1       3.099  87.200 113.776  0.00  0.00     0.028 C 
ATOM     12  C   LIG d   1       2.490  86.370 114.916  0.00  0.00     0.006 C 
ENDBRANCH   8  11
ENDBRANCH   7   8
ENDBRANCH   1   7
BRANCH   6  13
ATOM     13  N   LIG d   1       0.410  85.102 112.361  0.00  0.00    -0.311 N 
ATOM     14  C   LIG d   1      -0.363  86.186 112.417  0.00  0.00     0.210 C 
ATOM     15  C   LIG d   1      -1.317  86.239 113.613  0.00  0.00     0.109 C 
ATOM     16  O   LIG d   1      -0.370  87.093 111.571  0.00  0.00    -0.276 OA
ATOM     17  H   LIG d   1       0.328  84.401 113.072  0.00  0.00     0.149 HD
ENDBRANCH   6  13
BRANCH   5  18
ATOM     18  N   LIG d   1      -0.232  84.862 109.384  0.00  0.00     0.381 N 
ATOM     19  H   LIG d   1      -0.007  84.938 108.412  0.00  0.00    -0.090 HD
ATOM     20  H   LIG d   1      -0.279  85.788 109.771  0.00  0.00    -0.090 HD
ATOM     21  H   LIG d   1      -1.109  84.403 109.494  0.00  0.00    -0.090 HD
ENDBRANCH   5  18
BRANCH   3  22
ATOM     22  C   LIG d   1       3.831  82.382 108.859  0.00  0.00     0.382 C 
ATOM     23  O   LIG d   1       5.039  82.646 108.644  0.00  0.00    -0.241 OA
ATOM     24  O   LIG d   1       3.318  81.382 108.321  0.00  0.00    -0.241 OA
ENDBRANCH   3  22
TORSDOF 7
ENDMDL
MODEL 6
REMARK VINA RESULT:      -5.4      4.296      6.283
REMARK  7 active torsions:
REMARK  status: ('A' for Active; 'I' for Inactive)
REMARK    1  A    between atoms: C_2  and  C_3 
REMARK    2  A    between atoms: C_3  and  O_6 
REMARK    3  A    between atoms: C_3  and  C_4 
REMARK    4  A    between atoms: C_7  and  O_6 
REMARK    5  A    between atoms: C_9  and  C_10 
REMARK    6  A    between atoms: N_15  and  C_14 
REMARK    7  A    between atoms: N_20  and  C_19 
REMARK       I    between atoms: C_22  and  N_20 
ROOT
ATOM      1  C   LIG d   1       2.886  86.361 111.087  0.00  0.00     0.161 C 
ATOM      2  C   LIG d   1       3.124  85.135 110.445  0.00  0.00     0.016 C 
ATOM      3  C   LIG d   1       3.609  83.987 111.113  0.00  0.00     0.038 C 
ATOM      4  C   LIG d   1       3.746  83.945 112.509  0.00  0.00     0.028 C 
ATOM      5  C   LIG d   1       3.998  85.312 113.135  0.00  0.00    -0.047 C 
ATOM      6  C   LIG d   1       2.924  86.302 112.629  0.00  0.00     0.091 C 
ENDROOT
BRANCH   1   7
ATOM      7  O   LIG d   1       1.632  86.913 110.638  0.00  0.00    -0.368 OA
BRANCH   7   8
ATOM      8  C   LIG d   1       0.478  86.044 110.746  0.00  0.00     0.119 C 
BRANCH   8   9
ATOM      9  C   LIG d   1      -0.189  85.985 109.359  0.00  0.00     0.028 C 
ATOM     10  C   LIG d   1       0.780  85.517 108.260  0.00  0.00     0.006 C 
ENDBRANCH   8   9
BRANCH   8  11
ATOM     11  C   LIG d   1      -0.580  86.637 111.681  0.00  0.00     0.028 C 
ATOM     12  C   LIG d   1      -0.586  85.978 113.069  0.00  0.00     0.006 C 
ENDBRANCH   8  11
ENDBRANCH   7   8
ENDBRANCH   1   7
BRANCH   6  13
ATOM     13  N   LIG d   1       3.146  87.684 113.127  0.00  0.00    -0.311 N 
ATOM     14  C   LIG d   1       4.270  88.367 112.916  0.00  0.00     0.210 C 
ATOM     15  C   LIG d   1       4.300  89.769 113.533  0.00  0.00     0.109 C 
ATOM     16  O   LIG d   1       5.232  87.958 112.248  0.00  0.00    -0.276 OA
ATOM     17  H   LIG d   1       2.405  88.105 113.652  0.00  0.00     0.149 HD
ENDBRANCH   6  13
BRANCH   5  18
ATOM     18  N   LIG d   1       3.983  85.142 114.600  0.00  0.00     0.381 N 
ATOM     19  H   LIG d   1       3.975  84.167 114.827  0.00  0.00    -0.090 HD
ATOM     20  H   LIG d   1       3.146  85.558 114.967  0.00  0.00    -0.090 HD
ATOM     21  H   LIG d   1       4.784  85.577 115.002  0.00  0.00    -0.090 HD
ENDBRANCH   5  18
BRANCH   3  22
ATOM     22  C   LIG d   1       4.001  82.879 110.379  0.00  0.00     0.382 C 
ATOM     23  O   LIG d   1       4.412  83.019 109.202  0.00  0.00    -0.241 OA
ATOM     24  O   LIG d   1       3.907  81.735 110.863  0.00  0.00    -0.241 OA
ENDBRANCH   3  22
TORSDOF 7
ENDMDL
MODEL 7
REMARK VINA RESULT:      -5.3      3.225      3.910
REMARK  7 active torsions:
REMARK  status: ('A' for Active; 'I' for Inactive)
REMARK    1  A    between atoms: C_2  and  C_3 
REMARK    2  A    between atoms: C_3  and  O_6 
REMARK    3  A    between atoms: C_3  and  C_4 
REMARK    4  A    between atoms: C_7  and  O_6 
REMARK    5  A    between atoms: C_9  and  C_10 
REMARK    6  A    between atoms: N_15  and  C_14 
REMARK    7  A    between atoms: N_20  and  C_19 
REMARK       I    between atoms: C_22  and  N_20 
ROOT
ATOM      1  C   LIG d   1       2.581  83.468 110.634  0.00  0.00     0.161 C 
ATOM      2  C   LIG d   1       3.164  82.199 110.483  0.00  0.00     0.016 C 
ATOM      3  C   LIG d   1       3.214  81.507 109.252  0.00  0.00     0.038 C 
ATOM      4  C   LIG d   1       2.815  82.106 108.048  0.00  0.00     0.028 C 
ATOM      5  C   LIG d   1       1.757  83.189 108.231  0.00  0.00    -0.047 C 
ATOM      6  C   LIG d   1       2.240  84.185 109.311  0.00  0.00     0.091 C 
ENDROOT
BRANCH   1   7
ATOM      7  O   LIG d   1       3.427  84.301 111.452  0.00  0.00    -0.368 OA
BRANCH   7   8
ATOM      8  C   LIG d   1       2.805  84.888 112.621  0.00  0.00     0.119 C 
BRANCH   8   9
ATOM      9  C   LIG d   1       3.042  86.410 112.556  0.00  0.00     0.028 C 
ATOM     10  C   LIG d   1       4.319  86.772 111.778  0.00  0.00     0.006 C 
ENDBRANCH   8   9
BRANCH   8  11
ATOM     11  C   LIG d   1       3.491  84.426 113.909  0.00  0.00     0.028 C 
ATOM     12  C   LIG d   1       2.682  83.361 114.666  0.00  0.00     0.006 C 
ENDBRANCH   8  11
ENDBRANCH   7   8
ENDBRANCH   1   7
BRANCH   6  13
ATOM     13  N   LIG d   1       1.227  85.229 109.613  0.00  0.00    -0.311 N 
ATOM     14  C   LIG d   1       0.017  84.958 110.098  0.00  0.00     0.210 C 
ATOM     15  C   LIG d   1      -0.880  86.181 110.319  0.00  0.00     0.109 C 
ATOM     16  O   LIG d   1      -0.387  83.825 110.397  0.00  0.00    -0.276 OA
ATOM     17  H   LIG d   1       1.483  86.180 109.429  0.00  0.00     0.149 HD
ENDBRANCH   6  13
BRANCH   5  18
ATOM     18  N   LIG d   1       1.535  83.823 106.918  0.00  0.00     0.381 N 
ATOM     19  H   LIG d   1       2.391  84.219 106.584  0.00  0.00    -0.090 HD
ATOM     20  H   LIG d   1       0.865  84.564 107.024  0.00  0.00    -0.090 HD
ATOM     21  H   LIG d   1       1.196  83.149 106.267  0.00  0.00    -0.090 HD
ENDBRANCH   5  18
BRANCH   3  22
ATOM     22  C   LIG d   1       3.630  80.184 109.223  0.00  0.00     0.382 C 
ATOM     23  O   LIG d   1       4.796  79.902 108.857  0.00  0.00    -0.241 OA
ATOM     24  O   LIG d   1       2.840  79.267 109.515  0.00  0.00    -0.241 OA
ENDBRANCH   3  22
TORSDOF 7
ENDMDL
MODEL 8
REMARK VINA RESULT:      -5.1      1.955      4.809
REMARK  7 active torsions:
REMARK  status: ('A' for Active; 'I' for Inactive)
REMARK    1  A    between atoms: C_2  and  C_3 
REMARK    2  A    between atoms: C_3  and  O_6 
REMARK    3  A    between atoms: C_3  and  C_4 
REMARK    4  A    between atoms: C_7  and  O_6 
REMARK    5  A    between atoms: C_9  and  C_10 
REMARK    6  A    between atoms: N_15  and  C_14 
REMARK    7  A    between atoms: N_20  and  C_19 
REMARK       I    between atoms: C_22  and  N_20 
ROOT
ATOM      1  C   LIG d   1       1.842  82.130 111.422  0.00  0.00     0.161 C 
ATOM      2  C   LIG d   1       0.540  82.007 111.937  0.00  0.00     0.016 C 
ATOM      3  C   LIG d   1      -0.346  80.968 111.573  0.00  0.00     0.038 C 
ATOM      4  C   LIG d   1       0.065  79.887 110.779  0.00  0.00     0.028 C 
ATOM      5  C   LIG d   1       1.209  80.232 109.831  0.00  0.00    -0.047 C 
ATOM      6  C   LIG d   1       2.346  80.899 110.640  0.00  0.00     0.091 C 
ENDROOT
BRANCH   1   7
ATOM      7  O   LIG d   1       2.759  82.459 112.484  0.00  0.00    -0.368 OA
BRANCH   7   8
ATOM      8  C   LIG d   1       2.816  83.855 112.867  0.00  0.00     0.119 C 
BRANCH   8   9
ATOM      9  C   LIG d   1       3.991  84.497 112.103  0.00  0.00     0.028 C 
ATOM     10  C   LIG d   1       3.520  85.351 110.913  0.00  0.00     0.006 C 
ENDBRANCH   8   9
BRANCH   8  11
ATOM     11  C   LIG d   1       3.164  84.012 114.350  0.00  0.00     0.028 C 
ATOM     12  C   LIG d   1       4.126  85.180 114.616  0.00  0.00     0.006 C 
ENDBRANCH   8  11
ENDBRANCH   7   8
ENDBRANCH   1   7
BRANCH   6  13
ATOM     13  N   LIG d   1       3.470  81.345 109.775  0.00  0.00    -0.311 N 
ATOM     14  C   LIG d   1       3.339  82.261 108.817  0.00  0.00     0.210 C 
ATOM     15  C   LIG d   1       4.619  82.560 108.030  0.00  0.00     0.109 C 
ATOM     16  O   LIG d   1       2.293  82.878 108.566  0.00  0.00    -0.276 OA
ATOM     17  H   LIG d   1       4.362  80.919 109.932  0.00  0.00     0.149 HD
ENDBRANCH   6  13
BRANCH   5  18
ATOM     18  N   LIG d   1       1.628  78.985 109.165  0.00  0.00     0.381 N 
ATOM     19  H   LIG d   1       2.625  78.964 109.081  0.00  0.00    -0.090 HD
ATOM     20  H   LIG d   1       1.234  78.961 108.242  0.00  0.00    -0.090 HD
ATOM     21  H   LIG d   1       1.315  78.197 109.689  0.00  0.00    -0.090 HD
ENDBRANCH   5  18
BRANCH   3  22
ATOM     22  C   LIG d   1      -1.672  81.024 111.974  0.00  0.00     0.382 C 
ATOM     23  O   LIG d   1      -2.181  82.122 112.304  0.00  0.00    -0.241 OA
ATOM     24  O   LIG d   1      -2.353  79.984 112.051  0.00  0.00    -0.241 OA
ENDBRANCH   3  22
TORSDOF 7
ENDMDL
MODEL 9
REMARK VINA RESULT:      -5.1      2.630      3.920
REMARK  7 active torsions:
REMARK  status: ('A' for Active; 'I' for Inactive)
REMARK    1  A    between atoms: C_2  and  C_3 
REMARK    2  A    between atoms: C_3  and  O_6 
REMARK    3  A    between atoms: C_3  and  C_4 
REMARK    4  A    between atoms: C_7  and  O_6 
REMARK    5  A    between atoms: C_9  and  C_10 
REMARK    6  A    between atoms: N_15  and  C_14 
REMARK    7  A    between atoms: N_20  and  C_19 
REMARK       I    between atoms: C_22  and  N_20 
ROOT
ATOM      1  C   LIG d   1       0.660  82.492 111.600  0.00  0.00     0.161 C 
ATOM      2  C   LIG d   1       1.328  81.329 111.180  0.00  0.00     0.016 C 
ATOM      3  C   LIG d   1       2.043  81.239 109.964  0.00  0.00     0.038 C 
ATOM      4  C   LIG d   1       2.266  82.359 109.150  0.00  0.00     0.028 C 
ATOM      5  C   LIG d   1       1.186  83.428 109.281  0.00  0.00    -0.047 C 
ATOM      6  C   LIG d   1       0.985  83.757 110.778  0.00  0.00     0.091 C 
ENDROOT
BRANCH   1   7
ATOM      7  O   LIG d   1       0.915  82.724 112.999  0.00  0.00    -0.368 OA
BRANCH   7   8
ATOM      8  C   LIG d   1       2.306  82.852 113.381  0.00  0.00     0.119 C 
BRANCH   8   9
ATOM      9  C   LIG d   1       2.499  82.074 114.697  0.00  0.00     0.028 C 
ATOM     10  C   LIG d   1       2.339  82.969 115.937  0.00  0.00     0.006 C 
ENDBRANCH   8   9
BRANCH   8  11
ATOM     11  C   LIG d   1       2.662  84.304 113.713  0.00  0.00     0.028 C 
ATOM     12  C   LIG d   1       3.816  84.846 112.854  0.00  0.00     0.006 C 
ENDBRANCH   8  11
ENDBRANCH   7   8
ENDBRANCH   1   7
BRANCH   6  13
ATOM     13  N   LIG d   1      -0.113  84.733 111.001  0.00  0.00    -0.311 N 
ATOM     14  C   LIG d   1       0.079  86.049 111.072  0.00  0.00     0.210 C 
ATOM     15  C   LIG d   1      -1.186  86.874 111.327  0.00  0.00     0.109 C 
ATOM     16  O   LIG d   1       1.172  86.614 110.915  0.00  0.00    -0.276 OA
ATOM     17  H   LIG d   1      -1.037  84.363 111.108  0.00  0.00     0.149 HD
ENDBRANCH   6  13
BRANCH   5  18
ATOM     18  N   LIG d   1       1.614  84.594 108.485  0.00  0.00     0.381 N 
ATOM     19  H   LIG d   1       2.568  84.814 108.693  0.00  0.00    -0.090 HD
ATOM     20  H   LIG d   1       1.046  85.384 108.735  0.00  0.00    -0.090 HD
ATOM     21  H   LIG d   1       1.516  84.398 107.513  0.00  0.00    -0.090 HD
ENDBRANCH   5  18
BRANCH   3  22
ATOM     22  C   LIG d   1       2.510  80.007 109.531  0.00  0.00     0.382 C 
ATOM     23  O   LIG d   1       3.744  79.790 109.469  0.00  0.00    -0.241 OA
ATOM     24  O   LIG d   1       1.713  79.124 109.160  0.00  0.00    -0.241 OA
ENDBRANCH   3  22
TORSDOF 7
ENDMDL
