MODEL 1
REMARK VINA RESULT:      -6.6      0.000      0.000
REMARK  7 active torsions:
REMARK  status: ('A' for Active; 'I' for Inactive)
REMARK    1  A    between atoms: C_2  and  C_3 
REMARK    2  A    between atoms: C_3  and  O_6 
REMARK    3  A    between atoms: C_3  and  C_4 
REMARK    4  A    between atoms: C_7  and  O_6 
REMARK    5  A    between atoms: C_9  and  C_10 
REMARK    6  A    between atoms: N_15  and  C_14 
REMARK    7  A    between atoms: N_20  and  C_19 
REMARK       I    between atoms: C_22  and  N_20 
ROOT
ATOM      1  C   LIG d   1       1.543  82.816 111.572  0.00  0.00     0.161 C 
ATOM      2  C   LIG d   1       2.518  82.497 110.611  0.00  0.00     0.016 C 
ATOM      3  C   LIG d   1       2.510  81.297 109.864  0.00  0.00     0.038 C 
ATOM      4  C   LIG d   1       1.435  80.397 109.918  0.00  0.00     0.028 C 
ATOM      5  C   LIG d   1       0.681  80.434 111.243  0.00  0.00    -0.047 C 
ATOM      6  C   LIG d   1       0.304  81.898 111.565  0.00  0.00     0.091 C 
ENDROOT
BRANCH   1   7
ATOM      7  O   LIG d   1       1.147  84.194 111.426  0.00  0.00    -0.368 OA
BRANCH   7   8
ATOM      8  C   LIG d   1       1.798  84.936 110.365  0.00  0.00     0.119 C 
BRANCH   8   9
ATOM      9  C   LIG d   1       2.458  86.174 111.004  0.00  0.00     0.028 C 
ATOM     10  C   LIG d   1       3.963  85.976 111.249  0.00  0.00     0.006 C 
ENDBRANCH   8   9
BRANCH   8  11
ATOM     11  C   LIG d   1       0.779  85.491 109.365  0.00  0.00     0.028 C 
ATOM     12  C   LIG d   1      -0.622  85.661 109.975  0.00  0.00     0.006 C 
ENDBRANCH   8  11
ENDBRANCH   7   8
ENDBRANCH   1   7
BRANCH   6  13
ATOM     13  N   LIG d   1      -0.364  82.034 112.886  0.00  0.00    -0.311 N 
ATOM     14  C   LIG d   1      -1.686  82.011 113.045  0.00  0.00     0.210 C 
ATOM     15  C   LIG d   1      -2.166  82.188 114.489  0.00  0.00     0.109 C 
ATOM     16  O   LIG d   1      -2.505  81.829 112.132  0.00  0.00    -0.276 OA
ATOM     17  H   LIG d   1       0.227  82.154 113.685  0.00  0.00     0.149 HD
ENDBRANCH   6  13
BRANCH   5  18
ATOM     18  N   LIG d   1      -0.493  79.550 111.112  0.00  0.00     0.381 N 
ATOM     19  H   LIG d   1      -0.227  78.700 110.656  0.00  0.00    -0.090 HD
ATOM     20  H   LIG d   1      -1.185  80.009 110.547  0.00  0.00    -0.090 HD
ATOM     21  H   LIG d   1      -0.869  79.348 112.012  0.00  0.00    -0.090 HD
ENDBRANCH   5  18
BRANCH   3  22
ATOM     22  C   LIG d   1       3.605  80.969 109.079  0.00  0.00     0.382 C 
ATOM     23  O   LIG d   1       4.246  79.914 109.307  0.00  0.00    -0.241 OA
ATOM     24  O   LIG d   1       3.987  81.736 108.175  0.00  0.00    -0.241 OA
ENDBRANCH   3  22
TORSDOF 7
ENDMDL
MODEL 2
REMARK VINA RESULT:      -6.1      2.302      5.483
REMARK  7 active torsions:
REMARK  status: ('A' for Active; 'I' for Inactive)
REMARK    1  A    between atoms: C_2  and  C_3 
REMARK    2  A    between atoms: C_3  and  O_6 
REMARK    3  A    between atoms: C_3  and  C_4 
REMARK    4  A    between atoms: C_7  and  O_6 
REMARK    5  A    between atoms: C_9  and  C_10 
REMARK    6  A    between atoms: N_15  and  C_14 
REMARK    7  A    between atoms: N_20  and  C_19 
REMARK       I    between atoms: C_22  and  N_20 
ROOT
ATOM      1  C   LIG d   1       1.509  82.281 111.543  0.00  0.00     0.161 C 
ATOM      2  C   LIG d   1       0.353  81.548 111.860  0.00  0.00     0.016 C 
ATOM      3  C   LIG d   1      -0.825  82.137 112.376  0.00  0.00     0.038 C 
ATOM      4  C   LIG d   1      -0.979  83.529 112.468  0.00  0.00     0.028 C 
ATOM      5  C   LIG d   1       0.341  84.275 112.634  0.00  0.00    -0.047 C 
ATOM      6  C   LIG d   1       1.321  83.812 111.531  0.00  0.00     0.091 C 
ENDROOT
BRANCH   1   7
ATOM      7  O   LIG d   1       2.040  81.832 110.281  0.00  0.00    -0.368 OA
BRANCH   7   8
ATOM      8  C   LIG d   1       3.221  80.995 110.348  0.00  0.00     0.119 C 
BRANCH   8   9
ATOM      9  C   LIG d   1       4.400  81.813 109.784  0.00  0.00     0.028 C 
ATOM     10  C   LIG d   1       3.989  82.684 108.585  0.00  0.00     0.006 C 
ENDBRANCH   8   9
BRANCH   8  11
ATOM     11  C   LIG d   1       3.095  79.778 109.427  0.00  0.00     0.028 C 
ATOM     12  C   LIG d   1       1.635  79.432 109.094  0.00  0.00     0.006 C 
ENDBRANCH   8  11
ENDBRANCH   7   8
ENDBRANCH   1   7
BRANCH   6  13
ATOM     13  N   LIG d   1       2.665  84.431 111.672  0.00  0.00    -0.311 N 
ATOM     14  C   LIG d   1       2.999  85.593 111.113  0.00  0.00     0.210 C 
ATOM     15  C   LIG d   1       4.442  86.041 111.366  0.00  0.00     0.109 C 
ATOM     16  O   LIG d   1       2.228  86.310 110.458  0.00  0.00    -0.276 OA
ATOM     17  H   LIG d   1       3.343  83.931 112.213  0.00  0.00     0.149 HD
ENDBRANCH   6  13
BRANCH   5  18
ATOM     18  N   LIG d   1       0.047  85.719 112.577  0.00  0.00     0.381 N 
ATOM     19  H   LIG d   1       0.875  86.224 112.333  0.00  0.00    -0.090 HD
ATOM     20  H   LIG d   1      -0.254  86.025 113.486  0.00  0.00    -0.090 HD
ATOM     21  H   LIG d   1      -0.668  85.895 111.906  0.00  0.00    -0.090 HD
ENDBRANCH   5  18
BRANCH   3  22
ATOM     22  C   LIG d   1      -1.849  81.329 112.844  0.00  0.00     0.382 C 
ATOM     23  O   LIG d   1      -3.030  81.535 112.473  0.00  0.00    -0.241 OA
ATOM     24  O   LIG d   1      -1.614  80.425 113.668  0.00  0.00    -0.241 OA
ENDBRANCH   3  22
TORSDOF 7
ENDMDL
MODEL 3
REMARK VINA RESULT:      -6.0      1.572      4.852
REMARK  7 active torsions:
REMARK  status: ('A' for Active; 'I' for Inactive)
REMARK    1  A    between atoms: C_2  and  C_3 
REMARK    2  A    between atoms: C_3  and  O_6 
REMARK    3  A    between atoms: C_3  and  C_4 
REMARK    4  A    between atoms: C_7  and  O_6 
REMARK    5  A    between atoms: C_9  and  C_10 
REMARK    6  A    between atoms: N_15  and  C_14 
REMARK    7  A    between atoms: N_20  and  C_19 
REMARK       I    between atoms: C_22  and  N_20 
ROOT
ATOM      1  C   LIG d   1       0.556  82.719 111.273  0.00  0.00     0.161 C 
ATOM      2  C   LIG d   1      -0.569  82.484 112.080  0.00  0.00     0.016 C 
ATOM      3  C   LIG d   1      -1.168  81.212 112.230  0.00  0.00     0.038 C 
ATOM      4  C   LIG d   1      -0.587  80.052 111.698  0.00  0.00     0.028 C 
ATOM      5  C   LIG d   1       0.265  80.314 110.460  0.00  0.00    -0.047 C 
ATOM      6  C   LIG d   1       1.270  81.446 110.774  0.00  0.00     0.091 C 
ENDROOT
BRANCH   1   7
ATOM      7  O   LIG d   1       1.485  83.575 111.968  0.00  0.00    -0.368 OA
BRANCH   7   8
ATOM      8  C   LIG d   1       1.371  84.993 111.695  0.00  0.00     0.119 C 
BRANCH   8   9
ATOM      9  C   LIG d   1       1.010  85.150 110.205  0.00  0.00     0.028 C 
ATOM     10  C   LIG d   1      -0.386  85.763 110.001  0.00  0.00     0.006 C 
ENDBRANCH   8   9
BRANCH   8  11
ATOM     11  C   LIG d   1       2.718  85.703 111.862  0.00  0.00     0.028 C 
ATOM     12  C   LIG d   1       3.743  85.298 110.791  0.00  0.00     0.006 C 
ENDBRANCH   8  11
ENDBRANCH   7   8
ENDBRANCH   1   7
BRANCH   6  13
ATOM     13  N   LIG d   1       2.086  81.823 109.590  0.00  0.00    -0.311 N 
ATOM     14  C   LIG d   1       3.418  81.836 109.592  0.00  0.00     0.210 C 
ATOM     15  C   LIG d   1       4.062  82.275 108.273  0.00  0.00     0.109 C 
ATOM     16  O   LIG d   1       4.128  81.496 110.551  0.00  0.00    -0.276 OA
ATOM     17  H   LIG d   1       1.592  82.083 108.759  0.00  0.00     0.149 HD
ENDBRANCH   6  13
BRANCH   5  18
ATOM     18  N   LIG d   1       0.920  79.044 110.093  0.00  0.00     0.381 N 
ATOM     19  H   LIG d   1       1.067  78.490 110.912  0.00  0.00    -0.090 HD
ATOM     20  H   LIG d   1       1.815  79.247 109.683  0.00  0.00    -0.090 HD
ATOM     21  H   LIG d   1       0.354  78.545 109.442  0.00  0.00    -0.090 HD
ENDBRANCH   5  18
BRANCH   3  22
ATOM     22  C   LIG d   1      -2.385  81.098 112.886  0.00  0.00     0.382 C 
ATOM     23  O   LIG d   1      -2.769  79.979 113.303  0.00  0.00    -0.241 OA
ATOM     24  O   LIG d   1      -3.122  82.092 113.026  0.00  0.00    -0.241 OA
ENDBRANCH   3  22
TORSDOF 7
ENDMDL
MODEL 4
REMARK VINA RESULT:      -5.9      2.494      5.604
REMARK  7 active torsions:
REMARK  status: ('A' for Active; 'I' for Inactive)
REMARK    1  A    between atoms: C_2  and  C_3 
REMARK    2  A    between atoms: C_3  and  O_6 
REMARK    3  A    between atoms: C_3  and  C_4 
REMARK    4  A    between atoms: C_7  and  O_6 
REMARK    5  A    between atoms: C_9  and  C_10 
REMARK    6  A    between atoms: N_15  and  C_14 
REMARK    7  A    between atoms: N_20  and  C_19 
REMARK       I    between atoms: C_22  and  N_20 
ROOT
ATOM      1  C   LIG d   1       0.912  83.002 111.364  0.00  0.00     0.161 C 
ATOM      2  C   LIG d   1      -0.234  82.252 111.680  0.00  0.00     0.016 C 
ATOM      3  C   LIG d   1      -1.119  82.589 112.730  0.00  0.00     0.038 C 
ATOM      4  C   LIG d   1      -1.000  83.791 113.444  0.00  0.00     0.028 C 
ATOM      5  C   LIG d   1       0.428  84.326 113.495  0.00  0.00    -0.047 C 
ATOM      6  C   LIG d   1       0.997  84.377 112.059  0.00  0.00     0.091 C 
ENDROOT
BRANCH   1   7
ATOM      7  O   LIG d   1       1.016  83.155 109.935  0.00  0.00    -0.368 OA
BRANCH   7   8
ATOM      8  C   LIG d   1       1.963  82.285 109.267  0.00  0.00     0.119 C 
BRANCH   8   9
ATOM      9  C   LIG d   1       1.285  80.913 109.090  0.00  0.00     0.028 C 
ATOM     10  C   LIG d   1       2.264  79.744 109.294  0.00  0.00     0.006 C 
ENDBRANCH   8   9
BRANCH   8  11
ATOM     11  C   LIG d   1       3.190  82.021 110.144  0.00  0.00     0.028 C 
ATOM     12  C   LIG d   1       4.443  82.766 109.656  0.00  0.00     0.006 C 
ENDBRANCH   8  11
ENDBRANCH   7   8
ENDBRANCH   1   7
BRANCH   6  13
ATOM     13  N   LIG d   1       2.418  84.810 112.027  0.00  0.00    -0.311 N 
ATOM     14  C   LIG d   1       2.860  85.823 111.285  0.00  0.00     0.210 C 
ATOM     15  C   LIG d   1       4.365  86.090 111.384  0.00  0.00     0.109 C 
ATOM     16  O   LIG d   1       2.142  86.547 110.578  0.00  0.00    -0.276 OA
ATOM     17  H   LIG d   1       3.064  84.297 112.595  0.00  0.00     0.149 HD
ENDBRANCH   6  13
BRANCH   5  18
ATOM     18  N   LIG d   1       0.385  85.648 114.147  0.00  0.00     0.381 N 
ATOM     19  H   LIG d   1       1.311  85.933 114.397  0.00  0.00    -0.090 HD
ATOM     20  H   LIG d   1      -0.161  85.578 114.988  0.00  0.00    -0.090 HD
ATOM     21  H   LIG d   1      -0.023  86.318 113.533  0.00  0.00    -0.090 HD
ENDBRANCH   5  18
BRANCH   3  22
ATOM     22  C   LIG d   1      -2.114  81.698 113.103  0.00  0.00     0.382 C 
ATOM     23  O   LIG d   1      -1.955  80.965 114.109  0.00  0.00    -0.241 OA
ATOM     24  O   LIG d   1      -3.149  81.586 112.420  0.00  0.00    -0.241 OA
ENDBRANCH   3  22
TORSDOF 7
ENDMDL
MODEL 5
REMARK VINA RESULT:      -5.8      1.449      2.093
REMARK  7 active torsions:
REMARK  status: ('A' for Active; 'I' for Inactive)
REMARK    1  A    between atoms: C_2  and  C_3 
REMARK    2  A    between atoms: C_3  and  O_6 
REMARK    3  A    between atoms: C_3  and  C_4 
REMARK    4  A    between atoms: C_7  and  O_6 
REMARK    5  A    between atoms: C_9  and  C_10 
REMARK    6  A    between atoms: N_15  and  C_14 
REMARK    7  A    between atoms: N_20  and  C_19 
REMARK       I    between atoms: C_22  and  N_20 
ROOT
ATOM      1  C   LIG d   1       1.636  82.917 111.871  0.00  0.00     0.161 C 
ATOM      2  C   LIG d   1       2.640  82.887 110.888  0.00  0.00     0.016 C 
ATOM      3  C   LIG d   1       2.725  81.887 109.893  0.00  0.00     0.038 C 
ATOM      4  C   LIG d   1       1.718  80.926 109.719  0.00  0.00     0.028 C 
ATOM      5  C   LIG d   1       0.950  80.614 111.000  0.00  0.00    -0.047 C 
ATOM      6  C   LIG d   1       0.466  81.940 111.629  0.00  0.00     0.091 C 
ENDROOT
BRANCH   1   7
ATOM      7  O   LIG d   1       1.142  84.262 112.025  0.00  0.00    -0.368 OA
BRANCH   7   8
ATOM      8  C   LIG d   1       1.589  84.974 113.205  0.00  0.00     0.119 C 
BRANCH   8   9
ATOM      9  C   LIG d   1       0.335  85.365 114.011  0.00  0.00     0.028 C 
ATOM     10  C   LIG d   1      -0.945  85.329 113.160  0.00  0.00     0.006 C 
ENDBRANCH   8   9
BRANCH   8  11
ATOM     11  C   LIG d   1       2.263  86.298 112.835  0.00  0.00     0.028 C 
ATOM     12  C   LIG d   1       2.047  86.687 111.364  0.00  0.00     0.006 C 
ENDBRANCH   8  11
ENDBRANCH   7   8
ENDBRANCH   1   7
BRANCH   6  13
ATOM     13  N   LIG d   1      -0.222  81.732 112.931  0.00  0.00    -0.311 N 
ATOM     14  C   LIG d   1      -1.547  81.712 113.065  0.00  0.00     0.210 C 
ATOM     15  C   LIG d   1      -2.048  81.503 114.497  0.00  0.00     0.109 C 
ATOM     16  O   LIG d   1      -2.354  81.815 112.129  0.00  0.00    -0.276 OA
ATOM     17  H   LIG d   1       0.358  81.608 113.738  0.00  0.00     0.149 HD
ENDBRANCH   6  13
BRANCH   5  18
ATOM     18  N   LIG d   1      -0.155  79.704 110.647  0.00  0.00     0.381 N 
ATOM     19  H   LIG d   1      -0.071  79.424 109.690  0.00  0.00    -0.090 HD
ATOM     20  H   LIG d   1      -1.026  80.192 110.757  0.00  0.00    -0.090 HD
ATOM     21  H   LIG d   1      -0.138  78.902 111.238  0.00  0.00    -0.090 HD
ENDBRANCH   5  18
BRANCH   3  22
ATOM     22  C   LIG d   1       3.848  81.817 109.082  0.00  0.00     0.382 C 
ATOM     23  O   LIG d   1       4.749  82.684 109.185  0.00  0.00    -0.241 OA
ATOM     24  O   LIG d   1       3.951  80.924 108.220  0.00  0.00    -0.241 OA
ENDBRANCH   3  22
TORSDOF 7
ENDMDL
MODEL 6
REMARK VINA RESULT:      -5.6      2.069      4.406
REMARK  7 active torsions:
REMARK  status: ('A' for Active; 'I' for Inactive)
REMARK    1  A    between atoms: C_2  and  C_3 
REMARK    2  A    between atoms: C_3  and  O_6 
REMARK    3  A    between atoms: C_3  and  C_4 
REMARK    4  A    between atoms: C_7  and  O_6 
REMARK    5  A    between atoms: C_9  and  C_10 
REMARK    6  A    between atoms: N_15  and  C_14 
REMARK    7  A    between atoms: N_20  and  C_19 
REMARK       I    between atoms: C_22  and  N_20 
ROOT
ATOM      1  C   LIG d   1       0.511  83.634 110.663  0.00  0.00     0.161 C 
ATOM      2  C   LIG d   1       1.367  84.747 110.608  0.00  0.00     0.016 C 
ATOM      3  C   LIG d   1       1.958  85.331 111.752  0.00  0.00     0.038 C 
ATOM      4  C   LIG d   1       1.852  84.746 113.023  0.00  0.00     0.028 C 
ATOM      5  C   LIG d   1       0.587  83.913 113.202  0.00  0.00    -0.047 C 
ATOM      6  C   LIG d   1       0.472  82.915 112.028  0.00  0.00     0.091 C 
ENDROOT
BRANCH   1   7
ATOM      7  O   LIG d   1       0.850  82.704 109.616  0.00  0.00    -0.368 OA
BRANCH   7   8
ATOM      8  C   LIG d   1       2.012  81.872 109.854  0.00  0.00     0.119 C 
BRANCH   8   9
ATOM      9  C   LIG d   1       3.041  82.187 108.751  0.00  0.00     0.028 C 
ATOM     10  C   LIG d   1       4.286  82.905 109.297  0.00  0.00     0.006 C 
ENDBRANCH   8   9
BRANCH   8  11
ATOM     11  C   LIG d   1       1.678  80.387 109.686  0.00  0.00     0.028 C 
ATOM     12  C   LIG d   1       2.902  79.542 109.297  0.00  0.00     0.006 C 
ENDBRANCH   8  11
ENDBRANCH   7   8
ENDBRANCH   1   7
BRANCH   6  13
ATOM     13  N   LIG d   1      -0.782  82.118 112.081  0.00  0.00    -0.311 N 
ATOM     14  C   LIG d   1      -0.865  80.919 112.654  0.00  0.00     0.210 C 
ATOM     15  C   LIG d   1      -2.246  80.261 112.580  0.00  0.00     0.109 C 
ATOM     16  O   LIG d   1       0.067  80.351 113.244  0.00  0.00    -0.276 OA
ATOM     17  H   LIG d   1      -1.594  82.518 111.653  0.00  0.00     0.149 HD
ENDBRANCH   6  13
BRANCH   5  18
ATOM     18  N   LIG d   1       0.671  83.252 114.518  0.00  0.00     0.381 N 
ATOM     19  H   LIG d   1       1.517  82.720 114.576  0.00  0.00    -0.090 HD
ATOM     20  H   LIG d   1      -0.105  82.621 114.615  0.00  0.00    -0.090 HD
ATOM     21  H   LIG d   1       0.648  83.933 115.244  0.00  0.00    -0.090 HD
ENDBRANCH   5  18
BRANCH   3  22
ATOM     22  C   LIG d   1       2.632  86.537 111.637  0.00  0.00     0.382 C 
ATOM     23  O   LIG d   1       3.805  86.560 111.192  0.00  0.00    -0.241 OA
ATOM     24  O   LIG d   1       2.098  87.598 112.014  0.00  0.00    -0.241 OA
ENDBRANCH   3  22
TORSDOF 7
ENDMDL
MODEL 7
REMARK VINA RESULT:      -5.4      2.680      4.345
REMARK  7 active torsions:
REMARK  status: ('A' for Active; 'I' for Inactive)
REMARK    1  A    between atoms: C_2  and  C_3 
REMARK    2  A    between atoms: C_3  and  O_6 
REMARK    3  A    between atoms: C_3  and  C_4 
REMARK    4  A    between atoms: C_7  and  O_6 
REMARK    5  A    between atoms: C_9  and  C_10 
REMARK    6  A    between atoms: N_15  and  C_14 
REMARK    7  A    between atoms: N_20  and  C_19 
REMARK       I    between atoms: C_22  and  N_20 
ROOT
ATOM      1  C   LIG d   1       1.498  82.910 110.935  0.00  0.00     0.161 C 
ATOM      2  C   LIG d   1       1.074  81.670 110.427  0.00  0.00     0.016 C 
ATOM      3  C   LIG d   1       1.915  80.801 109.694  0.00  0.00     0.038 C 
ATOM      4  C   LIG d   1       3.288  81.046 109.549  0.00  0.00     0.028 C 
ATOM      5  C   LIG d   1       3.650  82.526 109.611  0.00  0.00    -0.047 C 
ATOM      6  C   LIG d   1       3.023  83.143 110.882  0.00  0.00     0.091 C 
ENDROOT
BRANCH   1   7
ATOM      7  O   LIG d   1       1.012  83.078 112.281  0.00  0.00    -0.368 OA
BRANCH   7   8
ATOM      8  C   LIG d   1      -0.118  83.970 112.444  0.00  0.00     0.119 C 
BRANCH   8   9
ATOM      9  C   LIG d   1      -0.383  84.635 111.080  0.00  0.00     0.028 C 
ATOM     10  C   LIG d   1      -0.104  86.147 111.100  0.00  0.00     0.006 C 
ENDBRANCH   8   9
BRANCH   8  11
ATOM     11  C   LIG d   1       0.214  85.120 113.399  0.00  0.00     0.028 C 
ATOM     12  C   LIG d   1      -0.792  85.245 114.554  0.00  0.00     0.006 C 
ENDBRANCH   8  11
ENDBRANCH   7   8
ENDBRANCH   1   7
BRANCH   6  13
ATOM     13  N   LIG d   1       3.257  84.607 110.976  0.00  0.00    -0.311 N 
ATOM     14  C   LIG d   1       3.914  85.181 111.983  0.00  0.00     0.210 C 
ATOM     15  C   LIG d   1       4.026  86.706 111.896  0.00  0.00     0.109 C 
ATOM     16  O   LIG d   1       4.441  84.569 112.924  0.00  0.00    -0.276 OA
ATOM     17  H   LIG d   1       2.890  85.176 110.239  0.00  0.00     0.149 HD
ENDBRANCH   6  13
BRANCH   5  18
ATOM     18  N   LIG d   1       5.121  82.627 109.585  0.00  0.00     0.381 N 
ATOM     19  H   LIG d   1       5.394  83.589 109.555  0.00  0.00    -0.090 HD
ATOM     20  H   LIG d   1       5.463  82.176 108.755  0.00  0.00    -0.090 HD
ATOM     21  H   LIG d   1       5.507  82.189 110.392  0.00  0.00    -0.090 HD
ENDBRANCH   5  18
BRANCH   3  22
ATOM     22  C   LIG d   1       1.373  79.691 109.063  0.00  0.00     0.382 C 
ATOM     23  O   LIG d   1       0.186  79.718 108.657  0.00  0.00    -0.241 OA
ATOM     24  O   LIG d   1       2.042  78.648 108.935  0.00  0.00    -0.241 OA
ENDBRANCH   3  22
TORSDOF 7
ENDMDL
MODEL 8
REMARK VINA RESULT:      -5.4      2.408      5.168
REMARK  7 active torsions:
REMARK  status: ('A' for Active; 'I' for Inactive)
REMARK    1  A    between atoms: C_2  and  C_3 
REMARK    2  A    between atoms: C_3  and  O_6 
REMARK    3  A    between atoms: C_3  and  C_4 
REMARK    4  A    between atoms: C_7  and  O_6 
REMARK    5  A    between atoms: C_9  and  C_10 
REMARK    6  A    between atoms: N_15  and  C_14 
REMARK    7  A    between atoms: N_20  and  C_19 
REMARK       I    between atoms: C_22  and  N_20 
ROOT
ATOM      1  C   LIG d   1       2.462  82.866 111.843  0.00  0.00     0.161 C 
ATOM      2  C   LIG d   1       2.437  84.214 112.239  0.00  0.00     0.016 C 
ATOM      3  C   LIG d   1       2.126  85.277 111.360  0.00  0.00     0.038 C 
ATOM      4  C   LIG d   1       1.667  85.049 110.054  0.00  0.00     0.028 C 
ATOM      5  C   LIG d   1       2.162  83.735 109.459  0.00  0.00    -0.047 C 
ATOM      6  C   LIG d   1       1.856  82.589 110.451  0.00  0.00     0.091 C 
ENDROOT
BRANCH   1   7
ATOM      7  O   LIG d   1       1.815  82.052 112.842  0.00  0.00    -0.368 OA
BRANCH   7   8
ATOM      8  C   LIG d   1       0.376  81.928 112.728  0.00  0.00     0.119 C 
BRANCH   8   9
ATOM      9  C   LIG d   1      -0.245  82.575 113.982  0.00  0.00     0.028 C 
ATOM     10  C   LIG d   1      -0.952  83.904 113.667  0.00  0.00     0.006 C 
ENDBRANCH   8   9
BRANCH   8  11
ATOM     11  C   LIG d   1      -0.063  80.461 112.771  0.00  0.00     0.028 C 
ATOM     12  C   LIG d   1      -1.586  80.291 112.655  0.00  0.00     0.006 C 
ENDBRANCH   8  11
ENDBRANCH   7   8
ENDBRANCH   1   7
BRANCH   6  13
ATOM     13  N   LIG d   1       2.383  81.280 109.984  0.00  0.00    -0.311 N 
ATOM     14  C   LIG d   1       1.633  80.365 109.372  0.00  0.00     0.210 C 
ATOM     15  C   LIG d   1       2.369  79.076 108.991  0.00  0.00     0.109 C 
ATOM     16  O   LIG d   1       0.437  80.511 109.079  0.00  0.00    -0.276 OA
ATOM     17  H   LIG d   1       3.351  81.091 110.153  0.00  0.00     0.149 HD
ENDBRANCH   6  13
BRANCH   5  18
ATOM     18  N   LIG d   1       1.499  83.560 108.153  0.00  0.00     0.381 N 
ATOM     19  H   LIG d   1       2.177  83.622 107.419  0.00  0.00    -0.090 HD
ATOM     20  H   LIG d   1       0.830  84.298 108.026  0.00  0.00    -0.090 HD
ATOM     21  H   LIG d   1       1.041  82.676 108.118  0.00  0.00    -0.090 HD
ENDBRANCH   5  18
BRANCH   3  22
ATOM     22  C   LIG d   1       2.310  86.587 111.775  0.00  0.00     0.382 C 
ATOM     23  O   LIG d   1       3.412  87.156 111.583  0.00  0.00    -0.241 OA
ATOM     24  O   LIG d   1       1.404  87.193 112.377  0.00  0.00    -0.241 OA
ENDBRANCH   3  22
TORSDOF 7
ENDMDL
MODEL 9
REMARK VINA RESULT:      -5.3      1.964      4.448
REMARK  7 active torsions:
REMARK  status: ('A' for Active; 'I' for Inactive)
REMARK    1  A    between atoms: C_2  and  C_3 
REMARK    2  A    between atoms: C_3  and  O_6 
REMARK    3  A    between atoms: C_3  and  C_4 
REMARK    4  A    between atoms: C_7  and  O_6 
REMARK    5  A    between atoms: C_9  and  C_10 
REMARK    6  A    between atoms: N_15  and  C_14 
REMARK    7  A    between atoms: N_20  and  C_19 
REMARK       I    between atoms: C_22  and  N_20 
ROOT
ATOM      1  C   LIG d   1       0.903  81.951 110.998  0.00  0.00     0.161 C 
ATOM      2  C   LIG d   1       0.767  83.129 110.244  0.00  0.00     0.016 C 
ATOM      3  C   LIG d   1       0.018  84.248 110.676  0.00  0.00     0.038 C 
ATOM      4  C   LIG d   1      -0.526  84.322 111.968  0.00  0.00     0.028 C 
ATOM      5  C   LIG d   1      -0.842  82.957 112.571  0.00  0.00    -0.047 C 
ATOM      6  C   LIG d   1       0.409  82.056 112.456  0.00  0.00     0.091 C 
ENDROOT
BRANCH   1   7
ATOM      7  O   LIG d   1       2.272  81.504 110.964  0.00  0.00    -0.368 OA
BRANCH   7   8
ATOM      8  C   LIG d   1       2.921  81.536 109.669  0.00  0.00     0.119 C 
BRANCH   8   9
ATOM      9  C   LIG d   1       3.238  80.080 109.274  0.00  0.00     0.028 C 
ATOM     10  C   LIG d   1       1.967  79.251 109.022  0.00  0.00     0.006 C 
ENDBRANCH   8   9
BRANCH   8  11
ATOM     11  C   LIG d   1       4.279  82.241 109.742  0.00  0.00     0.028 C 
ATOM     12  C   LIG d   1       4.154  83.745 110.032  0.00  0.00     0.006 C 
ENDBRANCH   8  11
ENDBRANCH   7   8
ENDBRANCH   1   7
BRANCH   6  13
ATOM     13  N   LIG d   1       0.160  80.676 112.947  0.00  0.00    -0.311 N 
ATOM     14  C   LIG d   1      -0.987  80.026 112.758  0.00  0.00     0.210 C 
ATOM     15  C   LIG d   1      -1.042  78.620 113.363  0.00  0.00     0.109 C 
ATOM     16  O   LIG d   1      -1.954  80.469 112.119  0.00  0.00    -0.276 OA
ATOM     17  H   LIG d   1       0.902  80.229 113.449  0.00  0.00     0.149 HD
ENDBRANCH   6  13
BRANCH   5  18
ATOM     18  N   LIG d   1      -1.271  83.175 113.965  0.00  0.00     0.381 N 
ATOM     19  H   LIG d   1      -2.196  83.558 113.979  0.00  0.00    -0.090 HD
ATOM     20  H   LIG d   1      -0.650  83.837 114.397  0.00  0.00    -0.090 HD
ATOM     21  H   LIG d   1      -1.252  82.315 114.467  0.00  0.00    -0.090 HD
ENDBRANCH   5  18
BRANCH   3  22
ATOM     22  C   LIG d   1      -0.228  85.292 109.798  0.00  0.00     0.382 C 
ATOM     23  O   LIG d   1      -1.305  85.931 109.869  0.00  0.00    -0.241 OA
ATOM     24  O   LIG d   1       0.595  85.573 108.906  0.00  0.00    -0.241 OA
ENDBRANCH   3  22
TORSDOF 7
ENDMDL
