MODEL 1
REMARK VINA RESULT:      -6.4      0.000      0.000
REMARK  7 active torsions:
REMARK  status: ('A' for Active; 'I' for Inactive)
REMARK    1  A    between atoms: C_2  and  C_3 
REMARK    2  A    between atoms: C_3  and  O_6 
REMARK    3  A    between atoms: C_3  and  C_4 
REMARK    4  A    between atoms: C_7  and  O_6 
REMARK    5  A    between atoms: C_9  and  C_10 
REMARK    6  A    between atoms: N_15  and  C_14 
REMARK    7  A    between atoms: N_20  and  C_19 
REMARK       I    between atoms: C_22  and  N_20 
ROOT
ATOM      1  C   LIG d   1       1.370  81.532 111.882  0.00  0.00     0.161 C 
ATOM      2  C   LIG d   1       2.394  82.114 111.116  0.00  0.00     0.016 C 
ATOM      3  C   LIG d   1       2.518  81.935 109.719  0.00  0.00     0.038 C 
ATOM      4  C   LIG d   1       1.533  81.281 108.965  0.00  0.00     0.028 C 
ATOM      5  C   LIG d   1       0.746  80.247 109.763  0.00  0.00    -0.047 C 
ATOM      6  C   LIG d   1       0.224  80.906 111.060  0.00  0.00     0.091 C 
ENDROOT
BRANCH   1   7
ATOM      7  O   LIG d   1       0.849  82.499 112.815  0.00  0.00    -0.368 OA
BRANCH   7   8
ATOM      8  C   LIG d   1       1.130  83.888 112.517  0.00  0.00     0.119 C 
BRANCH   8   9
ATOM      9  C   LIG d   1       1.516  84.576 113.841  0.00  0.00     0.028 C 
ATOM     10  C   LIG d   1       1.054  86.042 113.897  0.00  0.00     0.006 C 
ENDBRANCH   8   9
BRANCH   8  11
ATOM     11  C   LIG d   1      -0.125  84.619 112.031  0.00  0.00     0.028 C 
ATOM     12  C   LIG d   1      -0.169  84.775 110.502  0.00  0.00     0.006 C 
ENDBRANCH   8  11
ENDBRANCH   7   8
ENDBRANCH   1   7
BRANCH   6  13
ATOM     13  N   LIG d   1      -0.486  79.942 111.940  0.00  0.00    -0.311 N 
ATOM     14  C   LIG d   1      -1.733  80.125 112.374  0.00  0.00     0.210 C 
ATOM     15  C   LIG d   1      -2.268  79.018 113.288  0.00  0.00     0.109 C 
ATOM     16  O   LIG d   1      -2.456  81.083 112.062  0.00  0.00    -0.276 OA
ATOM     17  H   LIG d   1       0.016  79.121 112.217  0.00  0.00     0.149 HD
ENDBRANCH   6  13
BRANCH   5  18
ATOM     18  N   LIG d   1      -0.335  79.742 108.896  0.00  0.00     0.381 N 
ATOM     19  H   LIG d   1      -0.763  78.942 109.317  0.00  0.00    -0.090 HD
ATOM     20  H   LIG d   1       0.059  79.462 108.015  0.00  0.00    -0.090 HD
ATOM     21  H   LIG d   1      -1.017  80.454 108.751  0.00  0.00    -0.090 HD
ENDBRANCH   5  18
BRANCH   3  22
ATOM     22  C   LIG d   1       3.659  82.380 109.068  0.00  0.00     0.382 C 
ATOM     23  O   LIG d   1       4.584  82.918 109.722  0.00  0.00    -0.241 OA
ATOM     24  O   LIG d   1       3.755  82.290 107.829  0.00  0.00    -0.241 OA
ENDBRANCH   3  22
TORSDOF 7
ENDMDL
MODEL 2
REMARK VINA RESULT:      -6.4      1.613      4.912
REMARK  7 active torsions:
REMARK  status: ('A' for Active; 'I' for Inactive)
REMARK    1  A    between atoms: C_2  and  C_3 
REMARK    2  A    between atoms: C_3  and  O_6 
REMARK    3  A    between atoms: C_3  and  C_4 
REMARK    4  A    between atoms: C_7  and  O_6 
REMARK    5  A    between atoms: C_9  and  C_10 
REMARK    6  A    between atoms: N_15  and  C_14 
REMARK    7  A    between atoms: N_20  and  C_19 
REMARK       I    between atoms: C_22  and  N_20 
ROOT
ATOM      1  C   LIG d   1       0.218  82.533 111.245  0.00  0.00     0.161 C 
ATOM      2  C   LIG d   1      -0.926  82.191 111.984  0.00  0.00     0.016 C 
ATOM      3  C   LIG d   1      -1.499  80.898 111.976  0.00  0.00     0.038 C 
ATOM      4  C   LIG d   1      -0.874  79.814 111.342  0.00  0.00     0.028 C 
ATOM      5  C   LIG d   1       0.009  80.225 110.169  0.00  0.00    -0.047 C 
ATOM      6  C   LIG d   1       0.977  81.336 110.636  0.00  0.00     0.091 C 
ENDROOT
BRANCH   1   7
ATOM      7  O   LIG d   1       1.105  83.328 112.057  0.00  0.00    -0.368 OA
BRANCH   7   8
ATOM      8  C   LIG d   1       1.018  84.763 111.880  0.00  0.00     0.119 C 
BRANCH   8   9
ATOM      9  C   LIG d   1       0.741  85.029 110.387  0.00  0.00     0.028 C 
ATOM     10  C   LIG d   1      -0.438  85.992 110.171  0.00  0.00     0.006 C 
ENDBRANCH   8   9
BRANCH   8  11
ATOM     11  C   LIG d   1       2.358  85.443 112.172  0.00  0.00     0.028 C 
ATOM     12  C   LIG d   1       3.352  85.328 111.004  0.00  0.00     0.006 C 
ENDBRANCH   8  11
ENDBRANCH   7   8
ENDBRANCH   1   7
BRANCH   6  13
ATOM     13  N   LIG d   1       1.821  81.855 109.528  0.00  0.00    -0.311 N 
ATOM     14  C   LIG d   1       3.150  81.921 109.587  0.00  0.00     0.210 C 
ATOM     15  C   LIG d   1       3.824  82.507 108.342  0.00  0.00     0.109 C 
ATOM     16  O   LIG d   1       3.836  81.521 110.539  0.00  0.00    -0.276 OA
ATOM     17  H   LIG d   1       1.348  82.172 108.704  0.00  0.00     0.149 HD
ENDBRANCH   6  13
BRANCH   5  18
ATOM     18  N   LIG d   1       0.705  79.016 109.690  0.00  0.00     0.381 N 
ATOM     19  H   LIG d   1       1.009  79.151 108.747  0.00  0.00    -0.090 HD
ATOM     20  H   LIG d   1       0.062  78.243 109.706  0.00  0.00    -0.090 HD
ATOM     21  H   LIG d   1       1.487  78.818 110.274  0.00  0.00    -0.090 HD
ENDBRANCH   5  18
BRANCH   3  22
ATOM     22  C   LIG d   1      -2.733  80.690 112.575  0.00  0.00     0.382 C 
ATOM     23  O   LIG d   1      -3.387  81.664 113.018  0.00  0.00    -0.241 OA
ATOM     24  O   LIG d   1      -3.179  79.536 112.717  0.00  0.00    -0.241 OA
ENDBRANCH   3  22
TORSDOF 7
ENDMDL
MODEL 3
REMARK VINA RESULT:      -6.2      2.958      6.041
REMARK  7 active torsions:
REMARK  status: ('A' for Active; 'I' for Inactive)
REMARK    1  A    between atoms: C_2  and  C_3 
REMARK    2  A    between atoms: C_3  and  O_6 
REMARK    3  A    between atoms: C_3  and  C_4 
REMARK    4  A    between atoms: C_7  and  O_6 
REMARK    5  A    between atoms: C_9  and  C_10 
REMARK    6  A    between atoms: N_15  and  C_14 
REMARK    7  A    between atoms: N_20  and  C_19 
REMARK       I    between atoms: C_22  and  N_20 
ROOT
ATOM      1  C   LIG d   1       2.389  83.396 111.697  0.00  0.00     0.161 C 
ATOM      2  C   LIG d   1       1.369  82.437 111.578  0.00  0.00     0.016 C 
ATOM      3  C   LIG d   1       0.010  82.707 111.862  0.00  0.00     0.038 C 
ATOM      4  C   LIG d   1      -0.446  84.004 112.142  0.00  0.00     0.028 C 
ATOM      5  C   LIG d   1       0.620  84.899 112.766  0.00  0.00    -0.047 C 
ATOM      6  C   LIG d   1       1.895  84.845 111.894  0.00  0.00     0.091 C 
ENDROOT
BRANCH   1   7
ATOM      7  O   LIG d   1       3.269  83.317 110.559  0.00  0.00    -0.368 OA
BRANCH   7   8
ATOM      8  C   LIG d   1       2.937  82.316 109.565  0.00  0.00     0.119 C 
BRANCH   8   9
ATOM      9  C   LIG d   1       4.188  81.440 109.355  0.00  0.00     0.028 C 
ATOM     10  C   LIG d   1       3.834  79.969 109.079  0.00  0.00     0.006 C 
ENDBRANCH   8   9
BRANCH   8  11
ATOM     11  C   LIG d   1       2.657  82.956 108.202  0.00  0.00     0.028 C 
ATOM     12  C   LIG d   1       1.447  83.903 108.226  0.00  0.00     0.006 C 
ENDBRANCH   8  11
ENDBRANCH   7   8
ENDBRANCH   1   7
BRANCH   6  13
ATOM     13  N   LIG d   1       3.015  85.626 112.478  0.00  0.00    -0.311 N 
ATOM     14  C   LIG d   1       3.218  86.918 112.226  0.00  0.00     0.210 C 
ATOM     15  C   LIG d   1       4.443  87.527 112.915  0.00  0.00     0.109 C 
ATOM     16  O   LIG d   1       2.481  87.626 111.523  0.00  0.00    -0.276 OA
ATOM     17  H   LIG d   1       3.644  85.138 113.086  0.00  0.00     0.149 HD
ENDBRANCH   6  13
BRANCH   5  18
ATOM     18  N   LIG d   1       0.053  86.256 112.878  0.00  0.00     0.381 N 
ATOM     19  H   LIG d   1      -0.115  86.475 113.840  0.00  0.00    -0.090 HD
ATOM     20  H   LIG d   1      -0.826  86.282 112.391  0.00  0.00    -0.090 HD
ATOM     21  H   LIG d   1       0.680  86.921 112.483  0.00  0.00    -0.090 HD
ENDBRANCH   5  18
BRANCH   3  22
ATOM     22  C   LIG d   1      -0.903  81.664 111.907  0.00  0.00     0.382 C 
ATOM     23  O   LIG d   1      -2.083  81.879 112.275  0.00  0.00    -0.241 OA
ATOM     24  O   LIG d   1      -0.549  80.503 111.627  0.00  0.00    -0.241 OA
ENDBRANCH   3  22
TORSDOF 7
ENDMDL
MODEL 4
REMARK VINA RESULT:      -5.8      2.479      5.934
REMARK  7 active torsions:
REMARK  status: ('A' for Active; 'I' for Inactive)
REMARK    1  A    between atoms: C_2  and  C_3 
REMARK    2  A    between atoms: C_3  and  O_6 
REMARK    3  A    between atoms: C_3  and  C_4 
REMARK    4  A    between atoms: C_7  and  O_6 
REMARK    5  A    between atoms: C_9  and  C_10 
REMARK    6  A    between atoms: N_15  and  C_14 
REMARK    7  A    between atoms: N_20  and  C_19 
REMARK       I    between atoms: C_22  and  N_20 
ROOT
ATOM      1  C   LIG d   1       1.381  81.528 111.038  0.00  0.00     0.161 C 
ATOM      2  C   LIG d   1       0.252  80.734 111.304  0.00  0.00     0.016 C 
ATOM      3  C   LIG d   1      -0.922  81.231 111.915  0.00  0.00     0.038 C 
ATOM      4  C   LIG d   1      -1.105  82.599 112.166  0.00  0.00     0.028 C 
ATOM      5  C   LIG d   1       0.201  83.357 112.377  0.00  0.00    -0.047 C 
ATOM      6  C   LIG d   1       1.158  83.046 111.203  0.00  0.00     0.091 C 
ENDROOT
BRANCH   1   7
ATOM      7  O   LIG d   1       1.883  81.236 109.719  0.00  0.00    -0.368 OA
BRANCH   7   8
ATOM      8  C   LIG d   1       3.019  80.338 109.654  0.00  0.00     0.119 C 
BRANCH   8   9
ATOM      9  C   LIG d   1       4.112  81.034 108.820  0.00  0.00     0.028 C 
ATOM     10  C   LIG d   1       3.626  82.356 108.202  0.00  0.00     0.006 C 
ENDBRANCH   8   9
BRANCH   8  11
ATOM     11  C   LIG d   1       2.675  79.059 108.885  0.00  0.00     0.028 C 
ATOM     12  C   LIG d   1       1.369  79.179 108.084  0.00  0.00     0.006 C 
ENDBRANCH   8  11
ENDBRANCH   7   8
ENDBRANCH   1   7
BRANCH   6  13
ATOM     13  N   LIG d   1       2.491  83.680 111.374  0.00  0.00    -0.311 N 
ATOM     14  C   LIG d   1       2.801  84.878 110.882  0.00  0.00     0.210 C 
ATOM     15  C   LIG d   1       4.236  85.338 111.156  0.00  0.00     0.109 C 
ATOM     16  O   LIG d   1       2.013  85.618 110.273  0.00  0.00    -0.276 OA
ATOM     17  H   LIG d   1       3.180  83.162 111.883  0.00  0.00     0.149 HD
ENDBRANCH   6  13
BRANCH   5  18
ATOM     18  N   LIG d   1      -0.128  84.790 112.491  0.00  0.00     0.381 N 
ATOM     19  H   LIG d   1      -0.807  84.926 113.213  0.00  0.00    -0.090 HD
ATOM     20  H   LIG d   1      -0.524  85.102 111.622  0.00  0.00    -0.090 HD
ATOM     21  H   LIG d   1       0.695  85.314 112.696  0.00  0.00    -0.090 HD
ENDBRANCH   5  18
BRANCH   3  22
ATOM     22  C   LIG d   1      -1.913  80.349 112.318  0.00  0.00     0.382 C 
ATOM     23  O   LIG d   1      -3.119  80.689 112.254  0.00  0.00    -0.241 OA
ATOM     24  O   LIG d   1      -1.614  79.235 112.787  0.00  0.00    -0.241 OA
ENDBRANCH   3  22
TORSDOF 7
ENDMDL
MODEL 5
REMARK VINA RESULT:      -4.9      2.370      5.646
REMARK  7 active torsions:
REMARK  status: ('A' for Active; 'I' for Inactive)
REMARK    1  A    between atoms: C_2  and  C_3 
REMARK    2  A    between atoms: C_3  and  O_6 
REMARK    3  A    between atoms: C_3  and  C_4 
REMARK    4  A    between atoms: C_7  and  O_6 
REMARK    5  A    between atoms: C_9  and  C_10 
REMARK    6  A    between atoms: N_15  and  C_14 
REMARK    7  A    between atoms: N_20  and  C_19 
REMARK       I    between atoms: C_22  and  N_20 
ROOT
ATOM      1  C   LIG d   1       2.082  81.992 111.567  0.00  0.00     0.161 C 
ATOM      2  C   LIG d   1       1.116  80.982 111.710  0.00  0.00     0.016 C 
ATOM      3  C   LIG d   1      -0.266  81.243 111.856  0.00  0.00     0.038 C 
ATOM      4  C   LIG d   1      -0.796  82.534 111.717  0.00  0.00     0.028 C 
ATOM      5  C   LIG d   1       0.194  83.637 112.076  0.00  0.00    -0.047 C 
ATOM      6  C   LIG d   1       1.511  83.401 111.302  0.00  0.00     0.091 C 
ENDROOT
BRANCH   1   7
ATOM      7  O   LIG d   1       3.020  81.629 110.535  0.00  0.00    -0.368 OA
BRANCH   7   8
ATOM      8  C   LIG d   1       2.535  81.721 109.173  0.00  0.00     0.119 C 
BRANCH   8   9
ATOM      9  C   LIG d   1       2.600  80.307 108.562  0.00  0.00     0.028 C 
ATOM     10  C   LIG d   1       3.779  79.485 109.110  0.00  0.00     0.006 C 
ENDBRANCH   8   9
BRANCH   8  11
ATOM     11  C   LIG d   1       3.462  82.580 108.308  0.00  0.00     0.028 C 
ATOM     12  C   LIG d   1       4.684  83.100 109.080  0.00  0.00     0.006 C 
ENDBRANCH   8  11
ENDBRANCH   7   8
ENDBRANCH   1   7
BRANCH   6  13
ATOM     13  N   LIG d   1       2.563  84.387 111.659  0.00  0.00    -0.311 N 
ATOM     14  C   LIG d   1       3.052  84.525 112.890  0.00  0.00     0.210 C 
ATOM     15  C   LIG d   1       4.117  85.615 113.045  0.00  0.00     0.109 C 
ATOM     16  O   LIG d   1       2.728  83.825 113.862  0.00  0.00    -0.276 OA
ATOM     17  H   LIG d   1       2.906  84.975 110.924  0.00  0.00     0.149 HD
ENDBRANCH   6  13
BRANCH   5  18
ATOM     18  N   LIG d   1      -0.442  84.928 111.754  0.00  0.00     0.381 N 
ATOM     19  H   LIG d   1      -1.136  84.797 111.046  0.00  0.00    -0.090 HD
ATOM     20  H   LIG d   1       0.258  85.556 111.398  0.00  0.00    -0.090 HD
ATOM     21  H   LIG d   1      -0.860  85.315 112.572  0.00  0.00    -0.090 HD
ENDBRANCH   5  18
BRANCH   3  22
ATOM     22  C   LIG d   1      -1.129  80.208 112.185  0.00  0.00     0.382 C 
ATOM     23  O   LIG d   1      -1.294  79.887 113.386  0.00  0.00    -0.241 OA
ATOM     24  O   LIG d   1      -1.711  79.563 111.292  0.00  0.00    -0.241 OA
ENDBRANCH   3  22
TORSDOF 7
ENDMDL
MODEL 6
REMARK VINA RESULT:      -3.9     25.005     27.509
REMARK  7 active torsions:
REMARK  status: ('A' for Active; 'I' for Inactive)
REMARK    1  A    between atoms: C_2  and  C_3 
REMARK    2  A    between atoms: C_3  and  O_6 
REMARK    3  A    between atoms: C_3  and  C_4 
REMARK    4  A    between atoms: C_7  and  O_6 
REMARK    5  A    between atoms: C_9  and  C_10 
REMARK    6  A    between atoms: N_15  and  C_14 
REMARK    7  A    between atoms: N_20  and  C_19 
REMARK       I    between atoms: C_22  and  N_20 
ROOT
ATOM      1  C   LIG d   1     -26.550  85.063 113.796  0.00  0.00     0.161 C 
ATOM      2  C   LIG d   1     -25.291  85.668 113.949  0.00  0.00     0.016 C 
ATOM      3  C   LIG d   1     -24.089  85.094 113.475  0.00  0.00     0.038 C 
ATOM      4  C   LIG d   1     -24.082  83.939 112.679  0.00  0.00     0.028 C 
ATOM      5  C   LIG d   1     -25.277  83.025 112.928  0.00  0.00    -0.047 C 
ATOM      6  C   LIG d   1     -26.575  83.858 112.833  0.00  0.00     0.091 C 
ENDROOT
BRANCH   1   7
ATOM      7  O   LIG d   1     -27.520  86.049 113.391  0.00  0.00    -0.368 OA
BRANCH   7   8
ATOM      8  C   LIG d   1     -27.273  86.703 112.123  0.00  0.00     0.119 C 
BRANCH   8   9
ATOM      9  C   LIG d   1     -27.282  88.223 112.376  0.00  0.00     0.028 C 
ATOM     10  C   LIG d   1     -26.728  89.021 111.184  0.00  0.00     0.006 C 
ENDBRANCH   8   9
BRANCH   8  11
ATOM     11  C   LIG d   1     -28.414  86.451 111.133  0.00  0.00     0.028 C 
ATOM     12  C   LIG d   1     -29.724  86.042 111.826  0.00  0.00     0.006 C 
ENDBRANCH   8  11
ENDBRANCH   7   8
ENDBRANCH   1   7
BRANCH   6  13
ATOM     13  N   LIG d   1     -27.787  83.057 113.146  0.00  0.00    -0.311 N 
ATOM     14  C   LIG d   1     -28.555  82.493 112.215  0.00  0.00     0.210 C 
ATOM     15  C   LIG d   1     -29.768  81.727 112.753  0.00  0.00     0.109 C 
ATOM     16  O   LIG d   1     -28.329  82.528 110.996  0.00  0.00    -0.276 OA
ATOM     17  H   LIG d   1     -28.027  82.952 114.113  0.00  0.00     0.149 HD
ENDBRANCH   6  13
BRANCH   5  18
ATOM     18  N   LIG d   1     -25.217  81.933 111.937  0.00  0.00     0.381 N 
ATOM     19  H   LIG d   1     -24.855  81.105 112.367  0.00  0.00    -0.090 HD
ATOM     20  H   LIG d   1     -24.594  82.201 111.196  0.00  0.00    -0.090 HD
ATOM     21  H   LIG d   1     -26.125  81.756 111.570  0.00  0.00    -0.090 HD
ENDBRANCH   5  18
BRANCH   3  22
ATOM     22  C   LIG d   1     -22.872  85.655 113.833  0.00  0.00     0.382 C 
ATOM     23  O   LIG d   1     -22.843  86.693 114.536  0.00  0.00    -0.241 OA
ATOM     24  O   LIG d   1     -21.805  85.161 113.424  0.00  0.00    -0.241 OA
ENDBRANCH   3  22
TORSDOF 7
ENDMDL
MODEL 7
REMARK VINA RESULT:      -3.8     26.763     30.649
REMARK  7 active torsions:
REMARK  status: ('A' for Active; 'I' for Inactive)
REMARK    1  A    between atoms: C_2  and  C_3 
REMARK    2  A    between atoms: C_3  and  O_6 
REMARK    3  A    between atoms: C_3  and  C_4 
REMARK    4  A    between atoms: C_7  and  O_6 
REMARK    5  A    between atoms: C_9  and  C_10 
REMARK    6  A    between atoms: N_15  and  C_14 
REMARK    7  A    between atoms: N_20  and  C_19 
REMARK       I    between atoms: C_22  and  N_20 
ROOT
ATOM      1  C   LIG d   1     -14.747  57.004 111.502  0.00  0.00     0.161 C 
ATOM      2  C   LIG d   1     -15.694  56.154 110.909  0.00  0.00     0.016 C 
ATOM      3  C   LIG d   1     -15.348  55.036 110.116  0.00  0.00     0.038 C 
ATOM      4  C   LIG d   1     -14.021  54.601 109.987  0.00  0.00     0.028 C 
ATOM      5  C   LIG d   1     -12.998  55.720 110.153  0.00  0.00    -0.047 C 
ATOM      6  C   LIG d   1     -13.295  56.481 111.465  0.00  0.00     0.091 C 
ENDROOT
BRANCH   1   7
ATOM      7  O   LIG d   1     -15.137  57.301 112.858  0.00  0.00    -0.368 OA
BRANCH   7   8
ATOM      8  C   LIG d   1     -15.948  56.299 113.521  0.00  0.00     0.119 C 
BRANCH   8   9
ATOM      9  C   LIG d   1     -17.029  57.041 114.330  0.00  0.00     0.028 C 
ATOM     10  C   LIG d   1     -18.448  56.539 114.012  0.00  0.00     0.006 C 
ENDBRANCH   8   9
BRANCH   8  11
ATOM     11  C   LIG d   1     -15.132  55.518 114.555  0.00  0.00     0.028 C 
ATOM     12  C   LIG d   1     -14.718  54.124 114.057  0.00  0.00     0.006 C 
ENDBRANCH   8  11
ENDBRANCH   7   8
ENDBRANCH   1   7
BRANCH   6  13
ATOM     13  N   LIG d   1     -12.393  57.645 111.662  0.00  0.00    -0.311 N 
ATOM     14  C   LIG d   1     -11.208  57.560 112.264  0.00  0.00     0.210 C 
ATOM     15  C   LIG d   1     -10.445  58.883 112.381  0.00  0.00     0.109 C 
ATOM     16  O   LIG d   1     -10.701  56.508 112.683  0.00  0.00    -0.276 OA
ATOM     17  H   LIG d   1     -12.711  58.532 111.324  0.00  0.00     0.149 HD
ENDBRANCH   6  13
BRANCH   5  18
ATOM     18  N   LIG d   1     -11.657  55.105 110.133  0.00  0.00     0.381 N 
ATOM     19  H   LIG d   1     -10.957  55.817 110.185  0.00  0.00    -0.090 HD
ATOM     20  H   LIG d   1     -11.540  54.610 109.266  0.00  0.00    -0.090 HD
ATOM     21  H   LIG d   1     -11.559  54.475 110.899  0.00  0.00    -0.090 HD
ENDBRANCH   5  18
BRANCH   3  22
ATOM     22  C   LIG d   1     -16.333  54.363 109.409  0.00  0.00     0.382 C 
ATOM     23  O   LIG d   1     -17.509  54.333 109.846  0.00  0.00    -0.241 OA
ATOM     24  O   LIG d   1     -16.052  53.749 108.362  0.00  0.00    -0.241 OA
ENDBRANCH   3  22
TORSDOF 7
ENDMDL
MODEL 8
REMARK VINA RESULT:      -3.8     26.894     28.521
REMARK  7 active torsions:
REMARK  status: ('A' for Active; 'I' for Inactive)
REMARK    1  A    between atoms: C_2  and  C_3 
REMARK    2  A    between atoms: C_3  and  O_6 
REMARK    3  A    between atoms: C_3  and  C_4 
REMARK    4  A    between atoms: C_7  and  O_6 
REMARK    5  A    between atoms: C_9  and  C_10 
REMARK    6  A    between atoms: N_15  and  C_14 
REMARK    7  A    between atoms: N_20  and  C_19 
REMARK       I    between atoms: C_22  and  N_20 
ROOT
ATOM      1  C   LIG d   1     -21.506  64.110 110.019  0.00  0.00     0.161 C 
ATOM      2  C   LIG d   1     -20.457  63.375 109.442  0.00  0.00     0.016 C 
ATOM      3  C   LIG d   1     -20.101  63.467 108.077  0.00  0.00     0.038 C 
ATOM      4  C   LIG d   1     -20.677  64.420 107.224  0.00  0.00     0.028 C 
ATOM      5  C   LIG d   1     -22.086  64.830 107.638  0.00  0.00    -0.047 C 
ATOM      6  C   LIG d   1     -22.073  65.235 109.130  0.00  0.00     0.091 C 
ENDROOT
BRANCH   1   7
ATOM      7  O   LIG d   1     -21.088  64.640 111.293  0.00  0.00    -0.368 OA
BRANCH   7   8
ATOM      8  C   LIG d   1     -21.115  63.715 112.408  0.00  0.00     0.119 C 
BRANCH   8   9
ATOM      9  C   LIG d   1     -22.283  64.129 113.325  0.00  0.00     0.028 C 
ATOM     10  C   LIG d   1     -22.463  65.655 113.393  0.00  0.00     0.006 C 
ENDBRANCH   8   9
BRANCH   8  11
ATOM     11  C   LIG d   1     -19.857  63.846 113.271  0.00  0.00     0.028 C 
ATOM     12  C   LIG d   1     -18.916  64.961 112.787  0.00  0.00     0.006 C 
ENDBRANCH   8  11
ENDBRANCH   7   8
ENDBRANCH   1   7
BRANCH   6  13
ATOM     13  N   LIG d   1     -23.429  65.571 109.638  0.00  0.00    -0.311 N 
ATOM     14  C   LIG d   1     -23.740  66.750 110.173  0.00  0.00     0.210 C 
ATOM     15  C   LIG d   1     -25.189  66.881 110.652  0.00  0.00     0.109 C 
ATOM     16  O   LIG d   1     -22.962  67.712 110.266  0.00  0.00    -0.276 OA
ATOM     17  H   LIG d   1     -24.129  64.859 109.572  0.00  0.00     0.149 HD
ENDBRANCH   6  13
BRANCH   5  18
ATOM     18  N   LIG d   1     -22.512  65.925 106.745  0.00  0.00     0.381 N 
ATOM     19  H   LIG d   1     -22.471  65.621 105.793  0.00  0.00    -0.090 HD
ATOM     20  H   LIG d   1     -21.881  66.699 106.857  0.00  0.00    -0.090 HD
ATOM     21  H   LIG d   1     -23.440  66.208 106.971  0.00  0.00    -0.090 HD
ENDBRANCH   5  18
BRANCH   3  22
ATOM     22  C   LIG d   1     -19.186  62.572 107.543  0.00  0.00     0.382 C 
ATOM     23  O   LIG d   1     -19.115  61.404 107.995  0.00  0.00    -0.241 OA
ATOM     24  O   LIG d   1     -18.401  62.932 106.646  0.00  0.00    -0.241 OA
ENDBRANCH   3  22
TORSDOF 7
ENDMDL
MODEL 9
REMARK VINA RESULT:      -3.8     27.894     28.954
REMARK  7 active torsions:
REMARK  status: ('A' for Active; 'I' for Inactive)
REMARK    1  A    between atoms: C_2  and  C_3 
REMARK    2  A    between atoms: C_3  and  O_6 
REMARK    3  A    between atoms: C_3  and  C_4 
REMARK    4  A    between atoms: C_7  and  O_6 
REMARK    5  A    between atoms: C_9  and  C_10 
REMARK    6  A    between atoms: N_15  and  C_14 
REMARK    7  A    between atoms: N_20  and  C_19 
REMARK       I    between atoms: C_22  and  N_20 
ROOT
ATOM      1  C   LIG d   1     -21.780  64.195 109.206  0.00  0.00     0.161 C 
ATOM      2  C   LIG d   1     -20.759  63.321 108.797  0.00  0.00     0.016 C 
ATOM      3  C   LIG d   1     -20.143  63.384 107.526  0.00  0.00     0.038 C 
ATOM      4  C   LIG d   1     -20.404  64.429 106.627  0.00  0.00     0.028 C 
ATOM      5  C   LIG d   1     -21.791  65.041 106.795  0.00  0.00    -0.047 C 
ATOM      6  C   LIG d   1     -22.000  65.411 108.281  0.00  0.00     0.091 C 
ENDROOT
BRANCH   1   7
ATOM      7  O   LIG d   1     -21.536  64.632 110.558  0.00  0.00    -0.368 OA
BRANCH   7   8
ATOM      8  C   LIG d   1     -22.267  63.933 111.595  0.00  0.00     0.119 C 
BRANCH   8   9
ATOM      9  C   LIG d   1     -23.598  63.456 110.982  0.00  0.00     0.028 C 
ATOM     10  C   LIG d   1     -24.818  64.139 111.622  0.00  0.00     0.006 C 
ENDBRANCH   8   9
BRANCH   8  11
ATOM     11  C   LIG d   1     -22.662  64.879 112.733  0.00  0.00     0.028 C 
ATOM     12  C   LIG d   1     -21.595  65.948 113.016  0.00  0.00     0.006 C 
ENDBRANCH   8  11
ENDBRANCH   7   8
ENDBRANCH   1   7
BRANCH   6  13
ATOM     13  N   LIG d   1     -23.363  65.938 108.548  0.00  0.00    -0.311 N 
ATOM     14  C   LIG d   1     -23.612  66.926 109.405  0.00  0.00     0.210 C 
ATOM     15  C   LIG d   1     -25.090  67.303 109.546  0.00  0.00     0.109 C 
ATOM     16  O   LIG d   1     -22.746  67.548 110.039  0.00  0.00    -0.276 OA
ATOM     17  H   LIG d   1     -24.122  65.512 108.053  0.00  0.00     0.149 HD
ENDBRANCH   6  13
BRANCH   5  18
ATOM     18  N   LIG d   1     -21.878  66.204 105.892  0.00  0.00     0.381 N 
ATOM     19  H   LIG d   1     -21.886  67.049 106.427  0.00  0.00    -0.090 HD
ATOM     20  H   LIG d   1     -22.737  66.150 105.374  0.00  0.00    -0.090 HD
ATOM     21  H   LIG d   1     -21.104  66.207 105.265  0.00  0.00    -0.090 HD
ENDBRANCH   5  18
BRANCH   3  22
ATOM     22  C   LIG d   1     -19.285  62.371 107.127  0.00  0.00     0.382 C 
ATOM     23  O   LIG d   1     -19.004  61.440 107.919  0.00  0.00    -0.241 OA
ATOM     24  O   LIG d   1     -18.752  62.401 106.001  0.00  0.00    -0.241 OA
ENDBRANCH   3  22
TORSDOF 7
ENDMDL
