MODEL 1
REMARK VINA RESULT:      -6.4      0.000      0.000
REMARK  7 active torsions:
REMARK  status: ('A' for Active; 'I' for Inactive)
REMARK    1  A    between atoms: C_2  and  C_3 
REMARK    2  A    between atoms: C_3  and  O_6 
REMARK    3  A    between atoms: C_3  and  C_4 
REMARK    4  A    between atoms: C_7  and  O_6 
REMARK    5  A    between atoms: C_9  and  C_10 
REMARK    6  A    between atoms: N_15  and  C_14 
REMARK    7  A    between atoms: N_20  and  C_19 
REMARK       I    between atoms: C_22  and  N_20 
ROOT
ATOM      1  C   LIG d   1       1.693  82.816 110.902  0.00  0.00     0.161 C 
ATOM      2  C   LIG d   1       2.563  81.725 110.743  0.00  0.00     0.016 C 
ATOM      3  C   LIG d   1       3.115  81.345 109.498  0.00  0.00     0.038 C 
ATOM      4  C   LIG d   1       2.952  82.128 108.345  0.00  0.00     0.028 C 
ATOM      5  C   LIG d   1       1.671  82.955 108.351  0.00  0.00    -0.047 C 
ATOM      6  C   LIG d   1       1.591  83.747 109.676  0.00  0.00     0.091 C 
ENDROOT
BRANCH   1   7
ATOM      7  O   LIG d   1       2.063  83.569 112.074  0.00  0.00    -0.368 OA
BRANCH   7   8
ATOM      8  C   LIG d   1       3.470  83.885 112.211  0.00  0.00     0.119 C 
BRANCH   8   9
ATOM      9  C   LIG d   1       3.969  83.224 113.510  0.00  0.00     0.028 C 
ATOM     10  C   LIG d   1       5.132  82.249 113.264  0.00  0.00     0.006 C 
ENDBRANCH   8   9
BRANCH   8  11
ATOM     11  C   LIG d   1       3.687  85.388 112.411  0.00  0.00     0.028 C 
ATOM     12  C   LIG d   1       4.504  86.029 111.278  0.00  0.00     0.006 C 
ENDBRANCH   8  11
ENDBRANCH   7   8
ENDBRANCH   1   7
BRANCH   6  13
ATOM     13  N   LIG d   1       0.327  84.519 109.800  0.00  0.00    -0.311 N 
ATOM     14  C   LIG d   1       0.288  85.830 110.031  0.00  0.00     0.210 C 
ATOM     15  C   LIG d   1      -1.119  86.425 110.144  0.00  0.00     0.109 C 
ATOM     16  O   LIG d   1       1.285  86.562 110.122  0.00  0.00    -0.276 OA
ATOM     17  H   LIG d   1      -0.529  84.009 109.709  0.00  0.00     0.149 HD
ENDBRANCH   6  13
BRANCH   5  18
ATOM     18  N   LIG d   1       1.696  83.824 107.159  0.00  0.00     0.381 N 
ATOM     19  H   LIG d   1       2.336  84.579 107.303  0.00  0.00    -0.090 HD
ATOM     20  H   LIG d   1       0.779  84.210 107.019  0.00  0.00    -0.090 HD
ATOM     21  H   LIG d   1       1.968  83.297 106.359  0.00  0.00    -0.090 HD
ENDBRANCH   5  18
BRANCH   3  22
ATOM     22  C   LIG d   1       3.807  80.149 109.389  0.00  0.00     0.382 C 
ATOM     23  O   LIG d   1       3.181  79.076 109.218  0.00  0.00    -0.241 OA
ATOM     24  O   LIG d   1       5.047  80.124 109.505  0.00  0.00    -0.241 OA
ENDBRANCH   3  22
TORSDOF 7
ENDMDL
MODEL 2
REMARK VINA RESULT:      -6.4      3.002      4.076
REMARK  7 active torsions:
REMARK  status: ('A' for Active; 'I' for Inactive)
REMARK    1  A    between atoms: C_2  and  C_3 
REMARK    2  A    between atoms: C_3  and  O_6 
REMARK    3  A    between atoms: C_3  and  C_4 
REMARK    4  A    between atoms: C_7  and  O_6 
REMARK    5  A    between atoms: C_9  and  C_10 
REMARK    6  A    between atoms: N_15  and  C_14 
REMARK    7  A    between atoms: N_20  and  C_19 
REMARK       I    between atoms: C_22  and  N_20 
ROOT
ATOM      1  C   LIG d   1       1.455  81.604 111.693  0.00  0.00     0.161 C 
ATOM      2  C   LIG d   1       2.558  82.295 111.165  0.00  0.00     0.016 C 
ATOM      3  C   LIG d   1       2.832  82.382 109.780  0.00  0.00     0.038 C 
ATOM      4  C   LIG d   1       1.931  81.908 108.815  0.00  0.00     0.028 C 
ATOM      5  C   LIG d   1       1.058  80.762 109.313  0.00  0.00    -0.047 C 
ATOM      6  C   LIG d   1       0.401  81.175 110.650  0.00  0.00     0.091 C 
ENDROOT
BRANCH   1   7
ATOM      7  O   LIG d   1       0.840  82.388 112.734  0.00  0.00    -0.368 OA
BRANCH   7   8
ATOM      8  C   LIG d   1       0.963  83.826 112.605  0.00  0.00     0.119 C 
BRANCH   8   9
ATOM      9  C   LIG d   1       1.290  84.389 114.002  0.00  0.00     0.028 C 
ATOM     10  C   LIG d   1       0.962  85.887 114.123  0.00  0.00     0.006 C 
ENDBRANCH   8   9
BRANCH   8  11
ATOM     11  C   LIG d   1      -0.372  84.467 112.212  0.00  0.00     0.028 C 
ATOM     12  C   LIG d   1      -0.436  84.842 110.723  0.00  0.00     0.006 C 
ENDBRANCH   8  11
ENDBRANCH   7   8
ENDBRANCH   1   7
BRANCH   6  13
ATOM     13  N   LIG d   1      -0.404  80.079 111.249  0.00  0.00    -0.311 N 
ATOM     14  C   LIG d   1      -1.590  80.271 111.824  0.00  0.00     0.210 C 
ATOM     15  C   LIG d   1      -2.243  79.008 112.396  0.00  0.00     0.109 C 
ATOM     16  O   LIG d   1      -2.179  81.360 111.885  0.00  0.00    -0.276 OA
ATOM     17  H   LIG d   1      -0.015  79.157 111.216  0.00  0.00     0.149 HD
ENDBRANCH   6  13
BRANCH   5  18
ATOM     18  N   LIG d   1       0.075  80.459 108.256  0.00  0.00     0.381 N 
ATOM     19  H   LIG d   1      -0.348  79.569 108.431  0.00  0.00    -0.090 HD
ATOM     20  H   LIG d   1       0.551  80.413 107.372  0.00  0.00    -0.090 HD
ATOM     21  H   LIG d   1      -0.625  81.167 108.228  0.00  0.00    -0.090 HD
ENDBRANCH   5  18
BRANCH   3  22
ATOM     22  C   LIG d   1       4.038  82.914 109.350  0.00  0.00     0.382 C 
ATOM     23  O   LIG d   1       4.410  84.039 109.763  0.00  0.00    -0.241 OA
ATOM     24  O   LIG d   1       4.739  82.303 108.521  0.00  0.00    -0.241 OA
ENDBRANCH   3  22
TORSDOF 7
ENDMDL
MODEL 3
REMARK VINA RESULT:      -6.4      2.616      4.494
REMARK  7 active torsions:
REMARK  status: ('A' for Active; 'I' for Inactive)
REMARK    1  A    between atoms: C_2  and  C_3 
REMARK    2  A    between atoms: C_3  and  O_6 
REMARK    3  A    between atoms: C_3  and  C_4 
REMARK    4  A    between atoms: C_7  and  O_6 
REMARK    5  A    between atoms: C_9  and  C_10 
REMARK    6  A    between atoms: N_15  and  C_14 
REMARK    7  A    between atoms: N_20  and  C_19 
REMARK       I    between atoms: C_22  and  N_20 
ROOT
ATOM      1  C   LIG d   1       2.125  83.513 111.190  0.00  0.00     0.161 C 
ATOM      2  C   LIG d   1       1.063  82.597 111.111  0.00  0.00     0.016 C 
ATOM      3  C   LIG d   1      -0.227  82.853 111.630  0.00  0.00     0.038 C 
ATOM      4  C   LIG d   1      -0.587  84.112 112.133  0.00  0.00     0.028 C 
ATOM      5  C   LIG d   1       0.592  84.900 112.692  0.00  0.00    -0.047 C 
ATOM      6  C   LIG d   1       1.720  84.934 111.636  0.00  0.00     0.091 C 
ENDROOT
BRANCH   1   7
ATOM      7  O   LIG d   1       2.822  83.563 109.930  0.00  0.00    -0.368 OA
BRANCH   7   8
ATOM      8  C   LIG d   1       4.186  83.074 109.936  0.00  0.00     0.119 C 
BRANCH   8   9
ATOM      9  C   LIG d   1       4.408  82.304 108.620  0.00  0.00     0.028 C 
ATOM     10  C   LIG d   1       3.610  80.989 108.568  0.00  0.00     0.006 C 
ENDBRANCH   8   9
BRANCH   8  11
ATOM     11  C   LIG d   1       4.404  82.045 111.050  0.00  0.00     0.028 C 
ATOM     12  C   LIG d   1       5.267  82.587 112.200  0.00  0.00     0.006 C 
ENDBRANCH   8  11
ENDBRANCH   7   8
ENDBRANCH   1   7
BRANCH   6  13
ATOM     13  N   LIG d   1       2.944  85.614 112.134  0.00  0.00    -0.311 N 
ATOM     14  C   LIG d   1       3.224  86.893 111.887  0.00  0.00     0.210 C 
ATOM     15  C   LIG d   1       4.547  87.391 112.478  0.00  0.00     0.109 C 
ATOM     16  O   LIG d   1       2.488  87.670 111.262  0.00  0.00    -0.276 OA
ATOM     17  H   LIG d   1       3.582  85.066 112.677  0.00  0.00     0.149 HD
ENDBRANCH   6  13
BRANCH   5  18
ATOM     18  N   LIG d   1       0.099  86.242 113.055  0.00  0.00     0.381 N 
ATOM     19  H   LIG d   1       0.741  86.681 113.685  0.00  0.00    -0.090 HD
ATOM     20  H   LIG d   1      -0.786  86.149 113.521  0.00  0.00    -0.090 HD
ATOM     21  H   LIG d   1      -0.006  86.800 112.236  0.00  0.00    -0.090 HD
ENDBRANCH   5  18
BRANCH   3  22
ATOM     22  C   LIG d   1      -1.161  81.830 111.685  0.00  0.00     0.382 C 
ATOM     23  O   LIG d   1      -0.840  80.668 111.337  0.00  0.00    -0.241 OA
ATOM     24  O   LIG d   1      -2.333  82.063 112.036  0.00  0.00    -0.241 OA
ENDBRANCH   3  22
TORSDOF 7
ENDMDL
MODEL 4
REMARK VINA RESULT:      -6.0      2.919      6.091
REMARK  7 active torsions:
REMARK  status: ('A' for Active; 'I' for Inactive)
REMARK    1  A    between atoms: C_2  and  C_3 
REMARK    2  A    between atoms: C_3  and  O_6 
REMARK    3  A    between atoms: C_3  and  C_4 
REMARK    4  A    between atoms: C_7  and  O_6 
REMARK    5  A    between atoms: C_9  and  C_10 
REMARK    6  A    between atoms: N_15  and  C_14 
REMARK    7  A    between atoms: N_20  and  C_19 
REMARK       I    between atoms: C_22  and  N_20 
ROOT
ATOM      1  C   LIG d   1       0.576  82.551 111.173  0.00  0.00     0.161 C 
ATOM      2  C   LIG d   1      -0.315  83.552 111.593  0.00  0.00     0.016 C 
ATOM      3  C   LIG d   1      -0.027  84.934 111.516  0.00  0.00     0.038 C 
ATOM      4  C   LIG d   1       1.121  85.417 110.869  0.00  0.00     0.028 C 
ATOM      5  C   LIG d   1       2.284  84.430 110.882  0.00  0.00    -0.047 C 
ATOM      6  C   LIG d   1       1.786  83.062 110.363  0.00  0.00     0.091 C 
ENDROOT
BRANCH   1   7
ATOM      7  O   LIG d   1      -0.136  81.543 110.429  0.00  0.00    -0.368 OA
BRANCH   7   8
ATOM      8  C   LIG d   1      -0.095  80.201 110.973  0.00  0.00     0.119 C 
BRANCH   8   9
ATOM      9  C   LIG d   1       0.105  79.230 109.794  0.00  0.00     0.028 C 
ATOM     10  C   LIG d   1       0.465  79.958 108.488  0.00  0.00     0.006 C 
ENDBRANCH   8   9
BRANCH   8  11
ATOM     11  C   LIG d   1      -1.439  79.812 111.596  0.00  0.00     0.028 C 
ATOM     12  C   LIG d   1      -1.909  78.411 111.172  0.00  0.00     0.006 C 
ENDBRANCH   8  11
ENDBRANCH   7   8
ENDBRANCH   1   7
BRANCH   6  13
ATOM     13  N   LIG d   1       2.841  82.016 110.422  0.00  0.00    -0.311 N 
ATOM     14  C   LIG d   1       3.606  81.687 109.383  0.00  0.00     0.210 C 
ATOM     15  C   LIG d   1       4.618  80.569 109.654  0.00  0.00     0.109 C 
ATOM     16  O   LIG d   1       3.566  82.237 108.273  0.00  0.00    -0.276 OA
ATOM     17  H   LIG d   1       2.963  81.540 111.295  0.00  0.00     0.149 HD
ENDBRANCH   6  13
BRANCH   5  18
ATOM     18  N   LIG d   1       3.364  85.004 110.058  0.00  0.00     0.381 N 
ATOM     19  H   LIG d   1       3.108  84.968 109.091  0.00  0.00    -0.090 HD
ATOM     20  H   LIG d   1       4.196  84.454 110.184  0.00  0.00    -0.090 HD
ATOM     21  H   LIG d   1       3.536  85.947 110.329  0.00  0.00    -0.090 HD
ENDBRANCH   5  18
BRANCH   3  22
ATOM     22  C   LIG d   1      -0.873  85.848 112.125  0.00  0.00     0.382 C 
ATOM     23  O   LIG d   1      -1.492  86.690 111.430  0.00  0.00    -0.241 OA
ATOM     24  O   LIG d   1      -0.990  85.871 113.365  0.00  0.00    -0.241 OA
ENDBRANCH   3  22
TORSDOF 7
ENDMDL
MODEL 5
REMARK VINA RESULT:      -5.7      3.249      4.643
REMARK  7 active torsions:
REMARK  status: ('A' for Active; 'I' for Inactive)
REMARK    1  A    between atoms: C_2  and  C_3 
REMARK    2  A    between atoms: C_3  and  O_6 
REMARK    3  A    between atoms: C_3  and  C_4 
REMARK    4  A    between atoms: C_7  and  O_6 
REMARK    5  A    between atoms: C_9  and  C_10 
REMARK    6  A    between atoms: N_15  and  C_14 
REMARK    7  A    between atoms: N_20  and  C_19 
REMARK       I    between atoms: C_22  and  N_20 
ROOT
ATOM      1  C   LIG d   1       0.900  81.509 111.196  0.00  0.00     0.161 C 
ATOM      2  C   LIG d   1      -0.227  80.866 111.733  0.00  0.00     0.016 C 
ATOM      3  C   LIG d   1      -0.801  79.702 111.171  0.00  0.00     0.038 C 
ATOM      4  C   LIG d   1      -0.190  79.011 110.113  0.00  0.00     0.028 C 
ATOM      5  C   LIG d   1       0.667  79.904 109.222  0.00  0.00    -0.047 C 
ATOM      6  C   LIG d   1       1.645  80.707 110.108  0.00  0.00     0.091 C 
ENDROOT
BRANCH   1   7
ATOM      7  O   LIG d   1       1.805  81.875 112.257  0.00  0.00    -0.368 OA
BRANCH   7   8
ATOM      8  C   LIG d   1       2.102  83.288 112.382  0.00  0.00     0.119 C 
BRANCH   8   9
ATOM      9  C   LIG d   1       3.635  83.441 112.375  0.00  0.00     0.028 C 
ATOM     10  C   LIG d   1       4.116  84.481 111.349  0.00  0.00     0.006 C 
ENDBRANCH   8   9
BRANCH   8  11
ATOM     11  C   LIG d   1       1.645  83.834 113.738  0.00  0.00     0.028 C 
ATOM     12  C   LIG d   1       1.041  85.244 113.639  0.00  0.00     0.006 C 
ENDBRANCH   8  11
ENDBRANCH   7   8
ENDBRANCH   1   7
BRANCH   6  13
ATOM     13  N   LIG d   1       2.464  81.668 109.323  0.00  0.00    -0.311 N 
ATOM     14  C   LIG d   1       3.723  81.432 108.960  0.00  0.00     0.210 C 
ATOM     15  C   LIG d   1       4.391  82.563 108.172  0.00  0.00     0.109 C 
ATOM     16  O   LIG d   1       4.340  80.381 109.188  0.00  0.00    -0.276 OA
ATOM     17  H   LIG d   1       2.031  82.534 109.068  0.00  0.00     0.149 HD
ENDBRANCH   6  13
BRANCH   5  18
ATOM     18  N   LIG d   1       1.351  79.034 108.246  0.00  0.00     0.381 N 
ATOM     19  H   LIG d   1       2.341  79.160 108.316  0.00  0.00    -0.090 HD
ATOM     20  H   LIG d   1       1.064  79.296 107.320  0.00  0.00    -0.090 HD
ATOM     21  H   LIG d   1       1.117  78.081 108.417  0.00  0.00    -0.090 HD
ENDBRANCH   5  18
BRANCH   3  22
ATOM     22  C   LIG d   1      -2.020  79.240 111.642  0.00  0.00     0.382 C 
ATOM     23  O   LIG d   1      -2.523  78.196 111.162  0.00  0.00    -0.241 OA
ATOM     24  O   LIG d   1      -2.644  79.879 112.511  0.00  0.00    -0.241 OA
ENDBRANCH   3  22
TORSDOF 7
ENDMDL
MODEL 6
REMARK VINA RESULT:      -4.8      2.988      5.951
REMARK  7 active torsions:
REMARK  status: ('A' for Active; 'I' for Inactive)
REMARK    1  A    between atoms: C_2  and  C_3 
REMARK    2  A    between atoms: C_3  and  O_6 
REMARK    3  A    between atoms: C_3  and  C_4 
REMARK    4  A    between atoms: C_7  and  O_6 
REMARK    5  A    between atoms: C_9  and  C_10 
REMARK    6  A    between atoms: N_15  and  C_14 
REMARK    7  A    between atoms: N_20  and  C_19 
REMARK       I    between atoms: C_22  and  N_20 
ROOT
ATOM      1  C   LIG d   1       1.101  81.961 111.654  0.00  0.00     0.161 C 
ATOM      2  C   LIG d   1       0.483  83.067 112.261  0.00  0.00     0.016 C 
ATOM      3  C   LIG d   1       0.214  84.278 111.582  0.00  0.00     0.038 C 
ATOM      4  C   LIG d   1       0.410  84.412 110.200  0.00  0.00     0.028 C 
ATOM      5  C   LIG d   1       1.498  83.496 109.650  0.00  0.00    -0.047 C 
ATOM      6  C   LIG d   1       1.220  82.050 110.118  0.00  0.00     0.091 C 
ENDROOT
BRANCH   1   7
ATOM      7  O   LIG d   1       0.418  80.750 112.034  0.00  0.00    -0.368 OA
BRANCH   7   8
ATOM      8  C   LIG d   1      -0.717  80.374 111.216  0.00  0.00     0.119 C 
BRANCH   8   9
ATOM      9  C   LIG d   1      -1.894  80.077 112.166  0.00  0.00     0.028 C 
ATOM     10  C   LIG d   1      -2.887  81.248 112.255  0.00  0.00     0.006 C 
ENDBRANCH   8   9
BRANCH   8  11
ATOM     11  C   LIG d   1      -0.456  79.062 110.470  0.00  0.00     0.028 C 
ATOM     12  C   LIG d   1      -1.411  77.935 110.895  0.00  0.00     0.006 C 
ENDBRANCH   8  11
ENDBRANCH   7   8
ENDBRANCH   1   7
BRANCH   6  13
ATOM     13  N   LIG d   1       2.283  81.102 109.694  0.00  0.00    -0.311 N 
ATOM     14  C   LIG d   1       3.566  81.246 110.022  0.00  0.00     0.210 C 
ATOM     15  C   LIG d   1       4.501  80.168 109.464  0.00  0.00     0.109 C 
ATOM     16  O   LIG d   1       4.014  82.146 110.748  0.00  0.00    -0.276 OA
ATOM     17  H   LIG d   1       2.003  80.325 109.128  0.00  0.00     0.149 HD
ENDBRANCH   6  13
BRANCH   5  18
ATOM     18  N   LIG d   1       1.501  83.639 108.182  0.00  0.00     0.381 N 
ATOM     19  H   LIG d   1       2.429  83.831 107.862  0.00  0.00    -0.090 HD
ATOM     20  H   LIG d   1       0.913  84.414 107.929  0.00  0.00    -0.090 HD
ATOM     21  H   LIG d   1       1.162  82.804 107.757  0.00  0.00    -0.090 HD
ENDBRANCH   5  18
BRANCH   3  22
ATOM     22  C   LIG d   1      -0.219  85.385 112.297  0.00  0.00     0.382 C 
ATOM     23  O   LIG d   1      -1.290  85.331 112.948  0.00  0.00    -0.241 OA
ATOM     24  O   LIG d   1       0.426  86.450 112.263  0.00  0.00    -0.241 OA
ENDBRANCH   3  22
TORSDOF 7
ENDMDL
MODEL 7
REMARK VINA RESULT:      -4.6      2.457      5.376
REMARK  7 active torsions:
REMARK  status: ('A' for Active; 'I' for Inactive)
REMARK    1  A    between atoms: C_2  and  C_3 
REMARK    2  A    between atoms: C_3  and  O_6 
REMARK    3  A    between atoms: C_3  and  C_4 
REMARK    4  A    between atoms: C_7  and  O_6 
REMARK    5  A    between atoms: C_9  and  C_10 
REMARK    6  A    between atoms: N_15  and  C_14 
REMARK    7  A    between atoms: N_20  and  C_19 
REMARK       I    between atoms: C_22  and  N_20 
ROOT
ATOM      1  C   LIG d   1       2.035  82.676 111.019  0.00  0.00     0.161 C 
ATOM      2  C   LIG d   1       2.115  84.036 111.360  0.00  0.00     0.016 C 
ATOM      3  C   LIG d   1       2.063  85.081 110.409  0.00  0.00     0.038 C 
ATOM      4  C   LIG d   1       1.773  84.839 109.057  0.00  0.00     0.028 C 
ATOM      5  C   LIG d   1       2.187  83.449 108.589  0.00  0.00    -0.047 C 
ATOM      6  C   LIG d   1       1.608  82.398 109.563  0.00  0.00     0.091 C 
ENDROOT
BRANCH   1   7
ATOM      7  O   LIG d   1       1.159  81.993 111.938  0.00  0.00    -0.368 OA
BRANCH   7   8
ATOM      8  C   LIG d   1      -0.113  81.556 111.399  0.00  0.00     0.119 C 
BRANCH   8   9
ATOM      9  C   LIG d   1      -1.213  82.408 112.061  0.00  0.00     0.028 C 
ATOM     10  C   LIG d   1      -0.752  83.848 112.340  0.00  0.00     0.006 C 
ENDBRANCH   8   9
BRANCH   8  11
ATOM     11  C   LIG d   1      -0.422  80.111 111.801  0.00  0.00     0.028 C 
ATOM     12  C   LIG d   1      -1.929  79.832 111.914  0.00  0.00     0.006 C 
ENDBRANCH   8  11
ENDBRANCH   7   8
ENDBRANCH   1   7
BRANCH   6  13
ATOM     13  N   LIG d   1       2.036  81.015 109.225  0.00  0.00    -0.311 N 
ATOM     14  C   LIG d   1       1.254  80.139 108.597  0.00  0.00     0.210 C 
ATOM     15  C   LIG d   1       1.884  78.762 108.364  0.00  0.00     0.109 C 
ATOM     16  O   LIG d   1       0.111  80.381 108.182  0.00  0.00    -0.276 OA
ATOM     17  H   LIG d   1       2.961  80.744 109.497  0.00  0.00     0.149 HD
ENDBRANCH   6  13
BRANCH   5  18
ATOM     18  N   LIG d   1       1.704  83.283 107.205  0.00  0.00     0.381 N 
ATOM     19  H   LIG d   1       2.272  82.613 106.726  0.00  0.00    -0.090 HD
ATOM     20  H   LIG d   1       1.781  84.163 106.726  0.00  0.00    -0.090 HD
ATOM     21  H   LIG d   1       0.755  82.981 107.209  0.00  0.00    -0.090 HD
ENDBRANCH   5  18
BRANCH   3  22
ATOM     22  C   LIG d   1       2.341  86.382 110.800  0.00  0.00     0.382 C 
ATOM     23  O   LIG d   1       1.419  87.232 110.851  0.00  0.00    -0.241 OA
ATOM     24  O   LIG d   1       3.509  86.727 111.061  0.00  0.00    -0.241 OA
ENDBRANCH   3  22
TORSDOF 7
ENDMDL
MODEL 8
REMARK VINA RESULT:      -3.9     30.465     31.931
REMARK  7 active torsions:
REMARK  status: ('A' for Active; 'I' for Inactive)
REMARK    1  A    between atoms: C_2  and  C_3 
REMARK    2  A    between atoms: C_3  and  O_6 
REMARK    3  A    between atoms: C_3  and  C_4 
REMARK    4  A    between atoms: C_7  and  O_6 
REMARK    5  A    between atoms: C_9  and  C_10 
REMARK    6  A    between atoms: N_15  and  C_14 
REMARK    7  A    between atoms: N_20  and  C_19 
REMARK       I    between atoms: C_22  and  N_20 
ROOT
ATOM      1  C   LIG d   1     -26.561  70.155 110.667  0.00  0.00     0.161 C 
ATOM      2  C   LIG d   1     -26.961  69.016 109.947  0.00  0.00     0.016 C 
ATOM      3  C   LIG d   1     -27.680  69.077 108.731  0.00  0.00     0.038 C 
ATOM      4  C   LIG d   1     -27.918  70.292 108.071  0.00  0.00     0.028 C 
ATOM      5  C   LIG d   1     -27.976  71.491 109.011  0.00  0.00    -0.047 C 
ATOM      6  C   LIG d   1     -26.715  71.488 109.906  0.00  0.00     0.091 C 
ENDROOT
BRANCH   1   7
ATOM      7  O   LIG d   1     -25.204  69.993 111.124  0.00  0.00    -0.368 OA
BRANCH   7   8
ATOM      8  C   LIG d   1     -24.923  68.785 111.873  0.00  0.00     0.119 C 
BRANCH   8   9
ATOM      9  C   LIG d   1     -25.305  69.052 113.342  0.00  0.00     0.028 C 
ATOM     10  C   LIG d   1     -24.887  67.904 114.276  0.00  0.00     0.006 C 
ENDBRANCH   8   9
BRANCH   8  11
ATOM     11  C   LIG d   1     -23.423  68.477 111.894  0.00  0.00     0.028 C 
ATOM     12  C   LIG d   1     -23.046  67.290 110.995  0.00  0.00     0.006 C 
ENDBRANCH   8  11
ENDBRANCH   7   8
ENDBRANCH   1   7
BRANCH   6  13
ATOM     13  N   LIG d   1     -26.732  72.581 110.913  0.00  0.00    -0.311 N 
ATOM     14  C   LIG d   1     -26.163  73.769 110.715  0.00  0.00     0.210 C 
ATOM     15  C   LIG d   1     -26.280  74.745 111.890  0.00  0.00     0.109 C 
ATOM     16  O   LIG d   1     -25.600  74.118 109.667  0.00  0.00    -0.276 OA
ATOM     17  H   LIG d   1     -27.195  72.395 111.781  0.00  0.00     0.149 HD
ENDBRANCH   6  13
BRANCH   5  18
ATOM     18  N   LIG d   1     -28.091  72.704 108.180  0.00  0.00     0.381 N 
ATOM     19  H   LIG d   1     -28.777  73.319 108.570  0.00  0.00    -0.090 HD
ATOM     20  H   LIG d   1     -28.394  72.439 107.259  0.00  0.00    -0.090 HD
ATOM     21  H   LIG d   1     -27.211  73.167 108.128  0.00  0.00    -0.090 HD
ENDBRANCH   5  18
BRANCH   3  22
ATOM     22  C   LIG d   1     -28.203  67.916 108.184  0.00  0.00     0.382 C 
ATOM     23  O   LIG d   1     -29.446  67.754 108.128  0.00  0.00    -0.241 OA
ATOM     24  O   LIG d   1     -27.448  67.009 107.786  0.00  0.00    -0.241 OA
ENDBRANCH   3  22
TORSDOF 7
ENDMDL
MODEL 9
REMARK VINA RESULT:      -3.9     31.361     32.516
REMARK  7 active torsions:
REMARK  status: ('A' for Active; 'I' for Inactive)
REMARK    1  A    between atoms: C_2  and  C_3 
REMARK    2  A    between atoms: C_3  and  O_6 
REMARK    3  A    between atoms: C_3  and  C_4 
REMARK    4  A    between atoms: C_7  and  O_6 
REMARK    5  A    between atoms: C_9  and  C_10 
REMARK    6  A    between atoms: N_15  and  C_14 
REMARK    7  A    between atoms: N_20  and  C_19 
REMARK       I    between atoms: C_22  and  N_20 
ROOT
ATOM      1  C   LIG d   1     -26.290  71.236 110.048  0.00  0.00     0.161 C 
ATOM      2  C   LIG d   1     -25.739  70.227 110.856  0.00  0.00     0.016 C 
ATOM      3  C   LIG d   1     -26.109  70.021 112.205  0.00  0.00     0.038 C 
ATOM      4  C   LIG d   1     -27.172  70.719 112.796  0.00  0.00     0.028 C 
ATOM      5  C   LIG d   1     -27.417  72.091 112.176  0.00  0.00    -0.047 C 
ATOM      6  C   LIG d   1     -27.530  71.935 110.642  0.00  0.00     0.091 C 
ENDROOT
BRANCH   1   7
ATOM      7  O   LIG d   1     -26.591  70.706 108.742  0.00  0.00    -0.368 OA
BRANCH   7   8
ATOM      8  C   LIG d   1     -27.173  69.380 108.711  0.00  0.00     0.119 C 
BRANCH   8   9
ATOM      9  C   LIG d   1     -26.388  68.554 107.673  0.00  0.00     0.028 C 
ATOM     10  C   LIG d   1     -25.418  67.557 108.329  0.00  0.00     0.006 C 
ENDBRANCH   8   9
BRANCH   8  11
ATOM     11  C   LIG d   1     -28.614  69.417 108.194  0.00  0.00     0.028 C 
ATOM     12  C   LIG d   1     -29.325  68.059 108.316  0.00  0.00     0.006 C 
ENDBRANCH   8  11
ENDBRANCH   7   8
ENDBRANCH   1   7
BRANCH   6  13
ATOM     13  N   LIG d   1     -27.686  73.241 109.950  0.00  0.00    -0.311 N 
ATOM     14  C   LIG d   1     -28.712  73.530 109.152  0.00  0.00     0.210 C 
ATOM     15  C   LIG d   1     -28.669  74.926 108.522  0.00  0.00     0.109 C 
ATOM     16  O   LIG d   1     -29.671  72.774 108.931  0.00  0.00    -0.276 OA
ATOM     17  H   LIG d   1     -26.969  73.924 110.099  0.00  0.00     0.149 HD
ENDBRANCH   6  13
BRANCH   5  18
ATOM     18  N   LIG d   1     -28.635  72.648 112.793  0.00  0.00     0.381 N 
ATOM     19  H   LIG d   1     -28.823  72.178 113.656  0.00  0.00    -0.090 HD
ATOM     20  H   LIG d   1     -29.412  72.494 112.174  0.00  0.00    -0.090 HD
ATOM     21  H   LIG d   1     -28.519  73.624 112.955  0.00  0.00    -0.090 HD
ENDBRANCH   5  18
BRANCH   3  22
ATOM     22  C   LIG d   1     -25.385  69.136 112.988  0.00  0.00     0.382 C 
ATOM     23  O   LIG d   1     -25.182  69.392 114.200  0.00  0.00    -0.241 OA
ATOM     24  O   LIG d   1     -24.894  68.106 112.489  0.00  0.00    -0.241 OA
ENDBRANCH   3  22
TORSDOF 7
ENDMDL
