MODEL 1
REMARK VINA RESULT:      -6.6      0.000      0.000
REMARK  7 active torsions:
REMARK  status: ('A' for Active; 'I' for Inactive)
REMARK    1  A    between atoms: C_2  and  C_3 
REMARK    2  A    between atoms: C_3  and  O_6 
REMARK    3  A    between atoms: C_3  and  C_4 
REMARK    4  A    between atoms: C_7  and  O_6 
REMARK    5  A    between atoms: C_9  and  C_10 
REMARK    6  A    between atoms: N_15  and  C_14 
REMARK    7  A    between atoms: N_20  and  C_19 
REMARK       I    between atoms: C_22  and  N_20 
ROOT
ATOM      1  C   LIG d   1       1.523  82.344 112.147  0.00  0.00     0.161 C 
ATOM      2  C   LIG d   1       0.401  81.503 112.232  0.00  0.00     0.016 C 
ATOM      3  C   LIG d   1      -0.924  81.949 112.020  0.00  0.00     0.038 C 
ATOM      4  C   LIG d   1      -1.205  83.242 111.556  0.00  0.00     0.028 C 
ATOM      5  C   LIG d   1      -0.146  84.269 111.943  0.00  0.00    -0.047 C 
ATOM      6  C   LIG d   1       1.245  83.733 111.533  0.00  0.00     0.091 C 
ENDROOT
BRANCH   1   7
ATOM      7  O   LIG d   1       2.579  81.680 111.425  0.00  0.00    -0.368 OA
BRANCH   7   8
ATOM      8  C   LIG d   1       2.623  81.919 109.997  0.00  0.00     0.119 C 
BRANCH   8   9
ATOM      9  C   LIG d   1       2.416  80.563 109.294  0.00  0.00     0.028 C 
ATOM     10  C   LIG d   1       1.013  80.431 108.676  0.00  0.00     0.006 C 
ENDBRANCH   8   9
BRANCH   8  11
ATOM     11  C   LIG d   1       4.009  82.397 109.554  0.00  0.00     0.028 C 
ATOM     12  C   LIG d   1       4.419  81.845 108.180  0.00  0.00     0.006 C 
ENDBRANCH   8  11
ENDBRANCH   7   8
ENDBRANCH   1   7
BRANCH   6  13
ATOM     13  N   LIG d   1       2.347  84.638 111.951  0.00  0.00    -0.311 N 
ATOM     14  C   LIG d   1       2.809  85.631 111.192  0.00  0.00     0.210 C 
ATOM     15  C   LIG d   1       3.962  86.431 111.805  0.00  0.00     0.109 C 
ATOM     16  O   LIG d   1       2.351  85.945 110.084  0.00  0.00    -0.276 OA
ATOM     17  H   LIG d   1       2.756  84.474 112.851  0.00  0.00     0.149 HD
ENDBRANCH   6  13
BRANCH   5  18
ATOM     18  N   LIG d   1      -0.493  85.540 111.280  0.00  0.00     0.381 N 
ATOM     19  H   LIG d   1      -1.278  85.403 110.675  0.00  0.00    -0.090 HD
ATOM     20  H   LIG d   1       0.287  85.839 110.722  0.00  0.00    -0.090 HD
ATOM     21  H   LIG d   1      -0.708  86.233 111.963  0.00  0.00    -0.090 HD
ENDBRANCH   5  18
BRANCH   3  22
ATOM     22  C   LIG d   1      -1.987  81.107 112.310  0.00  0.00     0.382 C 
ATOM     23  O   LIG d   1      -3.159  81.553 112.303  0.00  0.00    -0.241 OA
ATOM     24  O   LIG d   1      -1.784  79.919 112.623  0.00  0.00    -0.241 OA
ENDBRANCH   3  22
TORSDOF 7
ENDMDL
MODEL 2
REMARK VINA RESULT:      -6.4      2.169      3.889
REMARK  7 active torsions:
REMARK  status: ('A' for Active; 'I' for Inactive)
REMARK    1  A    between atoms: C_2  and  C_3 
REMARK    2  A    between atoms: C_3  and  O_6 
REMARK    3  A    between atoms: C_3  and  C_4 
REMARK    4  A    between atoms: C_7  and  O_6 
REMARK    5  A    between atoms: C_9  and  C_10 
REMARK    6  A    between atoms: N_15  and  C_14 
REMARK    7  A    between atoms: N_20  and  C_19 
REMARK       I    between atoms: C_22  and  N_20 
ROOT
ATOM      1  C   LIG d   1       0.236  82.675 110.943  0.00  0.00     0.161 C 
ATOM      2  C   LIG d   1      -0.896  82.280 111.675  0.00  0.00     0.016 C 
ATOM      3  C   LIG d   1      -1.420  80.967 111.650  0.00  0.00     0.038 C 
ATOM      4  C   LIG d   1      -0.753  79.915 111.004  0.00  0.00     0.028 C 
ATOM      5  C   LIG d   1       0.116  80.374 109.838  0.00  0.00    -0.047 C 
ATOM      6  C   LIG d   1       1.041  81.515 110.320  0.00  0.00     0.091 C 
ENDROOT
BRANCH   1   7
ATOM      7  O   LIG d   1       1.091  83.492 111.767  0.00  0.00    -0.368 OA
BRANCH   7   8
ATOM      8  C   LIG d   1       1.182  84.891 111.400  0.00  0.00     0.119 C 
BRANCH   8   9
ATOM      9  C   LIG d   1       0.319  85.096 110.141  0.00  0.00     0.028 C 
ATOM     10  C   LIG d   1      -0.896  86.002 110.404  0.00  0.00     0.006 C 
ENDBRANCH   8   9
BRANCH   8  11
ATOM     11  C   LIG d   1       2.607  85.265 110.981  0.00  0.00     0.028 C 
ATOM     12  C   LIG d   1       3.679  84.439 111.710  0.00  0.00     0.006 C 
ENDBRANCH   8  11
ENDBRANCH   7   8
ENDBRANCH   1   7
BRANCH   6  13
ATOM     13  N   LIG d   1       1.866  82.079 109.220  0.00  0.00    -0.311 N 
ATOM     14  C   LIG d   1       3.180  81.891 109.119  0.00  0.00     0.210 C 
ATOM     15  C   LIG d   1       3.841  82.577 107.919  0.00  0.00     0.109 C 
ATOM     16  O   LIG d   1       3.856  81.194 109.890  0.00  0.00    -0.276 OA
ATOM     17  H   LIG d   1       1.392  82.632 108.533  0.00  0.00     0.149 HD
ENDBRANCH   6  13
BRANCH   5  18
ATOM     18  N   LIG d   1       0.857  79.198 109.345  0.00  0.00     0.381 N 
ATOM     19  H   LIG d   1       0.990  78.544 110.090  0.00  0.00    -0.090 HD
ATOM     20  H   LIG d   1       1.761  79.496 109.023  0.00  0.00    -0.090 HD
ATOM     21  H   LIG d   1       0.356  78.767 108.600  0.00  0.00    -0.090 HD
ENDBRANCH   5  18
BRANCH   3  22
ATOM     22  C   LIG d   1      -2.645  80.704 112.244  0.00  0.00     0.382 C 
ATOM     23  O   LIG d   1      -2.938  79.533 112.586  0.00  0.00    -0.241 OA
ATOM     24  O   LIG d   1      -3.479  81.616 112.401  0.00  0.00    -0.241 OA
ENDBRANCH   3  22
TORSDOF 7
ENDMDL
MODEL 3
REMARK VINA RESULT:      -6.0      2.354      5.497
REMARK  7 active torsions:
REMARK  status: ('A' for Active; 'I' for Inactive)
REMARK    1  A    between atoms: C_2  and  C_3 
REMARK    2  A    between atoms: C_3  and  O_6 
REMARK    3  A    between atoms: C_3  and  C_4 
REMARK    4  A    between atoms: C_7  and  O_6 
REMARK    5  A    between atoms: C_9  and  C_10 
REMARK    6  A    between atoms: N_15  and  C_14 
REMARK    7  A    between atoms: N_20  and  C_19 
REMARK       I    between atoms: C_22  and  N_20 
ROOT
ATOM      1  C   LIG d   1       2.756  84.027 111.925  0.00  0.00     0.161 C 
ATOM      2  C   LIG d   1       2.682  85.346 112.401  0.00  0.00     0.016 C 
ATOM      3  C   LIG d   1       2.101  86.406 111.668  0.00  0.00     0.038 C 
ATOM      4  C   LIG d   1       1.415  86.187 110.464  0.00  0.00     0.028 C 
ATOM      5  C   LIG d   1       1.904  84.959 109.704  0.00  0.00    -0.047 C 
ATOM      6  C   LIG d   1       1.915  83.746 110.662  0.00  0.00     0.091 C 
ENDROOT
BRANCH   1   7
ATOM      7  O   LIG d   1       2.403  83.107 112.977  0.00  0.00    -0.368 OA
BRANCH   7   8
ATOM      8  C   LIG d   1       0.993  82.804 113.112  0.00  0.00     0.119 C 
BRANCH   8   9
ATOM      9  C   LIG d   1       0.469  83.575 114.339  0.00  0.00     0.028 C 
ATOM     10  C   LIG d   1      -0.541  84.670 113.956  0.00  0.00     0.006 C 
ENDBRANCH   8   9
BRANCH   8  11
ATOM     11  C   LIG d   1       0.769  81.324 113.437  0.00  0.00     0.028 C 
ATOM     12  C   LIG d   1      -0.672  80.865 113.163  0.00  0.00     0.006 C 
ENDBRANCH   8  11
ENDBRANCH   7   8
ENDBRANCH   1   7
BRANCH   6  13
ATOM     13  N   LIG d   1       2.460  82.521 110.021  0.00  0.00    -0.311 N 
ATOM     14  C   LIG d   1       1.714  81.463 109.710  0.00  0.00     0.210 C 
ATOM     15  C   LIG d   1       2.478  80.298 109.074  0.00  0.00     0.109 C 
ATOM     16  O   LIG d   1       0.486  81.390 109.872  0.00  0.00    -0.276 OA
ATOM     17  H   LIG d   1       3.442  82.507 109.826  0.00  0.00     0.149 HD
ENDBRANCH   6  13
BRANCH   5  18
ATOM     18  N   LIG d   1       1.014  84.770 108.543  0.00  0.00     0.381 N 
ATOM     19  H   LIG d   1       0.387  84.010 108.716  0.00  0.00    -0.090 HD
ATOM     20  H   LIG d   1       1.572  84.541 107.739  0.00  0.00    -0.090 HD
ATOM     21  H   LIG d   1       0.497  85.604 108.370  0.00  0.00    -0.090 HD
ENDBRANCH   5  18
BRANCH   3  22
ATOM     22  C   LIG d   1       2.238  87.710 112.120  0.00  0.00     0.382 C 
ATOM     23  O   LIG d   1       3.290  88.063 112.707  0.00  0.00    -0.241 OA
ATOM     24  O   LIG d   1       1.307  88.526 111.987  0.00  0.00    -0.241 OA
ENDBRANCH   3  22
TORSDOF 7
ENDMDL
MODEL 4
REMARK VINA RESULT:      -6.0      2.572      5.965
REMARK  7 active torsions:
REMARK  status: ('A' for Active; 'I' for Inactive)
REMARK    1  A    between atoms: C_2  and  C_3 
REMARK    2  A    between atoms: C_3  and  O_6 
REMARK    3  A    between atoms: C_3  and  C_4 
REMARK    4  A    between atoms: C_7  and  O_6 
REMARK    5  A    between atoms: C_9  and  C_10 
REMARK    6  A    between atoms: N_15  and  C_14 
REMARK    7  A    between atoms: N_20  and  C_19 
REMARK       I    between atoms: C_22  and  N_20 
ROOT
ATOM      1  C   LIG d   1       1.192  81.373 111.685  0.00  0.00     0.161 C 
ATOM      2  C   LIG d   1       2.193  82.182 111.122  0.00  0.00     0.016 C 
ATOM      3  C   LIG d   1       2.389  82.321 109.729  0.00  0.00     0.038 C 
ATOM      4  C   LIG d   1       1.495  81.775 108.796  0.00  0.00     0.028 C 
ATOM      5  C   LIG d   1       0.767  80.537 109.308  0.00  0.00    -0.047 C 
ATOM      6  C   LIG d   1       0.137  80.858 110.683  0.00  0.00     0.091 C 
ENDROOT
BRANCH   1   7
ATOM      7  O   LIG d   1       0.551  82.072 112.771  0.00  0.00    -0.368 OA
BRANCH   7   8
ATOM      8  C   LIG d   1       0.453  83.511 112.633  0.00  0.00     0.119 C 
BRANCH   8   9
ATOM      9  C   LIG d   1       0.300  84.102 114.048  0.00  0.00     0.028 C 
ATOM     10  C   LIG d   1       1.199  85.330 114.271  0.00  0.00     0.006 C 
ENDBRANCH   8   9
BRANCH   8  11
ATOM     11  C   LIG d   1      -0.822  83.913 111.885  0.00  0.00     0.028 C 
ATOM     12  C   LIG d   1      -0.534  84.701 110.598  0.00  0.00     0.006 C 
ENDBRANCH   8  11
ENDBRANCH   7   8
ENDBRANCH   1   7
BRANCH   6  13
ATOM     13  N   LIG d   1      -0.523  79.675 111.294  0.00  0.00    -0.311 N 
ATOM     14  C   LIG d   1      -1.719  79.723 111.879  0.00  0.00     0.210 C 
ATOM     15  C   LIG d   1      -2.208  78.394 112.462  0.00  0.00     0.109 C 
ATOM     16  O   LIG d   1      -2.435  80.734 111.942  0.00  0.00    -0.276 OA
ATOM     17  H   LIG d   1      -0.026  78.806 111.260  0.00  0.00     0.149 HD
ENDBRANCH   6  13
BRANCH   5  18
ATOM     18  N   LIG d   1      -0.231  80.154 108.291  0.00  0.00     0.381 N 
ATOM     19  H   LIG d   1      -0.713  79.328 108.583  0.00  0.00    -0.090 HD
ATOM     20  H   LIG d   1       0.245  79.953 107.429  0.00  0.00    -0.090 HD
ATOM     21  H   LIG d   1      -0.881  80.896 108.155  0.00  0.00    -0.090 HD
ENDBRANCH   5  18
BRANCH   3  22
ATOM     22  C   LIG d   1       3.513  82.981 109.256  0.00  0.00     0.382 C 
ATOM     23  O   LIG d   1       4.275  82.413 108.437  0.00  0.00    -0.241 OA
ATOM     24  O   LIG d   1       3.799  84.120 109.672  0.00  0.00    -0.241 OA
ENDBRANCH   3  22
TORSDOF 7
ENDMDL
MODEL 5
REMARK VINA RESULT:      -6.0      2.047      4.523
REMARK  7 active torsions:
REMARK  status: ('A' for Active; 'I' for Inactive)
REMARK    1  A    between atoms: C_2  and  C_3 
REMARK    2  A    between atoms: C_3  and  O_6 
REMARK    3  A    between atoms: C_3  and  C_4 
REMARK    4  A    between atoms: C_7  and  O_6 
REMARK    5  A    between atoms: C_9  and  C_10 
REMARK    6  A    between atoms: N_15  and  C_14 
REMARK    7  A    between atoms: N_20  and  C_19 
REMARK       I    between atoms: C_22  and  N_20 
ROOT
ATOM      1  C   LIG d   1       0.088  82.240 110.373  0.00  0.00     0.161 C 
ATOM      2  C   LIG d   1       0.910  81.167 109.991  0.00  0.00     0.016 C 
ATOM      3  C   LIG d   1       2.286  81.307 109.695  0.00  0.00     0.038 C 
ATOM      4  C   LIG d   1       2.971  82.512 109.909  0.00  0.00     0.028 C 
ATOM      5  C   LIG d   1       2.076  83.743 109.810  0.00  0.00    -0.047 C 
ATOM      6  C   LIG d   1       0.842  83.541 110.719  0.00  0.00     0.091 C 
ENDROOT
BRANCH   1   7
ATOM      7  O   LIG d   1      -0.756  81.843 111.472  0.00  0.00    -0.368 OA
BRANCH   7   8
ATOM      8  C   LIG d   1      -0.510  80.524 112.020  0.00  0.00     0.119 C 
BRANCH   8   9
ATOM      9  C   LIG d   1      -1.811  79.712 111.873  0.00  0.00     0.028 C 
ATOM     10  C   LIG d   1      -1.709  78.631 110.784  0.00  0.00     0.006 C 
ENDBRANCH   8   9
BRANCH   8  11
ATOM     11  C   LIG d   1      -0.239  80.588 113.526  0.00  0.00     0.028 C 
ATOM     12  C   LIG d   1       0.896  81.560 113.886  0.00  0.00     0.006 C 
ENDBRANCH   8  11
ENDBRANCH   7   8
ENDBRANCH   1   7
BRANCH   6  13
ATOM     13  N   LIG d   1      -0.127  84.663 110.617  0.00  0.00    -0.311 N 
ATOM     14  C   LIG d   1      -0.161  85.683 111.473  0.00  0.00     0.210 C 
ATOM     15  C   LIG d   1      -1.252  86.723 111.198  0.00  0.00     0.109 C 
ATOM     16  O   LIG d   1       0.629  85.841 112.416  0.00  0.00    -0.276 OA
ATOM     17  H   LIG d   1      -0.785  84.631 109.863  0.00  0.00     0.149 HD
ENDBRANCH   6  13
BRANCH   5  18
ATOM     18  N   LIG d   1       2.887  84.916 110.189  0.00  0.00     0.381 N 
ATOM     19  H   LIG d   1       2.562  85.286 111.060  0.00  0.00    -0.090 HD
ATOM     20  H   LIG d   1       2.782  85.625 109.486  0.00  0.00    -0.090 HD
ATOM     21  H   LIG d   1       3.846  84.656 110.268  0.00  0.00    -0.090 HD
ENDBRANCH   5  18
BRANCH   3  22
ATOM     22  C   LIG d   1       2.981  80.243 109.142  0.00  0.00     0.382 C 
ATOM     23  O   LIG d   1       4.235  80.227 109.178  0.00  0.00    -0.241 OA
ATOM     24  O   LIG d   1       2.373  79.321 108.567  0.00  0.00    -0.241 OA
ENDBRANCH   3  22
TORSDOF 7
ENDMDL
MODEL 6
REMARK VINA RESULT:      -5.9      2.489      4.519
REMARK  7 active torsions:
REMARK  status: ('A' for Active; 'I' for Inactive)
REMARK    1  A    between atoms: C_2  and  C_3 
REMARK    2  A    between atoms: C_3  and  O_6 
REMARK    3  A    between atoms: C_3  and  C_4 
REMARK    4  A    between atoms: C_7  and  O_6 
REMARK    5  A    between atoms: C_9  and  C_10 
REMARK    6  A    between atoms: N_15  and  C_14 
REMARK    7  A    between atoms: N_20  and  C_19 
REMARK       I    between atoms: C_22  and  N_20 
ROOT
ATOM      1  C   LIG d   1       1.545  83.353 111.487  0.00  0.00     0.161 C 
ATOM      2  C   LIG d   1       0.624  84.237 112.073  0.00  0.00     0.016 C 
ATOM      3  C   LIG d   1      -0.097  85.209 111.340  0.00  0.00     0.038 C 
ATOM      4  C   LIG d   1      -0.056  85.261 109.939  0.00  0.00     0.028 C 
ATOM      5  C   LIG d   1       1.243  84.721 109.350  0.00  0.00    -0.047 C 
ATOM      6  C   LIG d   1       1.520  83.321 109.945  0.00  0.00     0.091 C 
ENDROOT
BRANCH   1   7
ATOM      7  O   LIG d   1       1.356  82.027 112.019  0.00  0.00    -0.368 OA
BRANCH   7   8
ATOM      8  C   LIG d   1      -0.018  81.605 112.204  0.00  0.00     0.119 C 
BRANCH   8   9
ATOM      9  C   LIG d   1      -0.112  80.926 113.584  0.00  0.00     0.028 C 
ATOM     10  C   LIG d   1       0.979  81.413 114.553  0.00  0.00     0.006 C 
ENDBRANCH   8   9
BRANCH   8  11
ATOM     11  C   LIG d   1      -0.409  80.523 111.193  0.00  0.00     0.028 C 
ATOM     12  C   LIG d   1      -1.485  79.566 111.730  0.00  0.00     0.006 C 
ENDBRANCH   8  11
ENDBRANCH   7   8
ENDBRANCH   1   7
BRANCH   6  13
ATOM     13  N   LIG d   1       2.816  82.756 109.485  0.00  0.00    -0.311 N 
ATOM     14  C   LIG d   1       2.926  81.578 108.874  0.00  0.00     0.210 C 
ATOM     15  C   LIG d   1       4.356  81.175 108.502  0.00  0.00     0.109 C 
ATOM     16  O   LIG d   1       1.972  80.843 108.577  0.00  0.00    -0.276 OA
ATOM     17  H   LIG d   1       3.638  83.301 109.658  0.00  0.00     0.149 HD
ENDBRANCH   6  13
BRANCH   5  18
ATOM     18  N   LIG d   1       1.095  84.707 107.882  0.00  0.00     0.381 N 
ATOM     19  H   LIG d   1       0.930  85.636 107.550  0.00  0.00    -0.090 HD
ATOM     20  H   LIG d   1       0.302  84.139 107.641  0.00  0.00    -0.090 HD
ATOM     21  H   LIG d   1       1.918  84.336 107.460  0.00  0.00    -0.090 HD
ENDBRANCH   5  18
BRANCH   3  22
ATOM     22  C   LIG d   1      -0.838  86.167 112.014  0.00  0.00     0.382 C 
ATOM     23  O   LIG d   1      -1.798  86.735 111.440  0.00  0.00    -0.241 OA
ATOM     24  O   LIG d   1      -0.531  86.503 113.173  0.00  0.00    -0.241 OA
ENDBRANCH   3  22
TORSDOF 7
ENDMDL
MODEL 7
REMARK VINA RESULT:      -5.8      2.533      5.652
REMARK  7 active torsions:
REMARK  status: ('A' for Active; 'I' for Inactive)
REMARK    1  A    between atoms: C_2  and  C_3 
REMARK    2  A    between atoms: C_3  and  O_6 
REMARK    3  A    between atoms: C_3  and  C_4 
REMARK    4  A    between atoms: C_7  and  O_6 
REMARK    5  A    between atoms: C_9  and  C_10 
REMARK    6  A    between atoms: N_15  and  C_14 
REMARK    7  A    between atoms: N_20  and  C_19 
REMARK       I    between atoms: C_22  and  N_20 
ROOT
ATOM      1  C   LIG d   1       1.907  82.462 110.912  0.00  0.00     0.161 C 
ATOM      2  C   LIG d   1       3.096  82.435 110.165  0.00  0.00     0.016 C 
ATOM      3  C   LIG d   1       3.238  81.721 108.953  0.00  0.00     0.038 C 
ATOM      4  C   LIG d   1       2.146  81.104 108.325  0.00  0.00     0.028 C 
ATOM      5  C   LIG d   1       1.049  80.680 109.295  0.00  0.00    -0.047 C 
ATOM      6  C   LIG d   1       0.673  81.886 110.186  0.00  0.00     0.091 C 
ENDROOT
BRANCH   1   7
ATOM      7  O   LIG d   1       1.642  83.806 111.361  0.00  0.00    -0.368 OA
BRANCH   7   8
ATOM      8  C   LIG d   1       2.081  84.870 110.481  0.00  0.00     0.119 C 
BRANCH   8   9
ATOM      9  C   LIG d   1       2.817  85.912 111.345  0.00  0.00     0.028 C 
ATOM     10  C   LIG d   1       3.337  85.317 112.665  0.00  0.00     0.006 C 
ENDBRANCH   8   9
BRANCH   8  11
ATOM     11  C   LIG d   1       0.890  85.617 109.872  0.00  0.00     0.028 C 
ATOM     12  C   LIG d   1       0.161  86.507 110.891  0.00  0.00     0.006 C 
ENDBRANCH   8  11
ENDBRANCH   7   8
ENDBRANCH   1   7
BRANCH   6  13
ATOM     13  N   LIG d   1      -0.335  81.535 111.220  0.00  0.00    -0.311 N 
ATOM     14  C   LIG d   1      -1.352  82.329 111.551  0.00  0.00     0.210 C 
ATOM     15  C   LIG d   1      -2.263  81.785 112.656  0.00  0.00     0.109 C 
ATOM     16  O   LIG d   1      -1.604  83.418 111.013  0.00  0.00    -0.276 OA
ATOM     17  H   LIG d   1      -0.224  80.656 111.685  0.00  0.00     0.149 HD
ENDBRANCH   6  13
BRANCH   5  18
ATOM     18  N   LIG d   1      -0.084  80.178 108.494  0.00  0.00     0.381 N 
ATOM     19  H   LIG d   1       0.229  79.946 107.573  0.00  0.00    -0.090 HD
ATOM     20  H   LIG d   1      -0.776  80.903 108.419  0.00  0.00    -0.090 HD
ATOM     21  H   LIG d   1      -0.480  79.375 108.930  0.00  0.00    -0.090 HD
ENDBRANCH   5  18
BRANCH   3  22
ATOM     22  C   LIG d   1       4.492  81.585 108.378  0.00  0.00     0.382 C 
ATOM     23  O   LIG d   1       5.123  80.507 108.496  0.00  0.00    -0.241 OA
ATOM     24  O   LIG d   1       5.020  82.542 107.781  0.00  0.00    -0.241 OA
ENDBRANCH   3  22
TORSDOF 7
ENDMDL
MODEL 8
REMARK VINA RESULT:      -5.5      2.675      4.971
REMARK  7 active torsions:
REMARK  status: ('A' for Active; 'I' for Inactive)
REMARK    1  A    between atoms: C_2  and  C_3 
REMARK    2  A    between atoms: C_3  and  O_6 
REMARK    3  A    between atoms: C_3  and  C_4 
REMARK    4  A    between atoms: C_7  and  O_6 
REMARK    5  A    between atoms: C_9  and  C_10 
REMARK    6  A    between atoms: N_15  and  C_14 
REMARK    7  A    between atoms: N_20  and  C_19 
REMARK       I    between atoms: C_22  and  N_20 
ROOT
ATOM      1  C   LIG d   1      -0.110  82.632 111.189  0.00  0.00     0.161 C 
ATOM      2  C   LIG d   1      -0.641  83.799 111.765  0.00  0.00     0.016 C 
ATOM      3  C   LIG d   1      -0.536  85.077 111.170  0.00  0.00     0.038 C 
ATOM      4  C   LIG d   1      -0.021  85.253 109.877  0.00  0.00     0.028 C 
ATOM      5  C   LIG d   1       0.982  84.178 109.473  0.00  0.00    -0.047 C 
ATOM      6  C   LIG d   1       0.357  82.787 109.727  0.00  0.00     0.091 C 
ENDROOT
BRANCH   1   7
ATOM      7  O   LIG d   1      -1.063  81.556 111.299  0.00  0.00    -0.368 OA
BRANCH   7   8
ATOM      8  C   LIG d   1      -0.573  80.331 111.898  0.00  0.00     0.119 C 
BRANCH   8   9
ATOM      9  C   LIG d   1      -1.345  79.162 111.255  0.00  0.00     0.028 C 
ATOM     10  C   LIG d   1      -2.728  78.949 111.893  0.00  0.00     0.006 C 
ENDBRANCH   8   9
BRANCH   8  11
ATOM     11  C   LIG d   1      -0.910  80.266 113.390  0.00  0.00     0.028 C 
ATOM     12  C   LIG d   1       0.167  80.916 114.273  0.00  0.00     0.006 C 
ENDBRANCH   8  11
ENDBRANCH   7   8
ENDBRANCH   1   7
BRANCH   6  13
ATOM     13  N   LIG d   1       1.304  81.679 109.437  0.00  0.00    -0.311 N 
ATOM     14  C   LIG d   1       0.983  80.614 108.704  0.00  0.00     0.210 C 
ATOM     15  C   LIG d   1       2.101  79.578 108.545  0.00  0.00     0.109 C 
ATOM     16  O   LIG d   1      -0.111  80.443 108.145  0.00  0.00    -0.276 OA
ATOM     17  H   LIG d   1       2.223  81.751 109.826  0.00  0.00     0.149 HD
ENDBRANCH   6  13
BRANCH   5  18
ATOM     18  N   LIG d   1       1.333  84.405 108.058  0.00  0.00     0.381 N 
ATOM     19  H   LIG d   1       0.580  84.106 107.470  0.00  0.00    -0.090 HD
ATOM     20  H   LIG d   1       2.145  83.858 107.832  0.00  0.00    -0.090 HD
ATOM     21  H   LIG d   1       1.521  85.371 107.904  0.00  0.00    -0.090 HD
ENDBRANCH   5  18
BRANCH   3  22
ATOM     22  C   LIG d   1      -0.912  86.202 111.888  0.00  0.00     0.382 C 
ATOM     23  O   LIG d   1      -0.227  86.578 112.869  0.00  0.00    -0.241 OA
ATOM     24  O   LIG d   1      -1.953  86.820 111.593  0.00  0.00    -0.241 OA
ENDBRANCH   3  22
TORSDOF 7
ENDMDL
MODEL 9
REMARK VINA RESULT:      -5.5      2.355      3.963
REMARK  7 active torsions:
REMARK  status: ('A' for Active; 'I' for Inactive)
REMARK    1  A    between atoms: C_2  and  C_3 
REMARK    2  A    between atoms: C_3  and  O_6 
REMARK    3  A    between atoms: C_3  and  C_4 
REMARK    4  A    between atoms: C_7  and  O_6 
REMARK    5  A    between atoms: C_9  and  C_10 
REMARK    6  A    between atoms: N_15  and  C_14 
REMARK    7  A    between atoms: N_20  and  C_19 
REMARK       I    between atoms: C_22  and  N_20 
ROOT
ATOM      1  C   LIG d   1       1.438  83.294 112.144  0.00  0.00     0.161 C 
ATOM      2  C   LIG d   1       0.612  83.980 113.049  0.00  0.00     0.016 C 
ATOM      3  C   LIG d   1       0.001  85.222 112.758  0.00  0.00     0.038 C 
ATOM      4  C   LIG d   1       0.055  85.792 111.478  0.00  0.00     0.028 C 
ATOM      5  C   LIG d   1       1.293  85.387 110.685  0.00  0.00    -0.047 C 
ATOM      6  C   LIG d   1       1.417  83.846 110.703  0.00  0.00     0.091 C 
ENDROOT
BRANCH   1   7
ATOM      7  O   LIG d   1       1.107  81.891 112.147  0.00  0.00    -0.368 OA
BRANCH   7   8
ATOM      8  C   LIG d   1      -0.056  81.509 111.373  0.00  0.00     0.119 C 
BRANCH   8   9
ATOM      9  C   LIG d   1      -0.975  80.683 112.294  0.00  0.00     0.028 C 
ATOM     10  C   LIG d   1      -0.391  80.514 113.706  0.00  0.00     0.006 C 
ENDBRANCH   8   9
BRANCH   8  11
ATOM     11  C   LIG d   1       0.323  80.565 110.227  0.00  0.00     0.028 C 
ATOM     12  C   LIG d   1      -0.660  79.394 110.069  0.00  0.00     0.006 C 
ENDBRANCH   8  11
ENDBRANCH   7   8
ENDBRANCH   1   7
BRANCH   6  13
ATOM     13  N   LIG d   1       2.648  83.369 110.021  0.00  0.00    -0.311 N 
ATOM     14  C   LIG d   1       2.688  83.025 108.735  0.00  0.00     0.210 C 
ATOM     15  C   LIG d   1       4.053  82.541 108.236  0.00  0.00     0.109 C 
ATOM     16  O   LIG d   1       1.729  83.104 107.952  0.00  0.00    -0.276 OA
ATOM     17  H   LIG d   1       3.480  83.304 110.574  0.00  0.00     0.149 HD
ENDBRANCH   6  13
BRANCH   5  18
ATOM     18  N   LIG d   1       1.151  85.940 109.325  0.00  0.00     0.381 N 
ATOM     19  H   LIG d   1       0.431  86.634 109.314  0.00  0.00    -0.090 HD
ATOM     20  H   LIG d   1       0.886  85.200 108.699  0.00  0.00    -0.090 HD
ATOM     21  H   LIG d   1       2.014  86.341 109.029  0.00  0.00    -0.090 HD
ENDBRANCH   5  18
BRANCH   3  22
ATOM     22  C   LIG d   1      -0.638  85.926 113.767  0.00  0.00     0.382 C 
ATOM     23  O   LIG d   1      -1.888  85.880 113.868  0.00  0.00    -0.241 OA
ATOM     24  O   LIG d   1       0.014  86.642 114.550  0.00  0.00    -0.241 OA
ENDBRANCH   3  22
TORSDOF 7
ENDMDL
