MODEL 1
REMARK VINA RESULT:      -5.8      0.000      0.000
REMARK  7 active torsions:
REMARK  status: ('A' for Active; 'I' for Inactive)
REMARK    1  A    between atoms: C_2  and  C_3 
REMARK    2  A    between atoms: C_3  and  O_6 
REMARK    3  A    between atoms: C_3  and  C_4 
REMARK    4  A    between atoms: C_7  and  O_6 
REMARK    5  A    between atoms: C_9  and  C_10 
REMARK    6  A    between atoms: N_15  and  C_14 
REMARK    7  A    between atoms: N_20  and  C_19 
REMARK       I    between atoms: C_22  and  N_20 
ROOT
ATOM      1  C   LIG d   1      -2.689  76.875 115.193  0.00  0.00     0.161 C 
ATOM      2  C   LIG d   1      -2.947  77.914 114.283  0.00  0.00     0.016 C 
ATOM      3  C   LIG d   1      -2.260  78.063 113.056  0.00  0.00     0.038 C 
ATOM      4  C   LIG d   1      -1.367  77.090 112.584  0.00  0.00     0.028 C 
ATOM      5  C   LIG d   1      -0.703  76.286 113.697  0.00  0.00    -0.047 C 
ATOM      6  C   LIG d   1      -1.796  75.742 114.644  0.00  0.00     0.091 C 
ENDROOT
BRANCH   1   7
ATOM      7  O   LIG d   1      -3.932  76.338 115.688  0.00  0.00    -0.368 OA
BRANCH   7   8
ATOM      8  C   LIG d   1      -4.907  75.960 114.686  0.00  0.00     0.119 C 
BRANCH   8   9
ATOM      9  C   LIG d   1      -6.305  76.240 115.271  0.00  0.00     0.028 C 
ATOM     10  C   LIG d   1      -6.268  77.269 116.413  0.00  0.00     0.006 C 
ENDBRANCH   8   9
BRANCH   8  11
ATOM     11  C   LIG d   1      -4.874  74.453 114.416  0.00  0.00     0.028 C 
ATOM     12  C   LIG d   1      -5.003  73.616 115.699  0.00  0.00     0.006 C 
ENDBRANCH   8  11
ENDBRANCH   7   8
ENDBRANCH   1   7
BRANCH   6  13
ATOM     13  N   LIG d   1      -1.227  75.014 115.808  0.00  0.00    -0.311 N 
ATOM     14  C   LIG d   1      -1.029  73.697 115.824  0.00  0.00     0.210 C 
ATOM     15  C   LIG d   1      -0.451  73.146 117.131  0.00  0.00     0.109 C 
ATOM     16  O   LIG d   1      -1.247  72.938 114.868  0.00  0.00    -0.276 OA
ATOM     17  H   LIG d   1      -0.992  75.558 116.616  0.00  0.00     0.149 HD
ENDBRANCH   6  13
BRANCH   5  18
ATOM     18  N   LIG d   1       0.095  75.220 113.062  0.00  0.00     0.381 N 
ATOM     19  H   LIG d   1      -0.397  74.351 113.117  0.00  0.00    -0.090 HD
ATOM     20  H   LIG d   1       0.963  75.124 113.559  0.00  0.00    -0.090 HD
ATOM     21  H   LIG d   1       0.273  75.449 112.109  0.00  0.00    -0.090 HD
ENDBRANCH   5  18
BRANCH   3  22
ATOM     22  C   LIG d   1      -2.435  79.216 112.307  0.00  0.00     0.382 C 
ATOM     23  O   LIG d   1      -1.842  79.346 111.209  0.00  0.00    -0.241 OA
ATOM     24  O   LIG d   1      -3.144  80.146 112.735  0.00  0.00    -0.241 OA
ENDBRANCH   3  22
TORSDOF 7
ENDMDL
MODEL 2
REMARK VINA RESULT:      -5.5      8.144     10.643
REMARK  7 active torsions:
REMARK  status: ('A' for Active; 'I' for Inactive)
REMARK    1  A    between atoms: C_2  and  C_3 
REMARK    2  A    between atoms: C_3  and  O_6 
REMARK    3  A    between atoms: C_3  and  C_4 
REMARK    4  A    between atoms: C_7  and  O_6 
REMARK    5  A    between atoms: C_9  and  C_10 
REMARK    6  A    between atoms: N_15  and  C_14 
REMARK    7  A    between atoms: N_20  and  C_19 
REMARK       I    between atoms: C_22  and  N_20 
ROOT
ATOM      1  C   LIG d   1       2.898  84.238 112.132  0.00  0.00     0.161 C 
ATOM      2  C   LIG d   1       3.335  85.471 112.643  0.00  0.00     0.016 C 
ATOM      3  C   LIG d   1       2.948  86.719 112.103  0.00  0.00     0.038 C 
ATOM      4  C   LIG d   1       1.971  86.822 111.101  0.00  0.00     0.028 C 
ATOM      5  C   LIG d   1       1.880  85.586 110.214  0.00  0.00    -0.047 C 
ATOM      6  C   LIG d   1       1.745  84.334 111.111  0.00  0.00     0.091 C 
ENDROOT
BRANCH   1   7
ATOM      7  O   LIG d   1       2.535  83.361 113.216  0.00  0.00    -0.368 OA
BRANCH   7   8
ATOM      8  C   LIG d   1       2.366  83.985 114.512  0.00  0.00     0.119 C 
BRANCH   8   9
ATOM      9  C   LIG d   1       2.789  82.957 115.580  0.00  0.00     0.028 C 
ATOM     10  C   LIG d   1       1.586  82.223 116.196  0.00  0.00     0.006 C 
ENDBRANCH   8   9
BRANCH   8  11
ATOM     11  C   LIG d   1       0.892  84.284 114.799  0.00  0.00     0.028 C 
ATOM     12  C   LIG d   1       0.632  85.770 115.097  0.00  0.00     0.006 C 
ENDBRANCH   8  11
ENDBRANCH   7   8
ENDBRANCH   1   7
BRANCH   6  13
ATOM     13  N   LIG d   1       1.734  83.072 110.325  0.00  0.00    -0.311 N 
ATOM     14  C   LIG d   1       0.652  82.310 110.177  0.00  0.00     0.210 C 
ATOM     15  C   LIG d   1       0.863  81.042 109.344  0.00  0.00     0.109 C 
ATOM     16  O   LIG d   1      -0.471  82.581 110.628  0.00  0.00    -0.276 OA
ATOM     17  H   LIG d   1       2.596  82.793 109.898  0.00  0.00     0.149 HD
ENDBRANCH   6  13
BRANCH   5  18
ATOM     18  N   LIG d   1       0.733  85.772 109.306  0.00  0.00     0.381 N 
ATOM     19  H   LIG d   1       1.061  85.998 108.388  0.00  0.00    -0.090 HD
ATOM     20  H   LIG d   1       0.176  86.539 109.639  0.00  0.00    -0.090 HD
ATOM     21  H   LIG d   1       0.183  84.942 109.275  0.00  0.00    -0.090 HD
ENDBRANCH   5  18
BRANCH   3  22
ATOM     22  C   LIG d   1       3.571  87.879 112.537  0.00  0.00     0.382 C 
ATOM     23  O   LIG d   1       4.756  88.118 112.202  0.00  0.00    -0.241 OA
ATOM     24  O   LIG d   1       2.977  88.669 113.296  0.00  0.00    -0.241 OA
ENDBRANCH   3  22
TORSDOF 7
ENDMDL
MODEL 3
REMARK VINA RESULT:      -5.4      2.646      4.797
REMARK  7 active torsions:
REMARK  status: ('A' for Active; 'I' for Inactive)
REMARK    1  A    between atoms: C_2  and  C_3 
REMARK    2  A    between atoms: C_3  and  O_6 
REMARK    3  A    between atoms: C_3  and  C_4 
REMARK    4  A    between atoms: C_7  and  O_6 
REMARK    5  A    between atoms: C_9  and  C_10 
REMARK    6  A    between atoms: N_15  and  C_14 
REMARK    7  A    between atoms: N_20  and  C_19 
REMARK       I    between atoms: C_22  and  N_20 
ROOT
ATOM      1  C   LIG d   1      -2.751  74.120 115.621  0.00  0.00     0.161 C 
ATOM      2  C   LIG d   1      -1.874  74.920 114.870  0.00  0.00     0.016 C 
ATOM      3  C   LIG d   1      -2.310  75.893 113.942  0.00  0.00     0.038 C 
ATOM      4  C   LIG d   1      -3.663  76.240 113.811  0.00  0.00     0.028 C 
ATOM      5  C   LIG d   1      -4.616  75.108 114.181  0.00  0.00    -0.047 C 
ATOM      6  C   LIG d   1      -4.229  74.561 115.574  0.00  0.00     0.091 C 
ENDROOT
BRANCH   1   7
ATOM      7  O   LIG d   1      -2.295  74.043 116.986  0.00  0.00    -0.368 OA
BRANCH   7   8
ATOM      8  C   LIG d   1      -0.941  74.496 117.232  0.00  0.00     0.119 C 
BRANCH   8   9
ATOM      9  C   LIG d   1      -0.128  73.281 117.720  0.00  0.00     0.028 C 
ATOM     10  C   LIG d   1      -0.769  72.598 118.940  0.00  0.00     0.006 C 
ENDBRANCH   8   9
BRANCH   8  11
ATOM     11  C   LIG d   1      -0.892  75.506 118.383  0.00  0.00     0.028 C 
ATOM     12  C   LIG d   1      -2.279  76.056 118.752  0.00  0.00     0.006 C 
ENDBRANCH   8  11
ENDBRANCH   7   8
ENDBRANCH   1   7
BRANCH   6  13
ATOM     13  N   LIG d   1      -5.059  73.395 115.975  0.00  0.00    -0.311 N 
ATOM     14  C   LIG d   1      -6.234  73.510 116.592  0.00  0.00     0.210 C 
ATOM     15  C   LIG d   1      -6.917  72.182 116.935  0.00  0.00     0.109 C 
ATOM     16  O   LIG d   1      -6.791  74.585 116.859  0.00  0.00    -0.276 OA
ATOM     17  H   LIG d   1      -4.698  72.485 115.768  0.00  0.00     0.149 HD
ENDBRANCH   6  13
BRANCH   5  18
ATOM     18  N   LIG d   1      -5.988  75.648 114.132  0.00  0.00     0.381 N 
ATOM     19  H   LIG d   1      -6.631  74.972 114.493  0.00  0.00    -0.090 HD
ATOM     20  H   LIG d   1      -6.230  75.835 113.175  0.00  0.00    -0.090 HD
ATOM     21  H   LIG d   1      -6.044  76.487 114.666  0.00  0.00    -0.090 HD
ENDBRANCH   5  18
BRANCH   3  22
ATOM     22  C   LIG d   1      -1.390  76.503 113.103  0.00  0.00     0.382 C 
ATOM     23  O   LIG d   1      -0.725  77.487 113.510  0.00  0.00    -0.241 OA
ATOM     24  O   LIG d   1      -1.247  76.110 111.929  0.00  0.00    -0.241 OA
ENDBRANCH   3  22
TORSDOF 7
ENDMDL
MODEL 4
REMARK VINA RESULT:      -5.2      6.120      8.863
REMARK  7 active torsions:
REMARK  status: ('A' for Active; 'I' for Inactive)
REMARK    1  A    between atoms: C_2  and  C_3 
REMARK    2  A    between atoms: C_3  and  O_6 
REMARK    3  A    between atoms: C_3  and  C_4 
REMARK    4  A    between atoms: C_7  and  O_6 
REMARK    5  A    between atoms: C_9  and  C_10 
REMARK    6  A    between atoms: N_15  and  C_14 
REMARK    7  A    between atoms: N_20  and  C_19 
REMARK       I    between atoms: C_22  and  N_20 
ROOT
ATOM      1  C   LIG d   1       1.508  82.557 112.624  0.00  0.00     0.161 C 
ATOM      2  C   LIG d   1       2.349  83.510 112.024  0.00  0.00     0.016 C 
ATOM      3  C   LIG d   1       2.579  83.578 110.631  0.00  0.00     0.038 C 
ATOM      4  C   LIG d   1       1.860  82.787 109.722  0.00  0.00     0.028 C 
ATOM      5  C   LIG d   1       1.377  81.469 110.316  0.00  0.00    -0.047 C 
ATOM      6  C   LIG d   1       0.630  81.758 111.638  0.00  0.00     0.091 C 
ENDROOT
BRANCH   1   7
ATOM      7  O   LIG d   1       0.688  83.191 113.625  0.00  0.00    -0.368 OA
BRANCH   7   8
ATOM      8  C   LIG d   1       0.613  84.637 113.567  0.00  0.00     0.119 C 
BRANCH   8   9
ATOM      9  C   LIG d   1       0.653  85.161 115.016  0.00  0.00     0.028 C 
ATOM     10  C   LIG d   1       1.779  86.184 115.239  0.00  0.00     0.006 C 
ENDBRANCH   8   9
BRANCH   8  11
ATOM     11  C   LIG d   1      -0.732  85.103 113.003  0.00  0.00     0.028 C 
ATOM     12  C   LIG d   1      -0.619  85.656 111.574  0.00  0.00     0.006 C 
ENDBRANCH   8  11
ENDBRANCH   7   8
ENDBRANCH   1   7
BRANCH   6  13
ATOM     13  N   LIG d   1       0.197  80.515 112.328  0.00  0.00    -0.311 N 
ATOM     14  C   LIG d   1      -0.936  79.875 112.043  0.00  0.00     0.210 C 
ATOM     15  C   LIG d   1      -1.202  78.625 112.887  0.00  0.00     0.109 C 
ATOM     16  O   LIG d   1      -1.730  80.207 111.150  0.00  0.00    -0.276 OA
ATOM     17  H   LIG d   1       0.797  80.159 113.046  0.00  0.00     0.149 HD
ENDBRANCH   6  13
BRANCH   5  18
ATOM     18  N   LIG d   1       0.528  80.809 109.306  0.00  0.00     0.381 N 
ATOM     19  H   LIG d   1       0.187  79.940 109.665  0.00  0.00    -0.090 HD
ATOM     20  H   LIG d   1       1.084  80.616 108.490  0.00  0.00    -0.090 HD
ATOM     21  H   LIG d   1      -0.236  81.400 109.064  0.00  0.00    -0.090 HD
ENDBRANCH   5  18
BRANCH   3  22
ATOM     22  C   LIG d   1       3.566  84.417 110.137  0.00  0.00     0.382 C 
ATOM     23  O   LIG d   1       3.601  85.620 110.492  0.00  0.00    -0.241 OA
ATOM     24  O   LIG d   1       4.395  83.998 109.308  0.00  0.00    -0.241 OA
ENDBRANCH   3  22
TORSDOF 7
ENDMDL
MODEL 5
REMARK VINA RESULT:      -5.0      7.190      9.631
REMARK  7 active torsions:
REMARK  status: ('A' for Active; 'I' for Inactive)
REMARK    1  A    between atoms: C_2  and  C_3 
REMARK    2  A    between atoms: C_3  and  O_6 
REMARK    3  A    between atoms: C_3  and  C_4 
REMARK    4  A    between atoms: C_7  and  O_6 
REMARK    5  A    between atoms: C_9  and  C_10 
REMARK    6  A    between atoms: N_15  and  C_14 
REMARK    7  A    between atoms: N_20  and  C_19 
REMARK       I    between atoms: C_22  and  N_20 
ROOT
ATOM      1  C   LIG d   1       1.684  83.999 113.313  0.00  0.00     0.161 C 
ATOM      2  C   LIG d   1       2.346  85.236 113.245  0.00  0.00     0.016 C 
ATOM      3  C   LIG d   1       2.330  86.066 112.100  0.00  0.00     0.038 C 
ATOM      4  C   LIG d   1       1.520  85.782 110.990  0.00  0.00     0.028 C 
ATOM      5  C   LIG d   1       1.232  84.295 110.816  0.00  0.00    -0.047 C 
ATOM      6  C   LIG d   1       0.704  83.726 112.152  0.00  0.00     0.091 C 
ENDROOT
BRANCH   1   7
ATOM      7  O   LIG d   1       1.007  83.876 114.579  0.00  0.00    -0.368 OA
BRANCH   7   8
ATOM      8  C   LIG d   1       1.525  82.871 115.485  0.00  0.00     0.119 C 
BRANCH   8   9
ATOM      9  C   LIG d   1       2.295  83.604 116.600  0.00  0.00     0.028 C 
ATOM     10  C   LIG d   1       3.810  83.639 116.342  0.00  0.00     0.006 C 
ENDBRANCH   8   9
BRANCH   8  11
ATOM     11  C   LIG d   1       2.563  81.981 114.794  0.00  0.00     0.028 C 
ATOM     12  C   LIG d   1       2.150  80.501 114.759  0.00  0.00     0.006 C 
ENDBRANCH   8  11
ENDBRANCH   7   8
ENDBRANCH   1   7
BRANCH   6  13
ATOM     13  N   LIG d   1       0.476  82.258 112.093  0.00  0.00    -0.311 N 
ATOM     14  C   LIG d   1      -0.718  81.710 111.879  0.00  0.00     0.210 C 
ATOM     15  C   LIG d   1      -0.736  80.178 111.876  0.00  0.00     0.109 C 
ATOM     16  O   LIG d   1      -1.760  82.347 111.659  0.00  0.00    -0.276 OA
ATOM     17  H   LIG d   1       1.273  81.667 112.229  0.00  0.00     0.149 HD
ENDBRANCH   6  13
BRANCH   5  18
ATOM     18  N   LIG d   1       0.268  84.155 109.708  0.00  0.00     0.381 N 
ATOM     19  H   LIG d   1       0.488  84.809 108.983  0.00  0.00    -0.090 HD
ATOM     20  H   LIG d   1      -0.654  84.362 110.050  0.00  0.00    -0.090 HD
ATOM     21  H   LIG d   1       0.295  83.227 109.347  0.00  0.00    -0.090 HD
ENDBRANCH   5  18
BRANCH   3  22
ATOM     22  C   LIG d   1       3.162  87.173 112.043  0.00  0.00     0.382 C 
ATOM     23  O   LIG d   1       2.715  88.309 112.334  0.00  0.00    -0.241 OA
ATOM     24  O   LIG d   1       4.342  87.058 111.660  0.00  0.00    -0.241 OA
ENDBRANCH   3  22
TORSDOF 7
ENDMDL
MODEL 6
REMARK VINA RESULT:      -5.0      3.653      6.164
REMARK  7 active torsions:
REMARK  status: ('A' for Active; 'I' for Inactive)
REMARK    1  A    between atoms: C_2  and  C_3 
REMARK    2  A    between atoms: C_3  and  O_6 
REMARK    3  A    between atoms: C_3  and  C_4 
REMARK    4  A    between atoms: C_7  and  O_6 
REMARK    5  A    between atoms: C_9  and  C_10 
REMARK    6  A    between atoms: N_15  and  C_14 
REMARK    7  A    between atoms: N_20  and  C_19 
REMARK       I    between atoms: C_22  and  N_20 
ROOT
ATOM      1  C   LIG d   1      -6.257  77.526 117.097  0.00  0.00     0.161 C 
ATOM      2  C   LIG d   1      -7.589  77.968 117.169  0.00  0.00     0.016 C 
ATOM      3  C   LIG d   1      -7.999  79.081 117.939  0.00  0.00     0.038 C 
ATOM      4  C   LIG d   1      -7.075  79.924 118.573  0.00  0.00     0.028 C 
ATOM      5  C   LIG d   1      -5.771  79.226 118.942  0.00  0.00    -0.047 C 
ATOM      6  C   LIG d   1      -5.219  78.500 117.693  0.00  0.00     0.091 C 
ENDROOT
BRANCH   1   7
ATOM      7  O   LIG d   1      -5.921  77.209 115.732  0.00  0.00    -0.368 OA
BRANCH   7   8
ATOM      8  C   LIG d   1      -6.170  75.844 115.314  0.00  0.00     0.119 C 
BRANCH   8   9
ATOM      9  C   LIG d   1      -5.618  74.915 116.413  0.00  0.00     0.028 C 
ATOM     10  C   LIG d   1      -6.509  73.684 116.644  0.00  0.00     0.006 C 
ENDBRANCH   8   9
BRANCH   8  11
ATOM     11  C   LIG d   1      -5.377  75.494 114.052  0.00  0.00     0.028 C 
ATOM     12  C   LIG d   1      -3.857  75.498 114.282  0.00  0.00     0.006 C 
ENDBRANCH   8  11
ENDBRANCH   7   8
ENDBRANCH   1   7
BRANCH   6  13
ATOM     13  N   LIG d   1      -3.989  77.721 117.988  0.00  0.00    -0.311 N 
ATOM     14  C   LIG d   1      -2.921  77.709 117.192  0.00  0.00     0.210 C 
ATOM     15  C   LIG d   1      -1.766  76.823 117.672  0.00  0.00     0.109 C 
ATOM     16  O   LIG d   1      -2.807  78.372 116.150  0.00  0.00    -0.276 OA
ATOM     17  H   LIG d   1      -3.983  77.178 118.829  0.00  0.00     0.149 HD
ENDBRANCH   6  13
BRANCH   5  18
ATOM     18  N   LIG d   1      -4.849  80.250 119.468  0.00  0.00     0.381 N 
ATOM     19  H   LIG d   1      -4.519  79.976 120.372  0.00  0.00    -0.090 HD
ATOM     20  H   LIG d   1      -5.348  81.117 119.565  0.00  0.00    -0.090 HD
ATOM     21  H   LIG d   1      -4.080  80.369 118.847  0.00  0.00    -0.090 HD
ENDBRANCH   5  18
BRANCH   3  22
ATOM     22  C   LIG d   1      -9.351  79.336 118.112  0.00  0.00     0.382 C 
ATOM     23  O   LIG d   1      -9.822  80.456 117.801  0.00  0.00    -0.241 OA
ATOM     24  O   LIG d   1     -10.096  78.475 118.616  0.00  0.00    -0.241 OA
ENDBRANCH   3  22
TORSDOF 7
ENDMDL
MODEL 7
REMARK VINA RESULT:      -5.0      5.910      8.318
REMARK  7 active torsions:
REMARK  status: ('A' for Active; 'I' for Inactive)
REMARK    1  A    between atoms: C_2  and  C_3 
REMARK    2  A    between atoms: C_3  and  O_6 
REMARK    3  A    between atoms: C_3  and  C_4 
REMARK    4  A    between atoms: C_7  and  O_6 
REMARK    5  A    between atoms: C_9  and  C_10 
REMARK    6  A    between atoms: N_15  and  C_14 
REMARK    7  A    between atoms: N_20  and  C_19 
REMARK       I    between atoms: C_22  and  N_20 
ROOT
ATOM      1  C   LIG d   1       1.522  82.406 112.737  0.00  0.00     0.161 C 
ATOM      2  C   LIG d   1       2.185  83.515 112.185  0.00  0.00     0.016 C 
ATOM      3  C   LIG d   1       2.134  83.847 110.812  0.00  0.00     0.038 C 
ATOM      4  C   LIG d   1       1.288  83.175 109.917  0.00  0.00     0.028 C 
ATOM      5  C   LIG d   1       0.989  81.737 110.330  0.00  0.00    -0.047 C 
ATOM      6  C   LIG d   1       0.504  81.727 111.797  0.00  0.00     0.091 C 
ENDROOT
BRANCH   1   7
ATOM      7  O   LIG d   1       0.887  82.784 113.975  0.00  0.00    -0.368 OA
BRANCH   7   8
ATOM      8  C   LIG d   1       1.545  82.347 115.189  0.00  0.00     0.119 C 
BRANCH   8   9
ATOM      9  C   LIG d   1       2.360  83.538 115.728  0.00  0.00     0.028 C 
ATOM     10  C   LIG d   1       3.729  83.109 116.282  0.00  0.00     0.006 C 
ENDBRANCH   8   9
BRANCH   8  11
ATOM     11  C   LIG d   1       2.573  81.249 114.901  0.00  0.00     0.028 C 
ATOM     12  C   LIG d   1       2.105  79.859 115.359  0.00  0.00     0.006 C 
ENDBRANCH   8  11
ENDBRANCH   7   8
ENDBRANCH   1   7
BRANCH   6  13
ATOM     13  N   LIG d   1       0.270  80.351 112.307  0.00  0.00    -0.311 N 
ATOM     14  C   LIG d   1      -0.890  79.709 112.179  0.00  0.00     0.210 C 
ATOM     15  C   LIG d   1      -0.924  78.306 112.794  0.00  0.00     0.109 C 
ATOM     16  O   LIG d   1      -1.884  80.156 111.587  0.00  0.00    -0.276 OA
ATOM     17  H   LIG d   1       1.034  79.901 112.774  0.00  0.00     0.149 HD
ENDBRANCH   6  13
BRANCH   5  18
ATOM     18  N   LIG d   1      -0.011  81.202 109.387  0.00  0.00     0.381 N 
ATOM     19  H   LIG d   1      -0.732  81.879 109.237  0.00  0.00    -0.090 HD
ATOM     20  H   LIG d   1      -0.428  80.380 109.787  0.00  0.00    -0.090 HD
ATOM     21  H   LIG d   1       0.425  80.974 108.521  0.00  0.00    -0.090 HD
ENDBRANCH   5  18
BRANCH   3  22
ATOM     22  C   LIG d   1       2.967  84.837 110.313  0.00  0.00     0.382 C 
ATOM     23  O   LIG d   1       2.625  86.041 110.390  0.00  0.00    -0.241 OA
ATOM     24  O   LIG d   1       4.036  84.537 109.746  0.00  0.00    -0.241 OA
ENDBRANCH   3  22
TORSDOF 7
ENDMDL
MODEL 8
REMARK VINA RESULT:      -4.9     14.453     16.661
REMARK  7 active torsions:
REMARK  status: ('A' for Active; 'I' for Inactive)
REMARK    1  A    between atoms: C_2  and  C_3 
REMARK    2  A    between atoms: C_3  and  O_6 
REMARK    3  A    between atoms: C_3  and  C_4 
REMARK    4  A    between atoms: C_7  and  O_6 
REMARK    5  A    between atoms: C_9  and  C_10 
REMARK    6  A    between atoms: N_15  and  C_14 
REMARK    7  A    between atoms: N_20  and  C_19 
REMARK       I    between atoms: C_22  and  N_20 
ROOT
ATOM      1  C   LIG d   1      -4.840  92.044 117.700  0.00  0.00     0.161 C 
ATOM      2  C   LIG d   1      -5.048  93.219 118.441  0.00  0.00     0.016 C 
ATOM      3  C   LIG d   1      -6.033  94.180 118.116  0.00  0.00     0.038 C 
ATOM      4  C   LIG d   1      -6.984  93.955 117.109  0.00  0.00     0.028 C 
ATOM      5  C   LIG d   1      -6.495  93.015 116.013  0.00  0.00    -0.047 C 
ATOM      6  C   LIG d   1      -5.941  91.728 116.665  0.00  0.00     0.091 C 
ENDROOT
BRANCH   1   7
ATOM      7  O   LIG d   1      -4.659  90.928 118.595  0.00  0.00    -0.368 OA
BRANCH   7   8
ATOM      8  C   LIG d   1      -3.289  90.532 118.850  0.00  0.00     0.119 C 
BRANCH   8   9
ATOM      9  C   LIG d   1      -2.466  90.872 117.592  0.00  0.00     0.028 C 
ATOM     10  C   LIG d   1      -1.176  91.640 117.925  0.00  0.00     0.006 C 
ENDBRANCH   8   9
BRANCH   8  11
ATOM     11  C   LIG d   1      -3.169  89.014 119.014  0.00  0.00     0.028 C 
ATOM     12  C   LIG d   1      -2.838  88.296 117.696  0.00  0.00     0.006 C 
ENDBRANCH   8  11
ENDBRANCH   7   8
ENDBRANCH   1   7
BRANCH   6  13
ATOM     13  N   LIG d   1      -5.364  90.790 115.668  0.00  0.00    -0.311 N 
ATOM     14  C   LIG d   1      -5.685  89.498 115.605  0.00  0.00     0.210 C 
ATOM     15  C   LIG d   1      -4.960  88.704 114.514  0.00  0.00     0.109 C 
ATOM     16  O   LIG d   1      -6.525  88.943 116.328  0.00  0.00    -0.276 OA
ATOM     17  H   LIG d   1      -4.697  91.164 115.022  0.00  0.00     0.149 HD
ENDBRANCH   6  13
BRANCH   5  18
ATOM     18  N   LIG d   1      -7.629  92.761 115.105  0.00  0.00     0.381 N 
ATOM     19  H   LIG d   1      -7.842  91.783 115.094  0.00  0.00    -0.090 HD
ATOM     20  H   LIG d   1      -7.369  93.037 114.175  0.00  0.00    -0.090 HD
ATOM     21  H   LIG d   1      -8.427  93.278 115.403  0.00  0.00    -0.090 HD
ENDBRANCH   5  18
BRANCH   3  22
ATOM     22  C   LIG d   1      -6.048  95.399 118.776  0.00  0.00     0.382 C 
ATOM     23  O   LIG d   1      -7.089  96.099 118.777  0.00  0.00    -0.241 OA
ATOM     24  O   LIG d   1      -5.020  95.829 119.333  0.00  0.00    -0.241 OA
ENDBRANCH   3  22
TORSDOF 7
ENDMDL
MODEL 9
REMARK VINA RESULT:      -4.8      1.892      5.053
REMARK  7 active torsions:
REMARK  status: ('A' for Active; 'I' for Inactive)
REMARK    1  A    between atoms: C_2  and  C_3 
REMARK    2  A    between atoms: C_3  and  O_6 
REMARK    3  A    between atoms: C_3  and  C_4 
REMARK    4  A    between atoms: C_7  and  O_6 
REMARK    5  A    between atoms: C_9  and  C_10 
REMARK    6  A    between atoms: N_15  and  C_14 
REMARK    7  A    between atoms: N_20  and  C_19 
REMARK       I    between atoms: C_22  and  N_20 
ROOT
ATOM      1  C   LIG d   1      -3.001  75.198 114.940  0.00  0.00     0.161 C 
ATOM      2  C   LIG d   1      -2.695  74.327 115.999  0.00  0.00     0.016 C 
ATOM      3  C   LIG d   1      -1.437  74.298 116.644  0.00  0.00     0.038 C 
ATOM      4  C   LIG d   1      -0.442  75.249 116.372  0.00  0.00     0.028 C 
ATOM      5  C   LIG d   1      -0.524  75.824 114.962  0.00  0.00    -0.047 C 
ATOM      6  C   LIG d   1      -1.966  76.317 114.704  0.00  0.00     0.091 C 
ENDROOT
BRANCH   1   7
ATOM      7  O   LIG d   1      -4.313  75.761 115.135  0.00  0.00    -0.368 OA
BRANCH   7   8
ATOM      8  C   LIG d   1      -4.637  76.170 116.486  0.00  0.00     0.119 C 
BRANCH   8   9
ATOM      9  C   LIG d   1      -6.087  75.730 116.768  0.00  0.00     0.028 C 
ATOM     10  C   LIG d   1      -6.303  74.227 116.521  0.00  0.00     0.006 C 
ENDBRANCH   8   9
BRANCH   8  11
ATOM     11  C   LIG d   1      -4.644  77.696 116.620  0.00  0.00     0.028 C 
ATOM     12  C   LIG d   1      -3.471  78.225 117.461  0.00  0.00     0.006 C 
ENDBRANCH   8  11
ENDBRANCH   7   8
ENDBRANCH   1   7
BRANCH   6  13
ATOM     13  N   LIG d   1      -2.154  76.818 113.317  0.00  0.00    -0.311 N 
ATOM     14  C   LIG d   1      -2.545  78.059 113.033  0.00  0.00     0.210 C 
ATOM     15  C   LIG d   1      -2.696  78.363 111.539  0.00  0.00     0.109 C 
ATOM     16  O   LIG d   1      -2.751  78.947 113.875  0.00  0.00    -0.276 OA
ATOM     17  H   LIG d   1      -1.979  76.173 112.572  0.00  0.00     0.149 HD
ENDBRANCH   6  13
BRANCH   5  18
ATOM     18  N   LIG d   1       0.481  76.899 114.860  0.00  0.00     0.381 N 
ATOM     19  H   LIG d   1       1.391  76.502 114.733  0.00  0.00    -0.090 HD
ATOM     20  H   LIG d   1       0.484  77.424 115.717  0.00  0.00    -0.090 HD
ATOM     21  H   LIG d   1       0.263  77.499 114.096  0.00  0.00    -0.090 HD
ENDBRANCH   5  18
BRANCH   3  22
ATOM     22  C   LIG d   1      -1.150  73.285 117.546  0.00  0.00     0.382 C 
ATOM     23  O   LIG d   1      -0.833  72.145 117.128  0.00  0.00    -0.241 OA
ATOM     24  O   LIG d   1      -1.247  73.483 118.772  0.00  0.00    -0.241 OA
ENDBRANCH   3  22
TORSDOF 7
ENDMDL
