MODEL 1
REMARK VINA RESULT:      -6.4      0.000      0.000
REMARK  7 active torsions:
REMARK  status: ('A' for Active; 'I' for Inactive)
REMARK    1  A    between atoms: C_2  and  C_3 
REMARK    2  A    between atoms: C_3  and  O_6 
REMARK    3  A    between atoms: C_3  and  C_4 
REMARK    4  A    between atoms: C_7  and  O_6 
REMARK    5  A    between atoms: C_9  and  C_10 
REMARK    6  A    between atoms: N_15  and  C_14 
REMARK    7  A    between atoms: N_20  and  C_19 
REMARK       I    between atoms: C_22  and  N_20 
ROOT
ATOM      1  C   LIG d   1       2.079  84.024 111.439  0.00  0.00     0.161 C 
ATOM      2  C   LIG d   1       1.062  83.056 111.489  0.00  0.00     0.016 C 
ATOM      3  C   LIG d   1      -0.036  83.126 112.377  0.00  0.00     0.038 C 
ATOM      4  C   LIG d   1      -0.272  84.254 113.177  0.00  0.00     0.028 C 
ATOM      5  C   LIG d   1       0.996  85.025 113.526  0.00  0.00    -0.047 C 
ATOM      6  C   LIG d   1       1.780  85.317 112.226  0.00  0.00     0.091 C 
ENDROOT
BRANCH   1   7
ATOM      7  O   LIG d   1       2.392  84.333 110.066  0.00  0.00    -0.368 OA
BRANCH   7   8
ATOM      8  C   LIG d   1       1.321  84.140 109.109  0.00  0.00     0.119 C 
BRANCH   8   9
ATOM      9  C   LIG d   1       1.940  83.521 107.841  0.00  0.00     0.028 C 
ATOM     10  C   LIG d   1       3.015  82.470 108.166  0.00  0.00     0.006 C 
ENDBRANCH   8   9
BRANCH   8  11
ATOM     11  C   LIG d   1       0.728  85.479 108.659  0.00  0.00     0.028 C 
ATOM     12  C   LIG d   1      -0.572  85.832 109.397  0.00  0.00     0.006 C 
ENDBRANCH   8  11
ENDBRANCH   7   8
ENDBRANCH   1   7
BRANCH   6  13
ATOM     13  N   LIG d   1       3.077  85.996 112.485  0.00  0.00    -0.311 N 
ATOM     14  C   LIG d   1       3.409  87.170 111.952  0.00  0.00     0.210 C 
ATOM     15  C   LIG d   1       4.802  87.682 112.334  0.00  0.00     0.109 C 
ATOM     16  O   LIG d   1       2.671  87.851 111.225  0.00  0.00    -0.276 OA
ATOM     17  H   LIG d   1       3.723  85.527 113.089  0.00  0.00     0.149 HD
ENDBRANCH   6  13
BRANCH   5  18
ATOM     18  N   LIG d   1       0.591  86.249 114.243  0.00  0.00     0.381 N 
ATOM     19  H   LIG d   1       0.504  86.055 115.221  0.00  0.00    -0.090 HD
ATOM     20  H   LIG d   1      -0.305  86.546 113.899  0.00  0.00    -0.090 HD
ATOM     21  H   LIG d   1       1.265  86.968 114.099  0.00  0.00    -0.090 HD
ENDBRANCH   5  18
BRANCH   3  22
ATOM     22  C   LIG d   1      -0.890  82.041 112.501  0.00  0.00     0.382 C 
ATOM     23  O   LIG d   1      -0.503  81.002 113.088  0.00  0.00    -0.241 OA
ATOM     24  O   LIG d   1      -2.027  82.071 111.993  0.00  0.00    -0.241 OA
ENDBRANCH   3  22
TORSDOF 7
ENDMDL
MODEL 2
REMARK VINA RESULT:      -6.2      2.861      5.029
REMARK  7 active torsions:
REMARK  status: ('A' for Active; 'I' for Inactive)
REMARK    1  A    between atoms: C_2  and  C_3 
REMARK    2  A    between atoms: C_3  and  O_6 
REMARK    3  A    between atoms: C_3  and  C_4 
REMARK    4  A    between atoms: C_7  and  O_6 
REMARK    5  A    between atoms: C_9  and  C_10 
REMARK    6  A    between atoms: N_15  and  C_14 
REMARK    7  A    between atoms: N_20  and  C_19 
REMARK       I    between atoms: C_22  and  N_20 
ROOT
ATOM      1  C   LIG d   1       2.480  85.020 110.420  0.00  0.00     0.161 C 
ATOM      2  C   LIG d   1       1.431  85.766 110.982  0.00  0.00     0.016 C 
ATOM      3  C   LIG d   1       0.119  85.265 111.141  0.00  0.00     0.038 C 
ATOM      4  C   LIG d   1      -0.199  83.923 110.884  0.00  0.00     0.028 C 
ATOM      5  C   LIG d   1       0.705  83.275 109.841  0.00  0.00    -0.047 C 
ATOM      6  C   LIG d   1       2.180  83.517 110.236  0.00  0.00     0.091 C 
ENDROOT
BRANCH   1   7
ATOM      7  O   LIG d   1       3.680  85.199 111.198  0.00  0.00    -0.368 OA
BRANCH   7   8
ATOM      8  C   LIG d   1       3.666  86.293 112.148  0.00  0.00     0.119 C 
BRANCH   8   9
ATOM      9  C   LIG d   1       4.760  87.291 111.721  0.00  0.00     0.028 C 
ATOM     10  C   LIG d   1       5.447  87.959 112.924  0.00  0.00     0.006 C 
ENDBRANCH   8   9
BRANCH   8  11
ATOM     11  C   LIG d   1       4.071  85.821 113.548  0.00  0.00     0.028 C 
ATOM     12  C   LIG d   1       3.986  84.296 113.710  0.00  0.00     0.006 C 
ENDBRANCH   8  11
ENDBRANCH   7   8
ENDBRANCH   1   7
BRANCH   6  13
ATOM     13  N   LIG d   1       3.132  82.988 109.225  0.00  0.00    -0.311 N 
ATOM     14  C   LIG d   1       4.029  82.040 109.488  0.00  0.00     0.210 C 
ATOM     15  C   LIG d   1       4.927  81.654 108.309  0.00  0.00     0.109 C 
ATOM     16  O   LIG d   1       4.146  81.460 110.578  0.00  0.00    -0.276 OA
ATOM     17  H   LIG d   1       3.085  83.381 108.305  0.00  0.00     0.149 HD
ENDBRANCH   6  13
BRANCH   5  18
ATOM     18  N   LIG d   1       0.352  81.845 109.773  0.00  0.00     0.381 N 
ATOM     19  H   LIG d   1      -0.594  81.715 110.070  0.00  0.00    -0.090 HD
ATOM     20  H   LIG d   1       0.951  81.332 110.395  0.00  0.00    -0.090 HD
ATOM     21  H   LIG d   1       0.464  81.510 108.841  0.00  0.00    -0.090 HD
ENDBRANCH   5  18
BRANCH   3  22
ATOM     22  C   LIG d   1      -0.902  86.123 111.523  0.00  0.00     0.382 C 
ATOM     23  O   LIG d   1      -1.339  86.977 110.715  0.00  0.00    -0.241 OA
ATOM     24  O   LIG d   1      -1.361  86.082 112.681  0.00  0.00    -0.241 OA
ENDBRANCH   3  22
TORSDOF 7
ENDMDL
MODEL 3
REMARK VINA RESULT:      -6.1      2.536      5.299
REMARK  7 active torsions:
REMARK  status: ('A' for Active; 'I' for Inactive)
REMARK    1  A    between atoms: C_2  and  C_3 
REMARK    2  A    between atoms: C_3  and  O_6 
REMARK    3  A    between atoms: C_3  and  C_4 
REMARK    4  A    between atoms: C_7  and  O_6 
REMARK    5  A    between atoms: C_9  and  C_10 
REMARK    6  A    between atoms: N_15  and  C_14 
REMARK    7  A    between atoms: N_20  and  C_19 
REMARK       I    between atoms: C_22  and  N_20 
ROOT
ATOM      1  C   LIG d   1       2.517  83.261 111.469  0.00  0.00     0.161 C 
ATOM      2  C   LIG d   1       3.495  83.166 110.465  0.00  0.00     0.016 C 
ATOM      3  C   LIG d   1       3.430  82.236 109.402  0.00  0.00     0.038 C 
ATOM      4  C   LIG d   1       2.299  81.435 109.185  0.00  0.00     0.028 C 
ATOM      5  C   LIG d   1       1.513  81.140 110.458  0.00  0.00    -0.047 C 
ATOM      6  C   LIG d   1       1.222  82.471 111.187  0.00  0.00     0.091 C 
ENDROOT
BRANCH   1   7
ATOM      7  O   LIG d   1       2.214  84.646 111.726  0.00  0.00    -0.368 OA
BRANCH   7   8
ATOM      8  C   LIG d   1       2.417  85.559 110.619  0.00  0.00     0.119 C 
BRANCH   8   9
ATOM      9  C   LIG d   1       3.040  86.847 111.190  0.00  0.00     0.028 C 
ATOM     10  C   LIG d   1       4.568  86.748 111.331  0.00  0.00     0.006 C 
ENDBRANCH   8   9
BRANCH   8  11
ATOM     11  C   LIG d   1       1.084  85.992 110.002  0.00  0.00     0.028 C 
ATOM     12  C   LIG d   1       0.825  85.348 108.631  0.00  0.00     0.006 C 
ENDBRANCH   8  11
ENDBRANCH   7   8
ENDBRANCH   1   7
BRANCH   6  13
ATOM     13  N   LIG d   1       0.529  82.266 112.486  0.00  0.00    -0.311 N 
ATOM     14  C   LIG d   1      -0.797  82.254 112.616  0.00  0.00     0.210 C 
ATOM     15  C   LIG d   1      -1.305  82.047 114.046  0.00  0.00     0.109 C 
ATOM     16  O   LIG d   1      -1.600  82.363 111.677  0.00  0.00    -0.276 OA
ATOM     17  H   LIG d   1       1.104  82.138 113.295  0.00  0.00     0.149 HD
ENDBRANCH   6  13
BRANCH   5  18
ATOM     18  N   LIG d   1       0.289  80.415 110.068  0.00  0.00     0.381 N 
ATOM     19  H   LIG d   1       0.452  79.428 110.109  0.00  0.00    -0.090 HD
ATOM     20  H   LIG d   1       0.056  80.656 109.120  0.00  0.00    -0.090 HD
ATOM     21  H   LIG d   1      -0.461  80.660 110.675  0.00  0.00    -0.090 HD
ENDBRANCH   5  18
BRANCH   3  22
ATOM     22  C   LIG d   1       4.523  82.073 108.564  0.00  0.00     0.382 C 
ATOM     23  O   LIG d   1       4.868  80.923 108.200  0.00  0.00    -0.241 OA
ATOM     24  O   LIG d   1       5.196  83.058 108.204  0.00  0.00    -0.241 OA
ENDBRANCH   3  22
TORSDOF 7
ENDMDL
MODEL 4
REMARK VINA RESULT:      -6.0      2.760      5.974
REMARK  7 active torsions:
REMARK  status: ('A' for Active; 'I' for Inactive)
REMARK    1  A    between atoms: C_2  and  C_3 
REMARK    2  A    between atoms: C_3  and  O_6 
REMARK    3  A    between atoms: C_3  and  C_4 
REMARK    4  A    between atoms: C_7  and  O_6 
REMARK    5  A    between atoms: C_9  and  C_10 
REMARK    6  A    between atoms: N_15  and  C_14 
REMARK    7  A    between atoms: N_20  and  C_19 
REMARK       I    between atoms: C_22  and  N_20 
ROOT
ATOM      1  C   LIG d   1       3.403  83.129 111.400  0.00  0.00     0.161 C 
ATOM      2  C   LIG d   1       3.616  84.492 111.666  0.00  0.00     0.016 C 
ATOM      3  C   LIG d   1       3.155  85.530 110.823  0.00  0.00     0.038 C 
ATOM      4  C   LIG d   1       2.315  85.279 109.728  0.00  0.00     0.028 C 
ATOM      5  C   LIG d   1       2.493  83.885 109.135  0.00  0.00    -0.047 C 
ATOM      6  C   LIG d   1       2.393  82.840 110.270  0.00  0.00     0.091 C 
ENDROOT
BRANCH   1   7
ATOM      7  O   LIG d   1       3.009  82.451 112.610  0.00  0.00    -0.368 OA
BRANCH   7   8
ATOM      8  C   LIG d   1       1.825  82.963 113.270  0.00  0.00     0.119 C 
BRANCH   8   9
ATOM      9  C   LIG d   1       2.155  83.101 114.769  0.00  0.00     0.028 C 
ATOM     10  C   LIG d   1       1.264  84.139 115.473  0.00  0.00     0.006 C 
ENDBRANCH   8   9
BRANCH   8  11
ATOM     11  C   LIG d   1       0.670  81.960 113.200  0.00  0.00     0.028 C 
ATOM     12  C   LIG d   1      -0.574  82.533 112.502  0.00  0.00     0.006 C 
ENDBRANCH   8  11
ENDBRANCH   7   8
ENDBRANCH   1   7
BRANCH   6  13
ATOM     13  N   LIG d   1       2.640  81.456 109.789  0.00  0.00    -0.311 N 
ATOM     14  C   LIG d   1       1.665  80.592 109.510  0.00  0.00     0.210 C 
ATOM     15  C   LIG d   1       2.139  79.210 109.048  0.00  0.00     0.109 C 
ATOM     16  O   LIG d   1       0.453  80.849 109.571  0.00  0.00    -0.276 OA
ATOM     17  H   LIG d   1       3.594  81.174 109.681  0.00  0.00     0.149 HD
ENDBRANCH   6  13
BRANCH   5  18
ATOM     18  N   LIG d   1       1.463  83.709 108.094  0.00  0.00     0.381 N 
ATOM     19  H   LIG d   1       1.134  84.603 107.788  0.00  0.00    -0.090 HD
ATOM     20  H   LIG d   1       0.687  83.205 108.487  0.00  0.00    -0.090 HD
ATOM     21  H   LIG d   1       1.841  83.204 107.323  0.00  0.00    -0.090 HD
ENDBRANCH   5  18
BRANCH   3  22
ATOM     22  C   LIG d   1       3.570  86.834 111.050  0.00  0.00     0.382 C 
ATOM     23  O   LIG d   1       4.794  87.098 111.125  0.00  0.00    -0.241 OA
ATOM     24  O   LIG d   1       2.734  87.741 111.224  0.00  0.00    -0.241 OA
ENDBRANCH   3  22
TORSDOF 7
ENDMDL
MODEL 5
REMARK VINA RESULT:      -6.0      2.604      4.320
REMARK  7 active torsions:
REMARK  status: ('A' for Active; 'I' for Inactive)
REMARK    1  A    between atoms: C_2  and  C_3 
REMARK    2  A    between atoms: C_3  and  O_6 
REMARK    3  A    between atoms: C_3  and  C_4 
REMARK    4  A    between atoms: C_7  and  O_6 
REMARK    5  A    between atoms: C_9  and  C_10 
REMARK    6  A    between atoms: N_15  and  C_14 
REMARK    7  A    between atoms: N_20  and  C_19 
REMARK       I    between atoms: C_22  and  N_20 
ROOT
ATOM      1  C   LIG d   1       0.711  83.006 111.119  0.00  0.00     0.161 C 
ATOM      2  C   LIG d   1      -0.435  82.919 111.927  0.00  0.00     0.016 C 
ATOM      3  C   LIG d   1      -1.138  81.713 112.153  0.00  0.00     0.038 C 
ATOM      4  C   LIG d   1      -0.651  80.476 111.705  0.00  0.00     0.028 C 
ATOM      5  C   LIG d   1       0.227  80.584 110.463  0.00  0.00    -0.047 C 
ATOM      6  C   LIG d   1       1.321  81.648 110.713  0.00  0.00     0.091 C 
ENDROOT
BRANCH   1   7
ATOM      7  O   LIG d   1       1.703  83.827 111.766  0.00  0.00    -0.368 OA
BRANCH   7   8
ATOM      8  C   LIG d   1       1.906  85.146 111.202  0.00  0.00     0.119 C 
BRANCH   8   9
ATOM      9  C   LIG d   1       0.766  85.399 110.196  0.00  0.00     0.028 C 
ATOM     10  C   LIG d   1       1.253  85.371 108.738  0.00  0.00     0.006 C 
ENDBRANCH   8   9
BRANCH   8  11
ATOM     11  C   LIG d   1       3.195  85.207 110.377  0.00  0.00     0.028 C 
ATOM     12  C   LIG d   1       4.209  86.221 110.931  0.00  0.00     0.006 C 
ENDBRANCH   8  11
ENDBRANCH   7   8
ENDBRANCH   1   7
BRANCH   6  13
ATOM     13  N   LIG d   1       2.173  81.877 109.517  0.00  0.00    -0.311 N 
ATOM     14  C   LIG d   1       3.500  81.764 109.529  0.00  0.00     0.210 C 
ATOM     15  C   LIG d   1       4.187  82.063 108.193  0.00  0.00     0.109 C 
ATOM     16  O   LIG d   1       4.170  81.413 110.512  0.00  0.00    -0.276 OA
ATOM     17  H   LIG d   1       1.708  82.135 108.668  0.00  0.00     0.149 HD
ENDBRANCH   6  13
BRANCH   5  18
ATOM     18  N   LIG d   1       0.777  79.243 110.188  0.00  0.00     0.381 N 
ATOM     19  H   LIG d   1       0.176  78.544 110.576  0.00  0.00    -0.090 HD
ATOM     20  H   LIG d   1       1.677  79.164 110.627  0.00  0.00    -0.090 HD
ATOM     21  H   LIG d   1       0.866  79.106 109.205  0.00  0.00    -0.090 HD
ENDBRANCH   5  18
BRANCH   3  22
ATOM     22  C   LIG d   1      -2.364  81.743 112.800  0.00  0.00     0.382 C 
ATOM     23  O   LIG d   1      -3.389  81.311 112.221  0.00  0.00    -0.241 OA
ATOM     24  O   LIG d   1      -2.464  82.237 113.939  0.00  0.00    -0.241 OA
ENDBRANCH   3  22
TORSDOF 7
ENDMDL
MODEL 6
REMARK VINA RESULT:      -5.9      3.157      6.070
REMARK  7 active torsions:
REMARK  status: ('A' for Active; 'I' for Inactive)
REMARK    1  A    between atoms: C_2  and  C_3 
REMARK    2  A    between atoms: C_3  and  O_6 
REMARK    3  A    between atoms: C_3  and  C_4 
REMARK    4  A    between atoms: C_7  and  O_6 
REMARK    5  A    between atoms: C_9  and  C_10 
REMARK    6  A    between atoms: N_15  and  C_14 
REMARK    7  A    between atoms: N_20  and  C_19 
REMARK       I    between atoms: C_22  and  N_20 
ROOT
ATOM      1  C   LIG d   1       1.372  81.818 112.009  0.00  0.00     0.161 C 
ATOM      2  C   LIG d   1       2.557  82.369 111.496  0.00  0.00     0.016 C 
ATOM      3  C   LIG d   1       2.970  82.215 110.152  0.00  0.00     0.038 C 
ATOM      4  C   LIG d   1       2.143  81.623 109.186  0.00  0.00     0.028 C 
ATOM      5  C   LIG d   1       1.163  80.609 109.767  0.00  0.00    -0.047 C 
ATOM      6  C   LIG d   1       0.403  81.263 110.943  0.00  0.00     0.091 C 
ENDROOT
BRANCH   1   7
ATOM      7  O   LIG d   1       0.701  82.787 112.839  0.00  0.00    -0.368 OA
BRANCH   7   8
ATOM      8  C   LIG d   1       0.937  84.178 112.512  0.00  0.00     0.119 C 
BRANCH   8   9
ATOM      9  C   LIG d   1       1.153  84.935 113.837  0.00  0.00     0.028 C 
ATOM     10  C   LIG d   1      -0.099  84.923 114.730  0.00  0.00     0.006 C 
ENDBRANCH   8   9
BRANCH   8  11
ATOM     11  C   LIG d   1      -0.300  84.819 111.876  0.00  0.00     0.028 C 
ATOM     12  C   LIG d   1      -0.263  84.790 110.340  0.00  0.00     0.006 C 
ENDBRANCH   8  11
ENDBRANCH   7   8
ENDBRANCH   1   7
BRANCH   6  13
ATOM     13  N   LIG d   1      -0.516  80.312 111.623  0.00  0.00    -0.311 N 
ATOM     14  C   LIG d   1      -1.722  80.653 112.072  0.00  0.00     0.210 C 
ATOM     15  C   LIG d   1      -2.499  79.526 112.760  0.00  0.00     0.109 C 
ATOM     16  O   LIG d   1      -2.236  81.774 111.938  0.00  0.00    -0.276 OA
ATOM     17  H   LIG d   1      -0.191  79.373 111.746  0.00  0.00     0.149 HD
ENDBRANCH   6  13
BRANCH   5  18
ATOM     18  N   LIG d   1       0.273  80.172 108.675  0.00  0.00     0.381 N 
ATOM     19  H   LIG d   1       0.435  79.206 108.472  0.00  0.00    -0.090 HD
ATOM     20  H   LIG d   1       0.484  80.707 107.851  0.00  0.00    -0.090 HD
ATOM     21  H   LIG d   1      -0.678  80.309 108.935  0.00  0.00    -0.090 HD
ENDBRANCH   5  18
BRANCH   3  22
ATOM     22  C   LIG d   1       4.240  82.622 109.772  0.00  0.00     0.382 C 
ATOM     23  O   LIG d   1       5.002  83.161 110.610  0.00  0.00    -0.241 OA
ATOM     24  O   LIG d   1       4.616  82.498 108.591  0.00  0.00    -0.241 OA
ENDBRANCH   3  22
TORSDOF 7
ENDMDL
MODEL 7
REMARK VINA RESULT:      -5.9      1.816      5.021
REMARK  7 active torsions:
REMARK  status: ('A' for Active; 'I' for Inactive)
REMARK    1  A    between atoms: C_2  and  C_3 
REMARK    2  A    between atoms: C_3  and  O_6 
REMARK    3  A    between atoms: C_3  and  C_4 
REMARK    4  A    between atoms: C_7  and  O_6 
REMARK    5  A    between atoms: C_9  and  C_10 
REMARK    6  A    between atoms: N_15  and  C_14 
REMARK    7  A    between atoms: N_20  and  C_19 
REMARK       I    between atoms: C_22  and  N_20 
ROOT
ATOM      1  C   LIG d   1       0.841  84.022 110.384  0.00  0.00     0.161 C 
ATOM      2  C   LIG d   1       1.805  85.035 110.251  0.00  0.00     0.016 C 
ATOM      3  C   LIG d   1       2.393  85.699 111.352  0.00  0.00     0.038 C 
ATOM      4  C   LIG d   1       2.165  85.288 112.673  0.00  0.00     0.028 C 
ATOM      5  C   LIG d   1       0.817  84.604 112.872  0.00  0.00    -0.047 C 
ATOM      6  C   LIG d   1       0.663  83.483 111.819  0.00  0.00     0.091 C 
ENDROOT
BRANCH   1   7
ATOM      7  O   LIG d   1       1.139  82.942 109.477  0.00  0.00    -0.368 OA
BRANCH   7   8
ATOM      8  C   LIG d   1       2.442  82.326 109.624  0.00  0.00     0.119 C 
BRANCH   8   9
ATOM      9  C   LIG d   1       3.105  82.305 108.233  0.00  0.00     0.028 C 
ATOM     10  C   LIG d   1       4.638  82.212 108.314  0.00  0.00     0.006 C 
ENDBRANCH   8   9
BRANCH   8  11
ATOM     11  C   LIG d   1       2.321  80.857 110.039  0.00  0.00     0.028 C 
ATOM     12  C   LIG d   1       0.969  80.238 109.651  0.00  0.00     0.006 C 
ENDBRANCH   8  11
ENDBRANCH   7   8
ENDBRANCH   1   7
BRANCH   6  13
ATOM     13  N   LIG d   1      -0.664  82.818 111.888  0.00  0.00    -0.311 N 
ATOM     14  C   LIG d   1      -0.883  81.686 112.554  0.00  0.00     0.210 C 
ATOM     15  C   LIG d   1      -2.320  81.160 112.480  0.00  0.00     0.109 C 
ATOM     16  O   LIG d   1      -0.032  81.084 113.225  0.00  0.00    -0.276 OA
ATOM     17  H   LIG d   1      -1.420  83.256 111.397  0.00  0.00     0.149 HD
ENDBRANCH   6  13
BRANCH   5  18
ATOM     18  N   LIG d   1       0.770  84.105 114.259  0.00  0.00     0.381 N 
ATOM     19  H   LIG d   1       0.742  83.105 114.258  0.00  0.00    -0.090 HD
ATOM     20  H   LIG d   1      -0.068  84.444 114.698  0.00  0.00    -0.090 HD
ATOM     21  H   LIG d   1       1.569  84.422 114.763  0.00  0.00    -0.090 HD
ENDBRANCH   5  18
BRANCH   3  22
ATOM     22  C   LIG d   1       3.188  86.815 111.137  0.00  0.00     0.382 C 
ATOM     23  O   LIG d   1       2.698  87.965 111.246  0.00  0.00    -0.241 OA
ATOM     24  O   LIG d   1       4.377  86.686 110.791  0.00  0.00    -0.241 OA
ENDBRANCH   3  22
TORSDOF 7
ENDMDL
MODEL 8
REMARK VINA RESULT:      -5.8      2.466      5.829
REMARK  7 active torsions:
REMARK  status: ('A' for Active; 'I' for Inactive)
REMARK    1  A    between atoms: C_2  and  C_3 
REMARK    2  A    between atoms: C_3  and  O_6 
REMARK    3  A    between atoms: C_3  and  C_4 
REMARK    4  A    between atoms: C_7  and  O_6 
REMARK    5  A    between atoms: C_9  and  C_10 
REMARK    6  A    between atoms: N_15  and  C_14 
REMARK    7  A    between atoms: N_20  and  C_19 
REMARK       I    between atoms: C_22  and  N_20 
ROOT
ATOM      1  C   LIG d   1       0.751  83.981 111.527  0.00  0.00     0.161 C 
ATOM      2  C   LIG d   1       1.482  85.164 111.731  0.00  0.00     0.016 C 
ATOM      3  C   LIG d   1       2.162  85.846 110.696  0.00  0.00     0.038 C 
ATOM      4  C   LIG d   1       2.031  85.472 109.350  0.00  0.00     0.028 C 
ATOM      5  C   LIG d   1       1.715  83.992 109.161  0.00  0.00    -0.047 C 
ATOM      6  C   LIG d   1       0.505  83.620 110.048  0.00  0.00     0.091 C 
ENDROOT
BRANCH   1   7
ATOM      7  O   LIG d   1      -0.500  84.051 112.241  0.00  0.00    -0.368 OA
BRANCH   7   8
ATOM      8  C   LIG d   1      -0.588  83.259 113.450  0.00  0.00     0.119 C 
BRANCH   8   9
ATOM      9  C   LIG d   1      -1.532  82.075 113.161  0.00  0.00     0.028 C 
ATOM     10  C   LIG d   1      -0.822  80.716 113.281  0.00  0.00     0.006 C 
ENDBRANCH   8   9
BRANCH   8  11
ATOM     11  C   LIG d   1      -1.258  84.044 114.583  0.00  0.00     0.028 C 
ATOM     12  C   LIG d   1      -1.180  85.565 114.380  0.00  0.00     0.006 C 
ENDBRANCH   8  11
ENDBRANCH   7   8
ENDBRANCH   1   7
BRANCH   6  13
ATOM     13  N   LIG d   1       0.182  82.170 109.987  0.00  0.00    -0.311 N 
ATOM     14  C   LIG d   1       1.108  81.213 109.980  0.00  0.00     0.210 C 
ATOM     15  C   LIG d   1       0.560  79.785 109.893  0.00  0.00     0.109 C 
ATOM     16  O   LIG d   1       2.329  81.409 110.070  0.00  0.00    -0.276 OA
ATOM     17  H   LIG d   1      -0.787  81.920 109.943  0.00  0.00     0.149 HD
ENDBRANCH   6  13
BRANCH   5  18
ATOM     18  N   LIG d   1       1.469  83.769 107.724  0.00  0.00     0.381 N 
ATOM     19  H   LIG d   1       1.703  84.593 107.208  0.00  0.00    -0.090 HD
ATOM     20  H   LIG d   1       0.492  83.577 107.587  0.00  0.00    -0.090 HD
ATOM     21  H   LIG d   1       2.014  83.000 107.400  0.00  0.00    -0.090 HD
ENDBRANCH   5  18
BRANCH   3  22
ATOM     22  C   LIG d   1       3.016  86.893 111.008  0.00  0.00     0.382 C 
ATOM     23  O   LIG d   1       2.546  88.013 111.320  0.00  0.00    -0.241 OA
ATOM     24  O   LIG d   1       4.251  86.742 110.939  0.00  0.00    -0.241 OA
ENDBRANCH   3  22
TORSDOF 7
ENDMDL
MODEL 9
REMARK VINA RESULT:      -5.8      2.762      5.505
REMARK  7 active torsions:
REMARK  status: ('A' for Active; 'I' for Inactive)
REMARK    1  A    between atoms: C_2  and  C_3 
REMARK    2  A    between atoms: C_3  and  O_6 
REMARK    3  A    between atoms: C_3  and  C_4 
REMARK    4  A    between atoms: C_7  and  O_6 
REMARK    5  A    between atoms: C_9  and  C_10 
REMARK    6  A    between atoms: N_15  and  C_14 
REMARK    7  A    between atoms: N_20  and  C_19 
REMARK       I    between atoms: C_22  and  N_20 
ROOT
ATOM      1  C   LIG d   1       1.918  82.650 111.383  0.00  0.00     0.161 C 
ATOM      2  C   LIG d   1       2.795  82.721 110.288  0.00  0.00     0.016 C 
ATOM      3  C   LIG d   1       2.695  81.881 109.155  0.00  0.00     0.038 C 
ATOM      4  C   LIG d   1       1.611  81.010 108.971  0.00  0.00     0.028 C 
ATOM      5  C   LIG d   1       0.979  80.545 110.279  0.00  0.00    -0.047 C 
ATOM      6  C   LIG d   1       0.663  81.782 111.151  0.00  0.00     0.091 C 
ENDROOT
BRANCH   1   7
ATOM      7  O   LIG d   1       1.539  83.979 111.792  0.00  0.00    -0.368 OA
BRANCH   7   8
ATOM      8  C   LIG d   1       0.445  84.584 111.059  0.00  0.00     0.119 C 
BRANCH   8   9
ATOM      9  C   LIG d   1       1.046  85.670 110.145  0.00  0.00     0.028 C 
ATOM     10  C   LIG d   1       0.828  85.369 108.653  0.00  0.00     0.006 C 
ENDBRANCH   8   9
BRANCH   8  11
ATOM     11  C   LIG d   1      -0.511  85.326 111.996  0.00  0.00     0.028 C 
ATOM     12  C   LIG d   1      -0.187  85.098 113.481  0.00  0.00     0.006 C 
ENDBRANCH   8  11
ENDBRANCH   7   8
ENDBRANCH   1   7
BRANCH   6  13
ATOM     13  N   LIG d   1       0.120  81.411 112.484  0.00  0.00    -0.311 N 
ATOM     14  C   LIG d   1      -1.154  81.587 112.831  0.00  0.00     0.210 C 
ATOM     15  C   LIG d   1      -1.500  81.156 114.260  0.00  0.00     0.109 C 
ATOM     16  O   LIG d   1      -2.037  82.029 112.081  0.00  0.00    -0.276 OA
ATOM     17  H   LIG d   1       0.761  81.017 113.144  0.00  0.00     0.149 HD
ENDBRANCH   6  13
BRANCH   5  18
ATOM     18  N   LIG d   1      -0.220  79.756 109.939  0.00  0.00     0.381 N 
ATOM     19  H   LIG d   1      -0.663  80.144 109.130  0.00  0.00    -0.090 HD
ATOM     20  H   LIG d   1      -0.867  79.802 110.706  0.00  0.00    -0.090 HD
ATOM     21  H   LIG d   1       0.034  78.808 109.765  0.00  0.00    -0.090 HD
ENDBRANCH   5  18
BRANCH   3  22
ATOM     22  C   LIG d   1       3.708  81.881 108.208  0.00  0.00     0.382 C 
ATOM     23  O   LIG d   1       3.502  82.365 107.069  0.00  0.00    -0.241 OA
ATOM     24  O   LIG d   1       4.811  81.362 108.464  0.00  0.00    -0.241 OA
ENDBRANCH   3  22
TORSDOF 7
ENDMDL
