MODEL 1
REMARK VINA RESULT:      -5.6      0.000      0.000
REMARK  7 active torsions:
REMARK  status: ('A' for Active; 'I' for Inactive)
REMARK    1  A    between atoms: C_2  and  C_3 
REMARK    2  A    between atoms: C_3  and  O_6 
REMARK    3  A    between atoms: C_3  and  C_4 
REMARK    4  A    between atoms: C_7  and  O_6 
REMARK    5  A    between atoms: C_9  and  C_10 
REMARK    6  A    between atoms: N_15  and  C_14 
REMARK    7  A    between atoms: N_20  and  C_19 
REMARK       I    between atoms: C_22  and  N_20 
ROOT
ATOM      1  C   LIG d   1      -5.326  92.108 117.858  0.00  0.00     0.161 C 
ATOM      2  C   LIG d   1      -5.415  91.272 116.732  0.00  0.00     0.016 C 
ATOM      3  C   LIG d   1      -6.493  91.312 115.817  0.00  0.00     0.038 C 
ATOM      4  C   LIG d   1      -7.486  92.300 115.884  0.00  0.00     0.028 C 
ATOM      5  C   LIG d   1      -7.707  92.842 117.292  0.00  0.00    -0.047 C 
ATOM      6  C   LIG d   1      -6.344  93.267 117.886  0.00  0.00     0.091 C 
ENDROOT
BRANCH   1   7
ATOM      7  O   LIG d   1      -3.983  92.617 117.983  0.00  0.00    -0.368 OA
BRANCH   7   8
ATOM      8  C   LIG d   1      -3.207  92.100 119.092  0.00  0.00     0.119 C 
BRANCH   8   9
ATOM      9  C   LIG d   1      -2.408  93.277 119.686  0.00  0.00     0.028 C 
ATOM     10  C   LIG d   1      -2.893  94.639 119.161  0.00  0.00     0.006 C 
ENDBRANCH   8   9
BRANCH   8  11
ATOM     11  C   LIG d   1      -2.154  91.096 118.614  0.00  0.00     0.028 C 
ATOM     12  C   LIG d   1      -2.635  89.639 118.706  0.00  0.00     0.006 C 
ENDBRANCH   8  11
ENDBRANCH   7   8
ENDBRANCH   1   7
BRANCH   6  13
ATOM     13  N   LIG d   1      -6.458  93.731 119.293  0.00  0.00    -0.311 N 
ATOM     14  C   LIG d   1      -6.594  95.011 119.634  0.00  0.00     0.210 C 
ATOM     15  C   LIG d   1      -6.674  95.274 121.141  0.00  0.00     0.109 C 
ATOM     16  O   LIG d   1      -6.687  95.951 118.830  0.00  0.00    -0.276 OA
ATOM     17  H   LIG d   1      -6.424  93.031 120.008  0.00  0.00     0.149 HD
ENDBRANCH   6  13
BRANCH   5  18
ATOM     18  N   LIG d   1      -8.667  93.958 117.195  0.00  0.00     0.381 N 
ATOM     19  H   LIG d   1      -8.173  94.825 117.122  0.00  0.00    -0.090 HD
ATOM     20  H   LIG d   1      -9.224  93.981 118.031  0.00  0.00    -0.090 HD
ATOM     21  H   LIG d   1      -9.254  93.834 116.399  0.00  0.00    -0.090 HD
ENDBRANCH   5  18
BRANCH   3  22
ATOM     22  C   LIG d   1      -6.605  90.330 114.845  0.00  0.00     0.382 C 
ATOM     23  O   LIG d   1      -7.433  90.463 113.912  0.00  0.00    -0.241 OA
ATOM     24  O   LIG d   1      -5.919  89.292 114.913  0.00  0.00    -0.241 OA
ENDBRANCH   3  22
TORSDOF 7
ENDMDL
MODEL 2
REMARK VINA RESULT:      -5.5     12.997     15.408
REMARK  7 active torsions:
REMARK  status: ('A' for Active; 'I' for Inactive)
REMARK    1  A    between atoms: C_2  and  C_3 
REMARK    2  A    between atoms: C_3  and  O_6 
REMARK    3  A    between atoms: C_3  and  C_4 
REMARK    4  A    between atoms: C_7  and  O_6 
REMARK    5  A    between atoms: C_9  and  C_10 
REMARK    6  A    between atoms: N_15  and  C_14 
REMARK    7  A    between atoms: N_20  and  C_19 
REMARK       I    between atoms: C_22  and  N_20 
ROOT
ATOM      1  C   LIG d   1      -6.248  77.495 116.987  0.00  0.00     0.161 C 
ATOM      2  C   LIG d   1      -7.552  77.456 117.506  0.00  0.00     0.016 C 
ATOM      3  C   LIG d   1      -8.205  78.584 118.055  0.00  0.00     0.038 C 
ATOM      4  C   LIG d   1      -7.650  79.870 117.983  0.00  0.00     0.028 C 
ATOM      5  C   LIG d   1      -6.126  79.869 117.923  0.00  0.00    -0.047 C 
ATOM      6  C   LIG d   1      -5.669  78.913 116.799  0.00  0.00     0.091 C 
ENDROOT
BRANCH   1   7
ATOM      7  O   LIG d   1      -6.194  76.763 115.746  0.00  0.00    -0.368 OA
BRANCH   7   8
ATOM      8  C   LIG d   1      -5.507  75.489 115.787  0.00  0.00     0.119 C 
BRANCH   8   9
ATOM      9  C   LIG d   1      -4.310  75.577 114.820  0.00  0.00     0.028 C 
ATOM     10  C   LIG d   1      -2.959  75.531 115.553  0.00  0.00     0.006 C 
ENDBRANCH   8   9
BRANCH   8  11
ATOM     11  C   LIG d   1      -6.388  74.362 115.240  0.00  0.00     0.028 C 
ATOM     12  C   LIG d   1      -5.913  72.968 115.677  0.00  0.00     0.006 C 
ENDBRANCH   8  11
ENDBRANCH   7   8
ENDBRANCH   1   7
BRANCH   6  13
ATOM     13  N   LIG d   1      -4.189  78.789 116.727  0.00  0.00    -0.311 N 
ATOM     14  C   LIG d   1      -3.436  79.478 115.871  0.00  0.00     0.210 C 
ATOM     15  C   LIG d   1      -1.935  79.184 115.950  0.00  0.00     0.109 C 
ATOM     16  O   LIG d   1      -3.866  80.327 115.077  0.00  0.00    -0.276 OA
ATOM     17  H   LIG d   1      -3.755  78.144 117.358  0.00  0.00     0.149 HD
ENDBRANCH   6  13
BRANCH   5  18
ATOM     18  N   LIG d   1      -5.688  81.262 117.712  0.00  0.00     0.381 N 
ATOM     19  H   LIG d   1      -4.816  81.272 117.222  0.00  0.00    -0.090 HD
ATOM     20  H   LIG d   1      -5.552  81.699 118.607  0.00  0.00    -0.090 HD
ATOM     21  H   LIG d   1      -6.375  81.761 117.192  0.00  0.00    -0.090 HD
ENDBRANCH   5  18
BRANCH   3  22
ATOM     22  C   LIG d   1      -9.411  78.423 118.720  0.00  0.00     0.382 C 
ATOM     23  O   LIG d   1      -9.453  77.782 119.798  0.00  0.00    -0.241 OA
ATOM     24  O   LIG d   1     -10.466  78.874 118.234  0.00  0.00    -0.241 OA
ENDBRANCH   3  22
TORSDOF 7
ENDMDL
MODEL 3
REMARK VINA RESULT:      -5.5      2.162      5.499
REMARK  7 active torsions:
REMARK  status: ('A' for Active; 'I' for Inactive)
REMARK    1  A    between atoms: C_2  and  C_3 
REMARK    2  A    between atoms: C_3  and  O_6 
REMARK    3  A    between atoms: C_3  and  C_4 
REMARK    4  A    between atoms: C_7  and  O_6 
REMARK    5  A    between atoms: C_9  and  C_10 
REMARK    6  A    between atoms: N_15  and  C_14 
REMARK    7  A    between atoms: N_20  and  C_19 
REMARK       I    between atoms: C_22  and  N_20 
ROOT
ATOM      1  C   LIG d   1      -6.358  92.013 117.621  0.00  0.00     0.161 C 
ATOM      2  C   LIG d   1      -7.183  93.139 117.460  0.00  0.00     0.016 C 
ATOM      3  C   LIG d   1      -6.988  94.352 118.159  0.00  0.00     0.038 C 
ATOM      4  C   LIG d   1      -5.857  94.574 118.958  0.00  0.00     0.028 C 
ATOM      5  C   LIG d   1      -5.270  93.295 119.545  0.00  0.00    -0.047 C 
ATOM      6  C   LIG d   1      -5.055  92.273 118.405  0.00  0.00     0.091 C 
ENDROOT
BRANCH   1   7
ATOM      7  O   LIG d   1      -6.062  91.437 116.333  0.00  0.00    -0.368 OA
BRANCH   7   8
ATOM      8  C   LIG d   1      -6.806  90.244 115.982  0.00  0.00     0.119 C 
BRANCH   8   9
ATOM      9  C   LIG d   1      -7.093  90.306 114.469  0.00  0.00     0.028 C 
ATOM     10  C   LIG d   1      -7.497  91.716 114.006  0.00  0.00     0.006 C 
ENDBRANCH   8   9
BRANCH   8  11
ATOM     11  C   LIG d   1      -8.182  90.228 116.655  0.00  0.00     0.028 C 
ATOM     12  C   LIG d   1      -9.075  89.080 116.157  0.00  0.00     0.006 C 
ENDBRANCH   8  11
ENDBRANCH   7   8
ENDBRANCH   1   7
BRANCH   6  13
ATOM     13  N   LIG d   1      -4.561  90.963 118.903  0.00  0.00    -0.311 N 
ATOM     14  C   LIG d   1      -3.271  90.632 118.943  0.00  0.00     0.210 C 
ATOM     15  C   LIG d   1      -2.981  89.225 119.474  0.00  0.00     0.109 C 
ATOM     16  O   LIG d   1      -2.339  91.383 118.618  0.00  0.00    -0.276 OA
ATOM     17  H   LIG d   1      -5.248  90.305 119.216  0.00  0.00     0.149 HD
ENDBRANCH   6  13
BRANCH   5  18
ATOM     18  N   LIG d   1      -4.020  93.656 120.240  0.00  0.00     0.381 N 
ATOM     19  H   LIG d   1      -3.888  93.059 121.032  0.00  0.00    -0.090 HD
ATOM     20  H   LIG d   1      -4.093  94.603 120.568  0.00  0.00    -0.090 HD
ATOM     21  H   LIG d   1      -3.247  93.571 119.618  0.00  0.00    -0.090 HD
ENDBRANCH   5  18
BRANCH   3  22
ATOM     22  C   LIG d   1      -7.953  95.346 118.092  0.00  0.00     0.382 C 
ATOM     23  O   LIG d   1      -7.638  96.541 118.309  0.00  0.00    -0.241 OA
ATOM     24  O   LIG d   1      -9.142  95.058 117.861  0.00  0.00    -0.241 OA
ENDBRANCH   3  22
TORSDOF 7
ENDMDL
MODEL 4
REMARK VINA RESULT:      -5.3     11.923     14.693
REMARK  7 active torsions:
REMARK  status: ('A' for Active; 'I' for Inactive)
REMARK    1  A    between atoms: C_2  and  C_3 
REMARK    2  A    between atoms: C_3  and  O_6 
REMARK    3  A    between atoms: C_3  and  C_4 
REMARK    4  A    between atoms: C_7  and  O_6 
REMARK    5  A    between atoms: C_9  and  C_10 
REMARK    6  A    between atoms: N_15  and  C_14 
REMARK    7  A    between atoms: N_20  and  C_19 
REMARK       I    between atoms: C_22  and  N_20 
ROOT
ATOM      1  C   LIG d   1      -2.829  79.679 114.911  0.00  0.00     0.161 C 
ATOM      2  C   LIG d   1      -2.347  80.900 114.410  0.00  0.00     0.016 C 
ATOM      3  C   LIG d   1      -1.654  81.018 113.183  0.00  0.00     0.038 C 
ATOM      4  C   LIG d   1      -1.527  79.939 112.296  0.00  0.00     0.028 C 
ATOM      5  C   LIG d   1      -1.556  78.580 112.988  0.00  0.00    -0.047 C 
ATOM      6  C   LIG d   1      -2.797  78.510 113.905  0.00  0.00     0.091 C 
ENDROOT
BRANCH   1   7
ATOM      7  O   LIG d   1      -4.161  79.857 115.432  0.00  0.00    -0.368 OA
BRANCH   7   8
ATOM      8  C   LIG d   1      -4.253  80.295 116.810  0.00  0.00     0.119 C 
BRANCH   8   9
ATOM      9  C   LIG d   1      -3.744  79.143 117.698  0.00  0.00     0.028 C 
ATOM     10  C   LIG d   1      -4.785  78.024 117.861  0.00  0.00     0.006 C 
ENDBRANCH   8   9
BRANCH   8  11
ATOM     11  C   LIG d   1      -5.710  80.516 117.228  0.00  0.00     0.028 C 
ATOM     12  C   LIG d   1      -6.047  81.998 117.456  0.00  0.00     0.006 C 
ENDBRANCH   8  11
ENDBRANCH   7   8
ENDBRANCH   1   7
BRANCH   6  13
ATOM     13  N   LIG d   1      -2.856  77.245 114.684  0.00  0.00    -0.311 N 
ATOM     14  C   LIG d   1      -3.814  76.333 114.530  0.00  0.00     0.210 C 
ATOM     15  C   LIG d   1      -3.697  75.111 115.447  0.00  0.00     0.109 C 
ATOM     16  O   LIG d   1      -4.732  76.404 113.699  0.00  0.00    -0.276 OA
ATOM     17  H   LIG d   1      -2.133  77.091 115.359  0.00  0.00     0.149 HD
ENDBRANCH   6  13
BRANCH   5  18
ATOM     18  N   LIG d   1      -1.554  77.545 111.937  0.00  0.00     0.381 N 
ATOM     19  H   LIG d   1      -0.953  76.791 112.205  0.00  0.00    -0.090 HD
ATOM     20  H   LIG d   1      -1.197  77.945 111.087  0.00  0.00    -0.090 HD
ATOM     21  H   LIG d   1      -2.479  77.206 111.791  0.00  0.00    -0.090 HD
ENDBRANCH   5  18
BRANCH   3  22
ATOM     22  C   LIG d   1      -1.044  82.218 112.851  0.00  0.00     0.382 C 
ATOM     23  O   LIG d   1       0.013  82.566 113.431  0.00  0.00    -0.241 OA
ATOM     24  O   LIG d   1      -1.562  82.979 112.011  0.00  0.00    -0.241 OA
ENDBRANCH   3  22
TORSDOF 7
ENDMDL
MODEL 5
REMARK VINA RESULT:      -5.2     13.225     15.371
REMARK  7 active torsions:
REMARK  status: ('A' for Active; 'I' for Inactive)
REMARK    1  A    between atoms: C_2  and  C_3 
REMARK    2  A    between atoms: C_3  and  O_6 
REMARK    3  A    between atoms: C_3  and  C_4 
REMARK    4  A    between atoms: C_7  and  O_6 
REMARK    5  A    between atoms: C_9  and  C_10 
REMARK    6  A    between atoms: N_15  and  C_14 
REMARK    7  A    between atoms: N_20  and  C_19 
REMARK       I    between atoms: C_22  and  N_20 
ROOT
ATOM      1  C   LIG d   1      -4.327  77.271 115.781  0.00  0.00     0.161 C 
ATOM      2  C   LIG d   1      -4.564  76.002 115.225  0.00  0.00     0.016 C 
ATOM      3  C   LIG d   1      -5.741  75.257 115.462  0.00  0.00     0.038 C 
ATOM      4  C   LIG d   1      -6.834  75.797 116.155  0.00  0.00     0.028 C 
ATOM      5  C   LIG d   1      -6.442  76.876 117.159  0.00  0.00    -0.047 C 
ATOM      6  C   LIG d   1      -5.555  77.924 116.449  0.00  0.00     0.091 C 
ENDROOT
BRANCH   1   7
ATOM      7  O   LIG d   1      -3.776  78.148 114.779  0.00  0.00    -0.368 OA
BRANCH   7   8
ATOM      8  C   LIG d   1      -2.330  78.207 114.709  0.00  0.00     0.119 C 
BRANCH   8   9
ATOM      9  C   LIG d   1      -1.908  79.650 115.048  0.00  0.00     0.028 C 
ATOM     10  C   LIG d   1      -3.058  80.655 114.864  0.00  0.00     0.006 C 
ENDBRANCH   8   9
BRANCH   8  11
ATOM     11  C   LIG d   1      -1.830  77.963 113.282  0.00  0.00     0.028 C 
ATOM     12  C   LIG d   1      -2.971  77.894 112.255  0.00  0.00     0.006 C 
ENDBRANCH   8  11
ENDBRANCH   7   8
ENDBRANCH   1   7
BRANCH   6  13
ATOM     13  N   LIG d   1      -5.057  78.970 117.379  0.00  0.00    -0.311 N 
ATOM     14  C   LIG d   1      -5.663  80.143 117.556  0.00  0.00     0.210 C 
ATOM     15  C   LIG d   1      -4.973  81.085 118.547  0.00  0.00     0.109 C 
ATOM     16  O   LIG d   1      -6.725  80.479 117.010  0.00  0.00    -0.276 OA
ATOM     17  H   LIG d   1      -4.218  78.768 117.886  0.00  0.00     0.149 HD
ENDBRANCH   6  13
BRANCH   5  18
ATOM     18  N   LIG d   1      -7.686  77.448 117.708  0.00  0.00     0.381 N 
ATOM     19  H   LIG d   1      -8.363  77.550 116.978  0.00  0.00    -0.090 HD
ATOM     20  H   LIG d   1      -7.487  78.359 118.082  0.00  0.00    -0.090 HD
ATOM     21  H   LIG d   1      -8.045  76.858 118.425  0.00  0.00    -0.090 HD
ENDBRANCH   5  18
BRANCH   3  22
ATOM     22  C   LIG d   1      -5.817  73.939 115.038  0.00  0.00     0.382 C 
ATOM     23  O   LIG d   1      -5.937  73.015 115.879  0.00  0.00    -0.241 OA
ATOM     24  O   LIG d   1      -5.723  73.658 113.828  0.00  0.00    -0.241 OA
ENDBRANCH   3  22
TORSDOF 7
ENDMDL
MODEL 6
REMARK VINA RESULT:      -5.0     13.874     16.553
REMARK  7 active torsions:
REMARK  status: ('A' for Active; 'I' for Inactive)
REMARK    1  A    between atoms: C_2  and  C_3 
REMARK    2  A    between atoms: C_3  and  O_6 
REMARK    3  A    between atoms: C_3  and  C_4 
REMARK    4  A    between atoms: C_7  and  O_6 
REMARK    5  A    between atoms: C_9  and  C_10 
REMARK    6  A    between atoms: N_15  and  C_14 
REMARK    7  A    between atoms: N_20  and  C_19 
REMARK       I    between atoms: C_22  and  N_20 
ROOT
ATOM      1  C   LIG d   1      -3.764  77.163 115.389  0.00  0.00     0.161 C 
ATOM      2  C   LIG d   1      -3.008  75.992 115.212  0.00  0.00     0.016 C 
ATOM      3  C   LIG d   1      -1.960  75.605 116.078  0.00  0.00     0.038 C 
ATOM      4  C   LIG d   1      -1.695  76.288 117.274  0.00  0.00     0.028 C 
ATOM      5  C   LIG d   1      -2.100  77.758 117.233  0.00  0.00    -0.047 C 
ATOM      6  C   LIG d   1      -3.564  77.863 116.749  0.00  0.00     0.091 C 
ENDROOT
BRANCH   1   7
ATOM      7  O   LIG d   1      -5.161  76.879 115.172  0.00  0.00    -0.368 OA
BRANCH   7   8
ATOM      8  C   LIG d   1      -5.633  75.598 115.656  0.00  0.00     0.119 C 
BRANCH   8   9
ATOM      9  C   LIG d   1      -6.372  74.907 114.493  0.00  0.00     0.028 C 
ATOM     10  C   LIG d   1      -5.876  73.471 114.254  0.00  0.00     0.006 C 
ENDBRANCH   8   9
BRANCH   8  11
ATOM     11  C   LIG d   1      -6.684  75.771 116.757  0.00  0.00     0.028 C 
ATOM     12  C   LIG d   1      -7.194  77.216 116.872  0.00  0.00     0.006 C 
ENDBRANCH   8  11
ENDBRANCH   7   8
ENDBRANCH   1   7
BRANCH   6  13
ATOM     13  N   LIG d   1      -4.013  79.272 116.600  0.00  0.00    -0.311 N 
ATOM     14  C   LIG d   1      -4.686  79.930 117.543  0.00  0.00     0.210 C 
ATOM     15  C   LIG d   1      -5.070  81.367 117.178  0.00  0.00     0.109 C 
ATOM     16  O   LIG d   1      -4.973  79.470 118.658  0.00  0.00    -0.276 OA
ATOM     17  H   LIG d   1      -3.794  79.731 115.738  0.00  0.00     0.149 HD
ENDBRANCH   6  13
BRANCH   5  18
ATOM     18  N   LIG d   1      -1.896  78.314 118.585  0.00  0.00     0.381 N 
ATOM     19  H   LIG d   1      -2.763  78.315 119.084  0.00  0.00    -0.090 HD
ATOM     20  H   LIG d   1      -1.579  79.263 118.502  0.00  0.00    -0.090 HD
ATOM     21  H   LIG d   1      -1.221  77.772 119.078  0.00  0.00    -0.090 HD
ENDBRANCH   5  18
BRANCH   3  22
ATOM     22  C   LIG d   1      -1.137  74.544 115.730  0.00  0.00     0.382 C 
ATOM     23  O   LIG d   1      -0.917  73.624 116.554  0.00  0.00    -0.241 OA
ATOM     24  O   LIG d   1      -0.576  74.518 114.618  0.00  0.00    -0.241 OA
ENDBRANCH   3  22
TORSDOF 7
ENDMDL
MODEL 7
REMARK VINA RESULT:      -5.0     14.051     16.798
REMARK  7 active torsions:
REMARK  status: ('A' for Active; 'I' for Inactive)
REMARK    1  A    between atoms: C_2  and  C_3 
REMARK    2  A    between atoms: C_3  and  O_6 
REMARK    3  A    between atoms: C_3  and  C_4 
REMARK    4  A    between atoms: C_7  and  O_6 
REMARK    5  A    between atoms: C_9  and  C_10 
REMARK    6  A    between atoms: N_15  and  C_14 
REMARK    7  A    between atoms: N_20  and  C_19 
REMARK       I    between atoms: C_22  and  N_20 
ROOT
ATOM      1  C   LIG d   1      -0.940  77.264 115.399  0.00  0.00     0.161 C 
ATOM      2  C   LIG d   1      -2.289  77.119 115.037  0.00  0.00     0.016 C 
ATOM      3  C   LIG d   1      -3.005  75.908 115.170  0.00  0.00     0.038 C 
ATOM      4  C   LIG d   1      -2.459  74.791 115.821  0.00  0.00     0.028 C 
ATOM      5  C   LIG d   1      -0.937  74.733 115.748  0.00  0.00    -0.047 C 
ATOM      6  C   LIG d   1      -0.359  76.089 116.214  0.00  0.00     0.091 C 
ENDROOT
BRANCH   1   7
ATOM      7  O   LIG d   1      -0.754  78.505 116.109  0.00  0.00    -0.368 OA
BRANCH   7   8
ATOM      8  C   LIG d   1      -1.830  78.898 116.996  0.00  0.00     0.119 C 
BRANCH   8   9
ATOM      9  C   LIG d   1      -2.072  80.406 116.791  0.00  0.00     0.028 C 
ATOM     10  C   LIG d   1      -3.547  80.729 116.498  0.00  0.00     0.006 C 
ENDBRANCH   8   9
BRANCH   8  11
ATOM     11  C   LIG d   1      -1.423  78.749 118.465  0.00  0.00     0.028 C 
ATOM     12  C   LIG d   1      -2.152  77.596 119.172  0.00  0.00     0.006 C 
ENDBRANCH   8  11
ENDBRANCH   7   8
ENDBRANCH   1   7
BRANCH   6  13
ATOM     13  N   LIG d   1       1.121  76.146 116.094  0.00  0.00    -0.311 N 
ATOM     14  C   LIG d   1       1.929  76.421 117.116  0.00  0.00     0.210 C 
ATOM     15  C   LIG d   1       3.421  76.449 116.771  0.00  0.00     0.109 C 
ATOM     16  O   LIG d   1       1.554  76.613 118.282  0.00  0.00    -0.276 OA
ATOM     17  H   LIG d   1       1.512  75.971 115.189  0.00  0.00     0.149 HD
ENDBRANCH   6  13
BRANCH   5  18
ATOM     18  N   LIG d   1      -0.494  73.599 116.582  0.00  0.00     0.381 N 
ATOM     19  H   LIG d   1       0.123  73.926 117.298  0.00  0.00    -0.090 HD
ATOM     20  H   LIG d   1       0.008  72.948 116.005  0.00  0.00    -0.090 HD
ATOM     21  H   LIG d   1      -1.283  73.150 116.993  0.00  0.00    -0.090 HD
ENDBRANCH   5  18
BRANCH   3  22
ATOM     22  C   LIG d   1      -4.270  75.792 114.614  0.00  0.00     0.382 C 
ATOM     23  O   LIG d   1      -5.006  76.803 114.514  0.00  0.00    -0.241 OA
ATOM     24  O   LIG d   1      -4.701  74.681 114.250  0.00  0.00    -0.241 OA
ENDBRANCH   3  22
TORSDOF 7
ENDMDL
MODEL 8
REMARK VINA RESULT:      -4.8     26.929     29.345
REMARK  7 active torsions:
REMARK  status: ('A' for Active; 'I' for Inactive)
REMARK    1  A    between atoms: C_2  and  C_3 
REMARK    2  A    between atoms: C_3  and  O_6 
REMARK    3  A    between atoms: C_3  and  C_4 
REMARK    4  A    between atoms: C_7  and  O_6 
REMARK    5  A    between atoms: C_9  and  C_10 
REMARK    6  A    between atoms: N_15  and  C_14 
REMARK    7  A    between atoms: N_20  and  C_19 
REMARK       I    between atoms: C_22  and  N_20 
ROOT
ATOM      1  C   LIG d   1     -15.032  65.579 117.742  0.00  0.00     0.161 C 
ATOM      2  C   LIG d   1     -14.163  65.644 118.843  0.00  0.00     0.016 C 
ATOM      3  C   LIG d   1     -13.811  64.518 119.624  0.00  0.00     0.038 C 
ATOM      4  C   LIG d   1     -14.189  63.217 119.261  0.00  0.00     0.028 C 
ATOM      5  C   LIG d   1     -15.479  63.165 118.449  0.00  0.00    -0.047 C 
ATOM      6  C   LIG d   1     -15.366  64.151 117.264  0.00  0.00     0.091 C 
ENDROOT
BRANCH   1   7
ATOM      7  O   LIG d   1     -14.500  66.360 116.654  0.00  0.00    -0.368 OA
BRANCH   7   8
ATOM      8  C   LIG d   1     -14.838  67.769 116.656  0.00  0.00     0.119 C 
BRANCH   8   9
ATOM      9  C   LIG d   1     -16.357  67.881 116.886  0.00  0.00     0.028 C 
ATOM     10  C   LIG d   1     -16.701  68.626 118.187  0.00  0.00     0.006 C 
ENDBRANCH   8   9
BRANCH   8  11
ATOM     11  C   LIG d   1     -14.587  68.405 115.285  0.00  0.00     0.028 C 
ATOM     12  C   LIG d   1     -14.731  67.402 114.129  0.00  0.00     0.006 C 
ENDBRANCH   8  11
ENDBRANCH   7   8
ENDBRANCH   1   7
BRANCH   6  13
ATOM     13  N   LIG d   1     -16.618  64.224 116.467  0.00  0.00    -0.311 N 
ATOM     14  C   LIG d   1     -16.638  64.276 115.136  0.00  0.00     0.210 C 
ATOM     15  C   LIG d   1     -18.034  64.368 114.513  0.00  0.00     0.109 C 
ATOM     16  O   LIG d   1     -15.633  64.222 114.411  0.00  0.00    -0.276 OA
ATOM     17  H   LIG d   1     -17.481  64.241 116.974  0.00  0.00     0.149 HD
ENDBRANCH   6  13
BRANCH   5  18
ATOM     18  N   LIG d   1     -15.680  61.768 118.022  0.00  0.00     0.381 N 
ATOM     19  H   LIG d   1     -16.632  61.500 118.176  0.00  0.00    -0.090 HD
ATOM     20  H   LIG d   1     -15.092  61.170 118.576  0.00  0.00    -0.090 HD
ATOM     21  H   LIG d   1     -15.452  61.670 117.057  0.00  0.00    -0.090 HD
ENDBRANCH   5  18
BRANCH   3  22
ATOM     22  C   LIG d   1     -13.106  64.694 120.805  0.00  0.00     0.382 C 
ATOM     23  O   LIG d   1     -12.866  65.852 121.225  0.00  0.00    -0.241 OA
ATOM     24  O   LIG d   1     -12.667  63.711 121.431  0.00  0.00    -0.241 OA
ENDBRANCH   3  22
TORSDOF 7
ENDMDL
MODEL 9
REMARK VINA RESULT:      -4.7     11.964     14.130
REMARK  7 active torsions:
REMARK  status: ('A' for Active; 'I' for Inactive)
REMARK    1  A    between atoms: C_2  and  C_3 
REMARK    2  A    between atoms: C_3  and  O_6 
REMARK    3  A    between atoms: C_3  and  C_4 
REMARK    4  A    between atoms: C_7  and  O_6 
REMARK    5  A    between atoms: C_9  and  C_10 
REMARK    6  A    between atoms: N_15  and  C_14 
REMARK    7  A    between atoms: N_20  and  C_19 
REMARK       I    between atoms: C_22  and  N_20 
ROOT
ATOM      1  C   LIG d   1      -6.736  78.867 117.611  0.00  0.00     0.161 C 
ATOM      2  C   LIG d   1      -8.017  78.414 117.968  0.00  0.00     0.016 C 
ATOM      3  C   LIG d   1      -9.066  79.278 118.360  0.00  0.00     0.038 C 
ATOM      4  C   LIG d   1      -8.949  80.673 118.275  0.00  0.00     0.028 C 
ATOM      5  C   LIG d   1      -7.513  81.169 118.403  0.00  0.00    -0.047 C 
ATOM      6  C   LIG d   1      -6.623  80.392 117.405  0.00  0.00     0.091 C 
ENDROOT
BRANCH   1   7
ATOM      7  O   LIG d   1      -6.281  78.168 116.435  0.00  0.00    -0.368 OA
BRANCH   7   8
ATOM      8  C   LIG d   1      -5.741  76.841 116.651  0.00  0.00     0.119 C 
BRANCH   8   9
ATOM      9  C   LIG d   1      -4.206  76.968 116.697  0.00  0.00     0.028 C 
ATOM     10  C   LIG d   1      -3.669  77.968 115.660  0.00  0.00     0.006 C 
ENDBRANCH   8   9
BRANCH   8  11
ATOM     11  C   LIG d   1      -6.038  75.919 115.465  0.00  0.00     0.028 C 
ATOM     12  C   LIG d   1      -6.169  74.444 115.876  0.00  0.00     0.006 C 
ENDBRANCH   8  11
ENDBRANCH   7   8
ENDBRANCH   1   7
BRANCH   6  13
ATOM     13  N   LIG d   1      -5.187  80.757 117.524  0.00  0.00    -0.311 N 
ATOM     14  C   LIG d   1      -4.480  80.597 118.641  0.00  0.00     0.210 C 
ATOM     15  C   LIG d   1      -3.021  81.056 118.554  0.00  0.00     0.109 C 
ATOM     16  O   LIG d   1      -4.914  80.089 119.686  0.00  0.00    -0.276 OA
ATOM     17  H   LIG d   1      -4.747  81.147 116.713  0.00  0.00     0.149 HD
ENDBRANCH   6  13
BRANCH   5  18
ATOM     18  N   LIG d   1      -7.520  82.624 118.159  0.00  0.00     0.381 N 
ATOM     19  H   LIG d   1      -7.945  83.095 118.933  0.00  0.00    -0.090 HD
ATOM     20  H   LIG d   1      -8.066  82.813 117.337  0.00  0.00    -0.090 HD
ATOM     21  H   LIG d   1      -6.589  82.953 118.030  0.00  0.00    -0.090 HD
ENDBRANCH   5  18
BRANCH   3  22
ATOM     22  C   LIG d   1     -10.236  78.745 118.881  0.00  0.00     0.382 C 
ATOM     23  O   LIG d   1     -10.679  79.161 119.978  0.00  0.00    -0.241 OA
ATOM     24  O   LIG d   1     -10.829  77.824 118.289  0.00  0.00    -0.241 OA
ENDBRANCH   3  22
TORSDOF 7
ENDMDL
