MODEL 1
REMARK VINA RESULT:      -6.0      0.000      0.000
REMARK  7 active torsions:
REMARK  status: ('A' for Active; 'I' for Inactive)
REMARK    1  A    between atoms: C_2  and  C_3 
REMARK    2  A    between atoms: C_3  and  O_6 
REMARK    3  A    between atoms: C_3  and  C_4 
REMARK    4  A    between atoms: C_7  and  O_6 
REMARK    5  A    between atoms: C_9  and  C_10 
REMARK    6  A    between atoms: N_15  and  C_14 
REMARK    7  A    between atoms: N_20  and  C_19 
REMARK       I    between atoms: C_22  and  N_20 
ROOT
ATOM      1  C   LIG d   1       2.253  84.314 110.083  0.00  0.00     0.161 C 
ATOM      2  C   LIG d   1       1.200  85.225 110.272  0.00  0.00     0.016 C 
ATOM      3  C   LIG d   1      -0.099  84.841 110.678  0.00  0.00     0.038 C 
ATOM      4  C   LIG d   1      -0.394  83.527 111.070  0.00  0.00     0.028 C 
ATOM      5  C   LIG d   1       0.502  82.482 110.413  0.00  0.00    -0.047 C 
ATOM      6  C   LIG d   1       1.979  82.891 110.613  0.00  0.00     0.091 C 
ENDROOT
BRANCH   1   7
ATOM      7  O   LIG d   1       3.464  84.839 110.661  0.00  0.00    -0.368 OA
BRANCH   7   8
ATOM      8  C   LIG d   1       3.300  85.683 111.827  0.00  0.00     0.119 C 
BRANCH   8   9
ATOM      9  C   LIG d   1       4.444  86.716 111.816  0.00  0.00     0.028 C 
ATOM     10  C   LIG d   1       4.196  87.877 112.794  0.00  0.00     0.006 C 
ENDBRANCH   8   9
BRANCH   8  11
ATOM     11  C   LIG d   1       3.485  84.887 113.122  0.00  0.00     0.028 C 
ATOM     12  C   LIG d   1       2.173  84.708 113.904  0.00  0.00     0.006 C 
ENDBRANCH   8  11
ENDBRANCH   7   8
ENDBRANCH   1   7
BRANCH   6  13
ATOM     13  N   LIG d   1       2.920  81.967 109.929  0.00  0.00    -0.311 N 
ATOM     14  C   LIG d   1       4.069  81.560 110.466  0.00  0.00     0.210 C 
ATOM     15  C   LIG d   1       4.901  80.624 109.583  0.00  0.00     0.109 C 
ATOM     16  O   LIG d   1       4.463  81.860 111.603  0.00  0.00    -0.276 OA
ATOM     17  H   LIG d   1       2.664  81.650 109.014  0.00  0.00     0.149 HD
ENDBRANCH   6  13
BRANCH   5  18
ATOM     18  N   LIG d   1       0.176  81.175 111.014  0.00  0.00     0.381 N 
ATOM     19  H   LIG d   1       0.971  80.570 110.959  0.00  0.00    -0.090 HD
ATOM     20  H   LIG d   1      -0.575  80.756 110.494  0.00  0.00    -0.090 HD
ATOM     21  H   LIG d   1      -0.094  81.295 111.965  0.00  0.00    -0.090 HD
ENDBRANCH   5  18
BRANCH   3  22
ATOM     22  C   LIG d   1      -1.128  85.769 110.655  0.00  0.00     0.382 C 
ATOM     23  O   LIG d   1      -1.440  86.386 111.702  0.00  0.00    -0.241 OA
ATOM     24  O   LIG d   1      -1.779  85.965 109.611  0.00  0.00    -0.241 OA
ENDBRANCH   3  22
TORSDOF 7
ENDMDL
MODEL 2
REMARK VINA RESULT:      -5.7      2.404      5.304
REMARK  7 active torsions:
REMARK  status: ('A' for Active; 'I' for Inactive)
REMARK    1  A    between atoms: C_2  and  C_3 
REMARK    2  A    between atoms: C_3  and  O_6 
REMARK    3  A    between atoms: C_3  and  C_4 
REMARK    4  A    between atoms: C_7  and  O_6 
REMARK    5  A    between atoms: C_9  and  C_10 
REMARK    6  A    between atoms: N_15  and  C_14 
REMARK    7  A    between atoms: N_20  and  C_19 
REMARK       I    between atoms: C_22  and  N_20 
ROOT
ATOM      1  C   LIG d   1       3.082  84.847 110.526  0.00  0.00     0.161 C 
ATOM      2  C   LIG d   1       3.006  83.545 110.004  0.00  0.00     0.016 C 
ATOM      3  C   LIG d   1       3.482  82.403 110.688  0.00  0.00     0.038 C 
ATOM      4  C   LIG d   1       3.933  82.468 112.015  0.00  0.00     0.028 C 
ATOM      5  C   LIG d   1       4.497  83.832 112.397  0.00  0.00    -0.047 C 
ATOM      6  C   LIG d   1       3.470  84.924 112.018  0.00  0.00     0.091 C 
ENDROOT
BRANCH   1   7
ATOM      7  O   LIG d   1       1.840  85.540 110.294  0.00  0.00    -0.368 OA
BRANCH   7   8
ATOM      8  C   LIG d   1       0.653  84.712 110.218  0.00  0.00     0.119 C 
BRANCH   8   9
ATOM      9  C   LIG d   1      -0.477  85.577 109.627  0.00  0.00     0.028 C 
ATOM     10  C   LIG d   1      -1.192  86.418 110.697  0.00  0.00     0.006 C 
ENDBRANCH   8   9
BRANCH   8  11
ATOM     11  C   LIG d   1       0.167  84.305 111.612  0.00  0.00     0.028 C 
ATOM     12  C   LIG d   1      -0.321  82.849 111.671  0.00  0.00     0.006 C 
ENDBRANCH   8  11
ENDBRANCH   7   8
ENDBRANCH   1   7
BRANCH   6  13
ATOM     13  N   LIG d   1       3.977  86.296 112.280  0.00  0.00    -0.311 N 
ATOM     14  C   LIG d   1       3.278  87.224 112.931  0.00  0.00     0.210 C 
ATOM     15  C   LIG d   1       3.979  88.578 113.076  0.00  0.00     0.109 C 
ATOM     16  O   LIG d   1       2.157  87.045 113.430  0.00  0.00    -0.276 OA
ATOM     17  H   LIG d   1       4.891  86.517 111.937  0.00  0.00     0.149 HD
ENDBRANCH   6  13
BRANCH   5  18
ATOM     18  N   LIG d   1       4.801  83.801 113.840  0.00  0.00     0.381 N 
ATOM     19  H   LIG d   1       5.132  84.698 114.136  0.00  0.00    -0.090 HD
ATOM     20  H   LIG d   1       5.527  83.126 114.005  0.00  0.00    -0.090 HD
ATOM     21  H   LIG d   1       3.985  83.554 114.355  0.00  0.00    -0.090 HD
ENDBRANCH   5  18
BRANCH   3  22
ATOM     22  C   LIG d   1       3.547  81.184 110.030  0.00  0.00     0.382 C 
ATOM     23  O   LIG d   1       2.497  80.533 109.811  0.00  0.00    -0.241 OA
ATOM     24  O   LIG d   1       4.646  80.707 109.691  0.00  0.00    -0.241 OA
ENDBRANCH   3  22
TORSDOF 7
ENDMDL
MODEL 3
REMARK VINA RESULT:      -5.6     12.890     14.818
REMARK  7 active torsions:
REMARK  status: ('A' for Active; 'I' for Inactive)
REMARK    1  A    between atoms: C_2  and  C_3 
REMARK    2  A    between atoms: C_3  and  O_6 
REMARK    3  A    between atoms: C_3  and  C_4 
REMARK    4  A    between atoms: C_7  and  O_6 
REMARK    5  A    between atoms: C_9  and  C_10 
REMARK    6  A    between atoms: N_15  and  C_14 
REMARK    7  A    between atoms: N_20  and  C_19 
REMARK       I    between atoms: C_22  and  N_20 
ROOT
ATOM      1  C   LIG d   1      -7.638  75.599 117.548  0.00  0.00     0.161 C 
ATOM      2  C   LIG d   1      -8.264  74.343 117.496  0.00  0.00     0.016 C 
ATOM      3  C   LIG d   1      -7.788  73.267 116.711  0.00  0.00     0.038 C 
ATOM      4  C   LIG d   1      -6.558  73.328 116.039  0.00  0.00     0.028 C 
ATOM      5  C   LIG d   1      -6.146  74.746 115.657  0.00  0.00    -0.047 C 
ATOM      6  C   LIG d   1      -6.234  75.648 116.909  0.00  0.00     0.091 C 
ENDROOT
BRANCH   1   7
ATOM      7  O   LIG d   1      -7.583  76.061 118.912  0.00  0.00    -0.368 OA
BRANCH   7   8
ATOM      8  C   LIG d   1      -8.422  77.197 119.234  0.00  0.00     0.119 C 
BRANCH   8   9
ATOM      9  C   LIG d   1      -9.745  76.649 119.805  0.00  0.00     0.028 C 
ATOM     10  C   LIG d   1     -10.895  76.714 118.786  0.00  0.00     0.006 C 
ENDBRANCH   8   9
BRANCH   8  11
ATOM     11  C   LIG d   1      -8.815  77.974 117.974  0.00  0.00     0.028 C 
ATOM     12  C   LIG d   1      -8.484  79.472 118.071  0.00  0.00     0.006 C 
ENDBRANCH   8  11
ENDBRANCH   7   8
ENDBRANCH   1   7
BRANCH   6  13
ATOM     13  N   LIG d   1      -5.928  77.071 116.605  0.00  0.00    -0.311 N 
ATOM     14  C   LIG d   1      -5.050  77.796 117.296  0.00  0.00     0.210 C 
ATOM     15  C   LIG d   1      -4.900  79.247 116.829  0.00  0.00     0.109 C 
ATOM     16  O   LIG d   1      -4.358  77.365 118.230  0.00  0.00    -0.276 OA
ATOM     17  H   LIG d   1      -6.423  77.490 115.842  0.00  0.00     0.149 HD
ENDBRANCH   6  13
BRANCH   5  18
ATOM     18  N   LIG d   1      -4.787  74.677 115.088  0.00  0.00     0.381 N 
ATOM     19  H   LIG d   1      -4.204  75.368 115.518  0.00  0.00    -0.090 HD
ATOM     20  H   LIG d   1      -4.836  74.874 114.104  0.00  0.00    -0.090 HD
ATOM     21  H   LIG d   1      -4.401  73.770 115.234  0.00  0.00    -0.090 HD
ENDBRANCH   5  18
BRANCH   3  22
ATOM     22  C   LIG d   1      -8.565  72.128 116.561  0.00  0.00     0.382 C 
ATOM     23  O   LIG d   1      -8.041  71.061 116.160  0.00  0.00    -0.241 OA
ATOM     24  O   LIG d   1      -9.790  72.167 116.780  0.00  0.00    -0.241 OA
ENDBRANCH   3  22
TORSDOF 7
ENDMDL
MODEL 4
REMARK VINA RESULT:      -5.5     12.129     14.010
REMARK  7 active torsions:
REMARK  status: ('A' for Active; 'I' for Inactive)
REMARK    1  A    between atoms: C_2  and  C_3 
REMARK    2  A    between atoms: C_3  and  O_6 
REMARK    3  A    between atoms: C_3  and  C_4 
REMARK    4  A    between atoms: C_7  and  O_6 
REMARK    5  A    between atoms: C_9  and  C_10 
REMARK    6  A    between atoms: N_15  and  C_14 
REMARK    7  A    between atoms: N_20  and  C_19 
REMARK       I    between atoms: C_22  and  N_20 
ROOT
ATOM      1  C   LIG d   1      -6.065  74.876 116.308  0.00  0.00     0.161 C 
ATOM      2  C   LIG d   1      -6.700  73.644 116.078  0.00  0.00     0.016 C 
ATOM      3  C   LIG d   1      -7.893  73.250 116.728  0.00  0.00     0.038 C 
ATOM      4  C   LIG d   1      -8.618  74.131 117.544  0.00  0.00     0.028 C 
ATOM      5  C   LIG d   1      -7.752  75.201 118.199  0.00  0.00    -0.047 C 
ATOM      6  C   LIG d   1      -6.901  75.894 117.111  0.00  0.00     0.091 C 
ENDROOT
BRANCH   1   7
ATOM      7  O   LIG d   1      -5.645  75.450 115.054  0.00  0.00    -0.368 OA
BRANCH   7   8
ATOM      8  C   LIG d   1      -4.218  75.463 114.806  0.00  0.00     0.119 C 
BRANCH   8   9
ATOM      9  C   LIG d   1      -3.523  74.928 116.073  0.00  0.00     0.028 C 
ATOM     10  C   LIG d   1      -2.084  74.458 115.799  0.00  0.00     0.006 C 
ENDBRANCH   8   9
BRANCH   8  11
ATOM     11  C   LIG d   1      -3.696  76.893 114.631  0.00  0.00     0.028 C 
ATOM     12  C   LIG d   1      -2.976  77.104 113.290  0.00  0.00     0.006 C 
ENDBRANCH   8  11
ENDBRANCH   7   8
ENDBRANCH   1   7
BRANCH   6  13
ATOM     13  N   LIG d   1      -5.963  76.898 117.678  0.00  0.00    -0.311 N 
ATOM     14  C   LIG d   1      -5.938  78.174 117.299  0.00  0.00     0.210 C 
ATOM     15  C   LIG d   1      -4.879  79.035 117.996  0.00  0.00     0.109 C 
ATOM     16  O   LIG d   1      -6.712  78.683 116.475  0.00  0.00    -0.276 OA
ATOM     17  H   LIG d   1      -5.320  76.578 118.376  0.00  0.00     0.149 HD
ENDBRANCH   6  13
BRANCH   5  18
ATOM     18  N   LIG d   1      -8.652  76.130 118.908  0.00  0.00     0.381 N 
ATOM     19  H   LIG d   1      -8.460  77.070 118.625  0.00  0.00    -0.090 HD
ATOM     20  H   LIG d   1      -8.482  76.058 119.896  0.00  0.00    -0.090 HD
ATOM     21  H   LIG d   1      -9.602  75.903 118.710  0.00  0.00    -0.090 HD
ENDBRANCH   5  18
BRANCH   3  22
ATOM     22  C   LIG d   1      -8.351  71.948 116.594  0.00  0.00     0.382 C 
ATOM     23  O   LIG d   1      -7.610  71.072 116.086  0.00  0.00    -0.241 OA
ATOM     24  O   LIG d   1      -9.511  71.648 116.935  0.00  0.00    -0.241 OA
ENDBRANCH   3  22
TORSDOF 7
ENDMDL
MODEL 5
REMARK VINA RESULT:      -5.4      9.257     11.059
REMARK  7 active torsions:
REMARK  status: ('A' for Active; 'I' for Inactive)
REMARK    1  A    between atoms: C_2  and  C_3 
REMARK    2  A    between atoms: C_3  and  O_6 
REMARK    3  A    between atoms: C_3  and  C_4 
REMARK    4  A    between atoms: C_7  and  O_6 
REMARK    5  A    between atoms: C_9  and  C_10 
REMARK    6  A    between atoms: N_15  and  C_14 
REMARK    7  A    between atoms: N_20  and  C_19 
REMARK       I    between atoms: C_22  and  N_20 
ROOT
ATOM      1  C   LIG d   1      -2.812  75.972 114.860  0.00  0.00     0.161 C 
ATOM      2  C   LIG d   1      -3.116  76.802 113.769  0.00  0.00     0.016 C 
ATOM      3  C   LIG d   1      -2.132  77.419 112.962  0.00  0.00     0.038 C 
ATOM      4  C   LIG d   1      -0.768  77.124 113.102  0.00  0.00     0.028 C 
ATOM      5  C   LIG d   1      -0.384  76.686 114.511  0.00  0.00    -0.047 C 
ATOM      6  C   LIG d   1      -1.331  75.550 114.959  0.00  0.00     0.091 C 
ENDROOT
BRANCH   1   7
ATOM      7  O   LIG d   1      -3.664  74.810 114.843  0.00  0.00    -0.368 OA
BRANCH   7   8
ATOM      8  C   LIG d   1      -4.588  74.680 115.951  0.00  0.00     0.119 C 
BRANCH   8   9
ATOM      9  C   LIG d   1      -5.997  74.481 115.359  0.00  0.00     0.028 C 
ATOM     10  C   LIG d   1      -6.800  73.402 116.104  0.00  0.00     0.006 C 
ENDBRANCH   8   9
BRANCH   8  11
ATOM     11  C   LIG d   1      -4.669  75.976 116.764  0.00  0.00     0.028 C 
ATOM     12  C   LIG d   1      -4.129  75.816 118.194  0.00  0.00     0.006 C 
ENDBRANCH   8  11
ENDBRANCH   7   8
ENDBRANCH   1   7
BRANCH   6  13
ATOM     13  N   LIG d   1      -1.079  75.120 116.360  0.00  0.00    -0.311 N 
ATOM     14  C   LIG d   1      -0.534  73.948 116.680  0.00  0.00     0.210 C 
ATOM     15  C   LIG d   1      -0.380  73.695 118.183  0.00  0.00     0.109 C 
ATOM     16  O   LIG d   1      -0.135  73.106 115.861  0.00  0.00    -0.276 OA
ATOM     17  H   LIG d   1      -1.344  75.756 117.087  0.00  0.00     0.149 HD
ENDBRANCH   6  13
BRANCH   5  18
ATOM     18  N   LIG d   1       1.034  76.278 114.481  0.00  0.00     0.381 N 
ATOM     19  H   LIG d   1       1.525  76.705 115.241  0.00  0.00    -0.090 HD
ATOM     20  H   LIG d   1       1.445  76.596 113.621  0.00  0.00    -0.090 HD
ATOM     21  H   LIG d   1       1.105  75.287 114.545  0.00  0.00    -0.090 HD
ENDBRANCH   5  18
BRANCH   3  22
ATOM     22  C   LIG d   1      -2.507  78.373 112.029  0.00  0.00     0.382 C 
ATOM     23  O   LIG d   1      -2.206  78.220 110.820  0.00  0.00    -0.241 OA
ATOM     24  O   LIG d   1      -3.105  79.406 112.386  0.00  0.00    -0.241 OA
ENDBRANCH   3  22
TORSDOF 7
ENDMDL
MODEL 6
REMARK VINA RESULT:      -5.4      2.645      4.086
REMARK  7 active torsions:
REMARK  status: ('A' for Active; 'I' for Inactive)
REMARK    1  A    between atoms: C_2  and  C_3 
REMARK    2  A    between atoms: C_3  and  O_6 
REMARK    3  A    between atoms: C_3  and  C_4 
REMARK    4  A    between atoms: C_7  and  O_6 
REMARK    5  A    between atoms: C_9  and  C_10 
REMARK    6  A    between atoms: N_15  and  C_14 
REMARK    7  A    between atoms: N_20  and  C_19 
REMARK       I    between atoms: C_22  and  N_20 
ROOT
ATOM      1  C   LIG d   1       2.745  84.648 112.011  0.00  0.00     0.161 C 
ATOM      2  C   LIG d   1       2.986  85.940 112.508  0.00  0.00     0.016 C 
ATOM      3  C   LIG d   1       2.362  87.100 111.995  0.00  0.00     0.038 C 
ATOM      4  C   LIG d   1       1.333  87.029 111.044  0.00  0.00     0.028 C 
ATOM      5  C   LIG d   1       1.414  85.793 110.154  0.00  0.00    -0.047 C 
ATOM      6  C   LIG d   1       1.544  84.539 111.049  0.00  0.00     0.091 C 
ENDROOT
BRANCH   1   7
ATOM      7  O   LIG d   1       2.596  83.723 113.106  0.00  0.00    -0.368 OA
BRANCH   7   8
ATOM      8  C   LIG d   1       3.717  82.839 113.351  0.00  0.00     0.119 C 
BRANCH   8   9
ATOM      9  C   LIG d   1       4.345  83.250 114.697  0.00  0.00     0.028 C 
ATOM     10  C   LIG d   1       4.909  82.047 115.473  0.00  0.00     0.006 C 
ENDBRANCH   8   9
BRANCH   8  11
ATOM     11  C   LIG d   1       4.822  83.039 112.310  0.00  0.00     0.028 C 
ATOM     12  C   LIG d   1       4.849  81.927 111.249  0.00  0.00     0.006 C 
ENDBRANCH   8  11
ENDBRANCH   7   8
ENDBRANCH   1   7
BRANCH   6  13
ATOM     13  N   LIG d   1       1.714  83.293 110.257  0.00  0.00    -0.311 N 
ATOM     14  C   LIG d   1       0.855  82.275 110.298  0.00  0.00     0.210 C 
ATOM     15  C   LIG d   1       1.229  81.078 109.419  0.00  0.00     0.109 C 
ATOM     16  O   LIG d   1      -0.197  82.263 110.955  0.00  0.00    -0.276 OA
ATOM     17  H   LIG d   1       2.524  83.230 109.673  0.00  0.00     0.149 HD
ENDBRANCH   6  13
BRANCH   5  18
ATOM     18  N   LIG d   1       0.208  85.775 109.305  0.00  0.00     0.381 N 
ATOM     19  H   LIG d   1       0.473  85.704 108.343  0.00  0.00    -0.090 HD
ATOM     20  H   LIG d   1      -0.292  86.637 109.433  0.00  0.00    -0.090 HD
ATOM     21  H   LIG d   1      -0.373  85.005 109.554  0.00  0.00    -0.090 HD
ENDBRANCH   5  18
BRANCH   3  22
ATOM     22  C   LIG d   1       2.794  88.352 112.405  0.00  0.00     0.382 C 
ATOM     23  O   LIG d   1       1.984  89.308 112.460  0.00  0.00    -0.241 OA
ATOM     24  O   LIG d   1       3.993  88.547 112.679  0.00  0.00    -0.241 OA
ENDBRANCH   3  22
TORSDOF 7
ENDMDL
MODEL 7
REMARK VINA RESULT:      -5.3      2.601      3.788
REMARK  7 active torsions:
REMARK  status: ('A' for Active; 'I' for Inactive)
REMARK    1  A    between atoms: C_2  and  C_3 
REMARK    2  A    between atoms: C_3  and  O_6 
REMARK    3  A    between atoms: C_3  and  C_4 
REMARK    4  A    between atoms: C_7  and  O_6 
REMARK    5  A    between atoms: C_9  and  C_10 
REMARK    6  A    between atoms: N_15  and  C_14 
REMARK    7  A    between atoms: N_20  and  C_19 
REMARK       I    between atoms: C_22  and  N_20 
ROOT
ATOM      1  C   LIG d   1       4.102  85.278 111.996  0.00  0.00     0.161 C 
ATOM      2  C   LIG d   1       3.937  86.565 112.534  0.00  0.00     0.016 C 
ATOM      3  C   LIG d   1       2.853  87.412 112.208  0.00  0.00     0.038 C 
ATOM      4  C   LIG d   1       1.772  86.967 111.431  0.00  0.00     0.028 C 
ATOM      5  C   LIG d   1       2.144  85.853 110.458  0.00  0.00    -0.047 C 
ATOM      6  C   LIG d   1       2.876  84.734 111.234  0.00  0.00     0.091 C 
ENDROOT
BRANCH   1   7
ATOM      7  O   LIG d   1       4.493  84.360 113.036  0.00  0.00    -0.368 OA
BRANCH   7   8
ATOM      8  C   LIG d   1       4.147  84.745 114.390  0.00  0.00     0.119 C 
BRANCH   8   9
ATOM      9  C   LIG d   1       5.174  84.090 115.334  0.00  0.00     0.028 C 
ATOM     10  C   LIG d   1       4.680  82.746 115.895  0.00  0.00     0.006 C 
ENDBRANCH   8   9
BRANCH   8  11
ATOM     11  C   LIG d   1       2.790  84.170 114.804  0.00  0.00     0.028 C 
ATOM     12  C   LIG d   1       1.802  85.250 115.271  0.00  0.00     0.006 C 
ENDBRANCH   8  11
ENDBRANCH   7   8
ENDBRANCH   1   7
BRANCH   6  13
ATOM     13  N   LIG d   1       3.348  83.643 110.342  0.00  0.00    -0.311 N 
ATOM     14  C   LIG d   1       3.086  82.355 110.557  0.00  0.00     0.210 C 
ATOM     15  C   LIG d   1       3.685  81.392 109.527  0.00  0.00     0.109 C 
ATOM     16  O   LIG d   1       2.386  81.921 111.485  0.00  0.00    -0.276 OA
ATOM     17  H   LIG d   1       3.897  83.908 109.548  0.00  0.00     0.149 HD
ENDBRANCH   6  13
BRANCH   5  18
ATOM     18  N   LIG d   1       0.900  85.392 109.814  0.00  0.00     0.381 N 
ATOM     19  H   LIG d   1       0.880  84.392 109.792  0.00  0.00    -0.090 HD
ATOM     20  H   LIG d   1       0.880  85.728 108.867  0.00  0.00    -0.090 HD
ATOM     21  H   LIG d   1       0.109  85.736 110.312  0.00  0.00    -0.090 HD
ENDBRANCH   5  18
BRANCH   3  22
ATOM     22  C   LIG d   1       2.862  88.733 112.628  0.00  0.00     0.382 C 
ATOM     23  O   LIG d   1       1.786  89.374 112.708  0.00  0.00    -0.241 OA
ATOM     24  O   LIG d   1       3.938  89.307 112.885  0.00  0.00    -0.241 OA
ENDBRANCH   3  22
TORSDOF 7
ENDMDL
MODEL 8
REMARK VINA RESULT:      -5.3      2.374      4.283
REMARK  7 active torsions:
REMARK  status: ('A' for Active; 'I' for Inactive)
REMARK    1  A    between atoms: C_2  and  C_3 
REMARK    2  A    between atoms: C_3  and  O_6 
REMARK    3  A    between atoms: C_3  and  C_4 
REMARK    4  A    between atoms: C_7  and  O_6 
REMARK    5  A    between atoms: C_9  and  C_10 
REMARK    6  A    between atoms: N_15  and  C_14 
REMARK    7  A    between atoms: N_20  and  C_19 
REMARK       I    between atoms: C_22  and  N_20 
ROOT
ATOM      1  C   LIG d   1       1.398  83.205 112.286  0.00  0.00     0.161 C 
ATOM      2  C   LIG d   1       0.431  83.838 111.488  0.00  0.00     0.016 C 
ATOM      3  C   LIG d   1       0.218  85.236 111.485  0.00  0.00     0.038 C 
ATOM      4  C   LIG d   1       1.067  86.116 112.172  0.00  0.00     0.028 C 
ATOM      5  C   LIG d   1       1.739  85.485 113.387  0.00  0.00    -0.047 C 
ATOM      6  C   LIG d   1       2.407  84.159 112.959  0.00  0.00     0.091 C 
ENDROOT
BRANCH   1   7
ATOM      7  O   LIG d   1       2.091  82.206 111.513  0.00  0.00    -0.368 OA
BRANCH   7   8
ATOM      8  C   LIG d   1       2.205  82.465 110.092  0.00  0.00     0.119 C 
BRANCH   8   9
ATOM      9  C   LIG d   1       2.144  81.106 109.367  0.00  0.00     0.028 C 
ATOM     10  C   LIG d   1       0.779  80.416 109.527  0.00  0.00     0.006 C 
ENDBRANCH   8   9
BRANCH   8  11
ATOM     11  C   LIG d   1       3.575  83.051 109.740  0.00  0.00     0.028 C 
ATOM     12  C   LIG d   1       4.724  82.055 109.963  0.00  0.00     0.006 C 
ENDBRANCH   8  11
ENDBRANCH   7   8
ENDBRANCH   1   7
BRANCH   6  13
ATOM     13  N   LIG d   1       3.015  83.434 114.105  0.00  0.00    -0.311 N 
ATOM     14  C   LIG d   1       4.298  83.080 114.151  0.00  0.00     0.210 C 
ATOM     15  C   LIG d   1       4.716  82.323 115.415  0.00  0.00     0.109 C 
ATOM     16  O   LIG d   1       5.138  83.349 113.278  0.00  0.00    -0.276 OA
ATOM     17  H   LIG d   1       2.413  83.203 114.871  0.00  0.00     0.149 HD
ENDBRANCH   6  13
BRANCH   5  18
ATOM     18  N   LIG d   1       2.697  86.467 113.927  0.00  0.00     0.381 N 
ATOM     19  H   LIG d   1       3.078  87.014 113.181  0.00  0.00    -0.090 HD
ATOM     20  H   LIG d   1       3.451  85.975 114.373  0.00  0.00    -0.090 HD
ATOM     21  H   LIG d   1       2.243  87.061 114.586  0.00  0.00    -0.090 HD
ENDBRANCH   5  18
BRANCH   3  22
ATOM     22  C   LIG d   1      -0.878  85.763 110.819  0.00  0.00     0.382 C 
ATOM     23  O   LIG d   1      -1.217  85.299 109.704  0.00  0.00    -0.241 OA
ATOM     24  O   LIG d   1      -1.506  86.726 111.300  0.00  0.00    -0.241 OA
ENDBRANCH   3  22
TORSDOF 7
ENDMDL
MODEL 9
REMARK VINA RESULT:      -5.3      2.901      5.045
REMARK  7 active torsions:
REMARK  status: ('A' for Active; 'I' for Inactive)
REMARK    1  A    between atoms: C_2  and  C_3 
REMARK    2  A    between atoms: C_3  and  O_6 
REMARK    3  A    between atoms: C_3  and  C_4 
REMARK    4  A    between atoms: C_7  and  O_6 
REMARK    5  A    between atoms: C_9  and  C_10 
REMARK    6  A    between atoms: N_15  and  C_14 
REMARK    7  A    between atoms: N_20  and  C_19 
REMARK       I    between atoms: C_22  and  N_20 
ROOT
ATOM      1  C   LIG d   1       2.208  86.425 112.064  0.00  0.00     0.161 C 
ATOM      2  C   LIG d   1       2.660  87.724 112.350  0.00  0.00     0.016 C 
ATOM      3  C   LIG d   1       3.309  88.074 113.556  0.00  0.00     0.038 C 
ATOM      4  C   LIG d   1       3.687  87.108 114.502  0.00  0.00     0.028 C 
ATOM      5  C   LIG d   1       2.804  85.865 114.484  0.00  0.00    -0.047 C 
ATOM      6  C   LIG d   1       2.710  85.337 113.035  0.00  0.00     0.091 C 
ENDROOT
BRANCH   1   7
ATOM      7  O   LIG d   1       2.544  86.079 110.705  0.00  0.00    -0.368 OA
BRANCH   7   8
ATOM      8  C   LIG d   1       1.430  85.923 109.793  0.00  0.00     0.119 C 
BRANCH   8   9
ATOM      9  C   LIG d   1       0.143  86.251 110.574  0.00  0.00     0.028 C 
ATOM     10  C   LIG d   1      -1.117  85.690 109.892  0.00  0.00     0.006 C 
ENDBRANCH   8   9
BRANCH   8  11
ATOM     11  C   LIG d   1       1.274  84.466 109.348  0.00  0.00     0.028 C 
ATOM     12  C   LIG d   1       2.611  83.710 109.305  0.00  0.00     0.006 C 
ENDBRANCH   8  11
ENDBRANCH   7   8
ENDBRANCH   1   7
BRANCH   6  13
ATOM     13  N   LIG d   1       1.797  84.170 112.915  0.00  0.00    -0.311 N 
ATOM     14  C   LIG d   1       2.217  82.934 112.655  0.00  0.00     0.210 C 
ATOM     15  C   LIG d   1       1.108  81.882 112.553  0.00  0.00     0.109 C 
ATOM     16  O   LIG d   1       3.406  82.602 112.531  0.00  0.00    -0.276 OA
ATOM     17  H   LIG d   1       0.818  84.344 113.032  0.00  0.00     0.149 HD
ENDBRANCH   6  13
BRANCH   5  18
ATOM     18  N   LIG d   1       3.393  84.888 115.419  0.00  0.00     0.381 N 
ATOM     19  H   LIG d   1       4.162  85.304 115.905  0.00  0.00    -0.090 HD
ATOM     20  H   LIG d   1       3.739  84.103 114.895  0.00  0.00    -0.090 HD
ATOM     21  H   LIG d   1       2.704  84.582 116.071  0.00  0.00    -0.090 HD
ENDBRANCH   5  18
BRANCH   3  22
ATOM     22  C   LIG d   1       3.551  89.408 113.845  0.00  0.00     0.382 C 
ATOM     23  O   LIG d   1       4.089  90.148 112.986  0.00  0.00    -0.241 OA
ATOM     24  O   LIG d   1       3.279  89.871 114.969  0.00  0.00    -0.241 OA
ENDBRANCH   3  22
TORSDOF 7
ENDMDL
