MODEL 1
REMARK VINA RESULT:      -5.8      0.000      0.000
REMARK  7 active torsions:
REMARK  status: ('A' for Active; 'I' for Inactive)
REMARK    1  A    between atoms: C_2  and  C_3 
REMARK    2  A    between atoms: C_3  and  O_6 
REMARK    3  A    between atoms: C_3  and  C_4 
REMARK    4  A    between atoms: C_7  and  O_6 
REMARK    5  A    between atoms: C_9  and  C_10 
REMARK    6  A    between atoms: N_15  and  C_14 
REMARK    7  A    between atoms: N_20  and  C_19 
REMARK       I    between atoms: C_22  and  N_20 
ROOT
ATOM      1  C   LIG d   1       1.520  83.539 112.987  0.00  0.00     0.161 C 
ATOM      2  C   LIG d   1       1.619  84.603 112.075  0.00  0.00     0.016 C 
ATOM      3  C   LIG d   1       1.976  85.919 112.450  0.00  0.00     0.038 C 
ATOM      4  C   LIG d   1       2.407  86.229 113.749  0.00  0.00     0.028 C 
ATOM      5  C   LIG d   1       1.838  85.297 114.814  0.00  0.00    -0.047 C 
ATOM      6  C   LIG d   1       2.094  83.833 114.389  0.00  0.00     0.091 C 
ENDROOT
BRANCH   1   7
ATOM      7  O   LIG d   1       2.134  82.360 112.431  0.00  0.00    -0.368 OA
BRANCH   7   8
ATOM      8  C   LIG d   1       1.921  82.138 111.016  0.00  0.00     0.119 C 
BRANCH   8   9
ATOM      9  C   LIG d   1       0.928  80.968 110.875  0.00  0.00     0.028 C 
ATOM     10  C   LIG d   1       1.310  80.007 109.737  0.00  0.00     0.006 C 
ENDBRANCH   8   9
BRANCH   8  11
ATOM     11  C   LIG d   1       3.205  81.665 110.327  0.00  0.00     0.028 C 
ATOM     12  C   LIG d   1       3.958  82.804 109.623  0.00  0.00     0.006 C 
ENDBRANCH   8  11
ENDBRANCH   7   8
ENDBRANCH   1   7
BRANCH   6  13
ATOM     13  N   LIG d   1       1.495  82.856 115.335  0.00  0.00    -0.311 N 
ATOM     14  C   LIG d   1       2.211  81.968 116.023  0.00  0.00     0.210 C 
ATOM     15  C   LIG d   1       1.393  81.040 116.927  0.00  0.00     0.109 C 
ATOM     16  O   LIG d   1       3.448  81.883 115.995  0.00  0.00    -0.276 OA
ATOM     17  H   LIG d   1       0.499  82.876 115.442  0.00  0.00     0.149 HD
ENDBRANCH   6  13
BRANCH   5  18
ATOM     18  N   LIG d   1       2.476  85.646 116.098  0.00  0.00     0.381 N 
ATOM     19  H   LIG d   1       3.471  85.588 116.009  0.00  0.00    -0.090 HD
ATOM     20  H   LIG d   1       2.183  84.987 116.796  0.00  0.00    -0.090 HD
ATOM     21  H   LIG d   1       2.213  86.568 116.369  0.00  0.00    -0.090 HD
ENDBRANCH   5  18
BRANCH   3  22
ATOM     22  C   LIG d   1       1.865  86.950 111.530  0.00  0.00     0.382 C 
ATOM     23  O   LIG d   1       1.785  86.691 110.305  0.00  0.00    -0.241 OA
ATOM     24  O   LIG d   1       1.888  88.137 111.905  0.00  0.00    -0.241 OA
ENDBRANCH   3  22
TORSDOF 7
ENDMDL
MODEL 2
REMARK VINA RESULT:      -5.7     11.415     13.687
REMARK  7 active torsions:
REMARK  status: ('A' for Active; 'I' for Inactive)
REMARK    1  A    between atoms: C_2  and  C_3 
REMARK    2  A    between atoms: C_3  and  O_6 
REMARK    3  A    between atoms: C_3  and  C_4 
REMARK    4  A    between atoms: C_7  and  O_6 
REMARK    5  A    between atoms: C_9  and  C_10 
REMARK    6  A    between atoms: N_15  and  C_14 
REMARK    7  A    between atoms: N_20  and  C_19 
REMARK       I    between atoms: C_22  and  N_20 
ROOT
ATOM      1  C   LIG d   1      -7.603  75.201 117.468  0.00  0.00     0.161 C 
ATOM      2  C   LIG d   1      -8.833  75.868 117.596  0.00  0.00     0.016 C 
ATOM      3  C   LIG d   1      -8.947  77.268 117.760  0.00  0.00     0.038 C 
ATOM      4  C   LIG d   1      -7.837  78.119 117.655  0.00  0.00     0.028 C 
ATOM      5  C   LIG d   1      -6.521  77.446 118.032  0.00  0.00    -0.047 C 
ATOM      6  C   LIG d   1      -6.388  76.125 117.241  0.00  0.00     0.091 C 
ENDROOT
BRANCH   1   7
ATOM      7  O   LIG d   1      -7.687  74.216 116.420  0.00  0.00    -0.368 OA
BRANCH   7   8
ATOM      8  C   LIG d   1      -7.811  72.838 116.848  0.00  0.00     0.119 C 
BRANCH   8   9
ATOM      9  C   LIG d   1      -6.666  72.044 116.189  0.00  0.00     0.028 C 
ATOM     10  C   LIG d   1      -5.983  72.830 115.057  0.00  0.00     0.006 C 
ENDBRANCH   8   9
BRANCH   8  11
ATOM     11  C   LIG d   1      -9.101  72.204 116.320  0.00  0.00     0.028 C 
ATOM     12  C   LIG d   1      -9.465  70.900 117.048  0.00  0.00     0.006 C 
ENDBRANCH   8  11
ENDBRANCH   7   8
ENDBRANCH   1   7
BRANCH   6  13
ATOM     13  N   LIG d   1      -5.168  75.362 117.612  0.00  0.00    -0.311 N 
ATOM     14  C   LIG d   1      -4.026  75.429 116.931  0.00  0.00     0.210 C 
ATOM     15  C   LIG d   1      -2.897  74.546 117.472  0.00  0.00     0.109 C 
ATOM     16  O   LIG d   1      -3.830  76.160 115.948  0.00  0.00    -0.276 OA
ATOM     17  H   LIG d   1      -5.228  74.767 118.416  0.00  0.00     0.149 HD
ENDBRANCH   6  13
BRANCH   5  18
ATOM     18  N   LIG d   1      -5.434  78.402 117.746  0.00  0.00     0.381 N 
ATOM     19  H   LIG d   1      -5.031  78.200 116.853  0.00  0.00    -0.090 HD
ATOM     20  H   LIG d   1      -4.719  78.300 118.445  0.00  0.00    -0.090 HD
ATOM     21  H   LIG d   1      -5.788  79.334 117.756  0.00  0.00    -0.090 HD
ENDBRANCH   5  18
BRANCH   3  22
ATOM     22  C   LIG d   1     -10.177  77.826 118.071  0.00  0.00     0.382 C 
ATOM     23  O   LIG d   1     -10.322  79.072 118.058  0.00  0.00    -0.241 OA
ATOM     24  O   LIG d   1     -11.133  77.101 118.408  0.00  0.00    -0.241 OA
ENDBRANCH   3  22
TORSDOF 7
ENDMDL
MODEL 3
REMARK VINA RESULT:      -5.6      2.644      4.946
REMARK  7 active torsions:
REMARK  status: ('A' for Active; 'I' for Inactive)
REMARK    1  A    between atoms: C_2  and  C_3 
REMARK    2  A    between atoms: C_3  and  O_6 
REMARK    3  A    between atoms: C_3  and  C_4 
REMARK    4  A    between atoms: C_7  and  O_6 
REMARK    5  A    between atoms: C_9  and  C_10 
REMARK    6  A    between atoms: N_15  and  C_14 
REMARK    7  A    between atoms: N_20  and  C_19 
REMARK       I    between atoms: C_22  and  N_20 
ROOT
ATOM      1  C   LIG d   1       1.733  83.825 113.230  0.00  0.00     0.161 C 
ATOM      2  C   LIG d   1       2.320  85.099 113.162  0.00  0.00     0.016 C 
ATOM      3  C   LIG d   1       1.978  86.062 112.185  0.00  0.00     0.038 C 
ATOM      4  C   LIG d   1       0.909  85.870 111.297  0.00  0.00     0.028 C 
ATOM      5  C   LIG d   1       0.623  84.401 111.002  0.00  0.00    -0.047 C 
ATOM      6  C   LIG d   1       0.487  83.638 112.340  0.00  0.00     0.091 C 
ENDROOT
BRANCH   1   7
ATOM      7  O   LIG d   1       1.422  83.503 114.601  0.00  0.00    -0.368 OA
BRANCH   7   8
ATOM      8  C   LIG d   1       1.997  84.373 115.606  0.00  0.00     0.119 C 
BRANCH   8   9
ATOM      9  C   LIG d   1       3.232  83.657 116.187  0.00  0.00     0.028 C 
ATOM     10  C   LIG d   1       4.443  84.595 116.326  0.00  0.00     0.006 C 
ENDBRANCH   8   9
BRANCH   8  11
ATOM     11  C   LIG d   1       1.044  84.563 116.790  0.00  0.00     0.028 C 
ATOM     12  C   LIG d   1       1.004  86.014 117.295  0.00  0.00     0.006 C 
ENDBRANCH   8  11
ENDBRANCH   7   8
ENDBRANCH   1   7
BRANCH   6  13
ATOM     13  N   LIG d   1       0.290  82.178 112.142  0.00  0.00    -0.311 N 
ATOM     14  C   LIG d   1      -0.909  81.609 112.025  0.00  0.00     0.210 C 
ATOM     15  C   LIG d   1      -0.888  80.088 111.848  0.00  0.00     0.109 C 
ATOM     16  O   LIG d   1      -1.986  82.224 112.021  0.00  0.00    -0.276 OA
ATOM     17  H   LIG d   1       1.112  81.608 112.102  0.00  0.00     0.149 HD
ENDBRANCH   6  13
BRANCH   5  18
ATOM     18  N   LIG d   1      -0.598  84.342 110.176  0.00  0.00     0.381 N 
ATOM     19  H   LIG d   1      -0.384  84.610 109.236  0.00  0.00    -0.090 HD
ATOM     20  H   LIG d   1      -1.271  84.991 110.544  0.00  0.00    -0.090 HD
ATOM     21  H   LIG d   1      -0.973  83.419 110.188  0.00  0.00    -0.090 HD
ENDBRANCH   5  18
BRANCH   3  22
ATOM     22  C   LIG d   1       2.735  87.217 112.064  0.00  0.00     0.382 C 
ATOM     23  O   LIG d   1       2.225  88.332 112.334  0.00  0.00    -0.241 OA
ATOM     24  O   LIG d   1       3.907  87.164 111.647  0.00  0.00    -0.241 OA
ENDBRANCH   3  22
TORSDOF 7
ENDMDL
MODEL 4
REMARK VINA RESULT:      -5.6     11.085     12.925
REMARK  7 active torsions:
REMARK  status: ('A' for Active; 'I' for Inactive)
REMARK    1  A    between atoms: C_2  and  C_3 
REMARK    2  A    between atoms: C_3  and  O_6 
REMARK    3  A    between atoms: C_3  and  C_4 
REMARK    4  A    between atoms: C_7  and  O_6 
REMARK    5  A    between atoms: C_9  and  C_10 
REMARK    6  A    between atoms: N_15  and  C_14 
REMARK    7  A    between atoms: N_20  and  C_19 
REMARK       I    between atoms: C_22  and  N_20 
ROOT
ATOM      1  C   LIG d   1      -6.457  75.011 118.032  0.00  0.00     0.161 C 
ATOM      2  C   LIG d   1      -7.810  75.331 117.831  0.00  0.00     0.016 C 
ATOM      3  C   LIG d   1      -8.271  76.646 117.591  0.00  0.00     0.038 C 
ATOM      4  C   LIG d   1      -7.387  77.716 117.385  0.00  0.00     0.028 C 
ATOM      5  C   LIG d   1      -6.041  77.532 118.078  0.00  0.00    -0.047 C 
ATOM      6  C   LIG d   1      -5.467  76.148 117.700  0.00  0.00     0.091 C 
ENDROOT
BRANCH   1   7
ATOM      7  O   LIG d   1      -6.121  73.822 117.291  0.00  0.00    -0.368 OA
BRANCH   7   8
ATOM      8  C   LIG d   1      -6.757  73.676 115.998  0.00  0.00     0.119 C 
BRANCH   8   9
ATOM      9  C   LIG d   1      -7.247  72.219 115.884  0.00  0.00     0.028 C 
ATOM     10  C   LIG d   1      -8.735  72.070 116.244  0.00  0.00     0.006 C 
ENDBRANCH   8   9
BRANCH   8  11
ATOM     11  C   LIG d   1      -5.751  73.855 114.857  0.00  0.00     0.028 C 
ATOM     12  C   LIG d   1      -5.782  75.267 114.251  0.00  0.00     0.006 C 
ENDBRANCH   8  11
ENDBRANCH   7   8
ENDBRANCH   1   7
BRANCH   6  13
ATOM     13  N   LIG d   1      -4.191  75.852 118.403  0.00  0.00    -0.311 N 
ATOM     14  C   LIG d   1      -3.069  75.511 117.772  0.00  0.00     0.210 C 
ATOM     15  C   LIG d   1      -1.873  75.229 118.686  0.00  0.00     0.109 C 
ATOM     16  O   LIG d   1      -2.942  75.445 116.540  0.00  0.00    -0.276 OA
ATOM     17  H   LIG d   1      -4.196  75.912 119.402  0.00  0.00     0.149 HD
ENDBRANCH   6  13
BRANCH   5  18
ATOM     18  N   LIG d   1      -5.172  78.650 117.667  0.00  0.00     0.381 N 
ATOM     19  H   LIG d   1      -5.726  79.465 117.496  0.00  0.00    -0.090 HD
ATOM     20  H   LIG d   1      -4.704  78.402 116.814  0.00  0.00    -0.090 HD
ATOM     21  H   LIG d   1      -4.501  78.840 118.379  0.00  0.00    -0.090 HD
ENDBRANCH   5  18
BRANCH   3  22
ATOM     22  C   LIG d   1      -9.632  76.908 117.596  0.00  0.00     0.382 C 
ATOM     23  O   LIG d   1     -10.450  75.979 117.395  0.00  0.00    -0.241 OA
ATOM     24  O   LIG d   1     -10.051  78.071 117.754  0.00  0.00    -0.241 OA
ENDBRANCH   3  22
TORSDOF 7
ENDMDL
MODEL 5
REMARK VINA RESULT:      -5.5      1.805      2.435
REMARK  7 active torsions:
REMARK  status: ('A' for Active; 'I' for Inactive)
REMARK    1  A    between atoms: C_2  and  C_3 
REMARK    2  A    between atoms: C_3  and  O_6 
REMARK    3  A    between atoms: C_3  and  C_4 
REMARK    4  A    between atoms: C_7  and  O_6 
REMARK    5  A    between atoms: C_9  and  C_10 
REMARK    6  A    between atoms: N_15  and  C_14 
REMARK    7  A    between atoms: N_20  and  C_19 
REMARK       I    between atoms: C_22  and  N_20 
ROOT
ATOM      1  C   LIG d   1       1.410  84.920 113.822  0.00  0.00     0.161 C 
ATOM      2  C   LIG d   1       1.903  86.087 113.215  0.00  0.00     0.016 C 
ATOM      3  C   LIG d   1       3.136  86.685 113.563  0.00  0.00     0.038 C 
ATOM      4  C   LIG d   1       4.037  86.066 114.443  0.00  0.00     0.028 C 
ATOM      5  C   LIG d   1       3.361  85.149 115.456  0.00  0.00    -0.047 C 
ATOM      6  C   LIG d   1       2.430  84.170 114.704  0.00  0.00     0.091 C 
ENDROOT
BRANCH   1   7
ATOM      7  O   LIG d   1       0.872  84.036 112.818  0.00  0.00    -0.368 OA
BRANCH   7   8
ATOM      8  C   LIG d   1       0.907  84.525 111.454  0.00  0.00     0.119 C 
BRANCH   8   9
ATOM      9  C   LIG d   1      -0.527  84.439 110.895  0.00  0.00     0.028 C 
ATOM     10  C   LIG d   1      -0.928  85.700 110.111  0.00  0.00     0.006 C 
ENDBRANCH   8   9
BRANCH   8  11
ATOM     11  C   LIG d   1       1.747  83.613 110.556  0.00  0.00     0.028 C 
ATOM     12  C   LIG d   1       3.141  84.189 110.260  0.00  0.00     0.006 C 
ENDBRANCH   8  11
ENDBRANCH   7   8
ENDBRANCH   1   7
BRANCH   6  13
ATOM     13  N   LIG d   1       1.666  83.292 115.628  0.00  0.00    -0.311 N 
ATOM     14  C   LIG d   1       2.115  82.115 116.060  0.00  0.00     0.210 C 
ATOM     15  C   LIG d   1       1.160  81.361 116.991  0.00  0.00     0.109 C 
ATOM     16  O   LIG d   1       3.226  81.638 115.786  0.00  0.00    -0.276 OA
ATOM     17  H   LIG d   1       0.767  83.616 115.926  0.00  0.00     0.149 HD
ENDBRANCH   6  13
BRANCH   5  18
ATOM     18  N   LIG d   1       4.424  84.466 116.218  0.00  0.00     0.381 N 
ATOM     19  H   LIG d   1       4.905  85.127 116.795  0.00  0.00    -0.090 HD
ATOM     20  H   LIG d   1       5.085  84.072 115.572  0.00  0.00    -0.090 HD
ATOM     21  H   LIG d   1       4.030  83.746 116.782  0.00  0.00    -0.090 HD
ENDBRANCH   5  18
BRANCH   3  22
ATOM     22  C   LIG d   1       3.460  87.935 113.059  0.00  0.00     0.382 C 
ATOM     23  O   LIG d   1       2.551  88.720 112.696  0.00  0.00    -0.241 OA
ATOM     24  O   LIG d   1       4.652  88.270 112.920  0.00  0.00    -0.241 OA
ENDBRANCH   3  22
TORSDOF 7
ENDMDL
MODEL 6
REMARK VINA RESULT:      -5.5      2.562      5.098
REMARK  7 active torsions:
REMARK  status: ('A' for Active; 'I' for Inactive)
REMARK    1  A    between atoms: C_2  and  C_3 
REMARK    2  A    between atoms: C_3  and  O_6 
REMARK    3  A    between atoms: C_3  and  C_4 
REMARK    4  A    between atoms: C_7  and  O_6 
REMARK    5  A    between atoms: C_9  and  C_10 
REMARK    6  A    between atoms: N_15  and  C_14 
REMARK    7  A    between atoms: N_20  and  C_19 
REMARK       I    between atoms: C_22  and  N_20 
ROOT
ATOM      1  C   LIG d   1       3.053  84.682 112.893  0.00  0.00     0.161 C 
ATOM      2  C   LIG d   1       3.544  85.906 113.375  0.00  0.00     0.016 C 
ATOM      3  C   LIG d   1       3.221  87.156 112.798  0.00  0.00     0.038 C 
ATOM      4  C   LIG d   1       2.258  87.278 111.785  0.00  0.00     0.028 C 
ATOM      5  C   LIG d   1       2.116  86.023 110.930  0.00  0.00    -0.047 C 
ATOM      6  C   LIG d   1       1.914  84.804 111.859  0.00  0.00     0.091 C 
ENDROOT
BRANCH   1   7
ATOM      7  O   LIG d   1       2.641  83.851 113.996  0.00  0.00    -0.368 OA
BRANCH   7   8
ATOM      8  C   LIG d   1       2.733  84.450 115.313  0.00  0.00     0.119 C 
BRANCH   8   9
ATOM      9  C   LIG d   1       3.369  83.406 116.252  0.00  0.00     0.028 C 
ATOM     10  C   LIG d   1       4.431  84.022 117.179  0.00  0.00     0.006 C 
ENDBRANCH   8   9
BRANCH   8  11
ATOM     11  C   LIG d   1       1.344  84.728 115.897  0.00  0.00     0.028 C 
ATOM     12  C   LIG d   1       1.048  86.229 116.041  0.00  0.00     0.006 C 
ENDBRANCH   8  11
ENDBRANCH   7   8
ENDBRANCH   1   7
BRANCH   6  13
ATOM     13  N   LIG d   1       1.850  83.523 111.107  0.00  0.00    -0.311 N 
ATOM     14  C   LIG d   1       0.713  82.987 110.669  0.00  0.00     0.210 C 
ATOM     15  C   LIG d   1       0.869  81.652 109.933  0.00  0.00     0.109 C 
ATOM     16  O   LIG d   1      -0.407  83.505 110.791  0.00  0.00    -0.276 OA
ATOM     17  H   LIG d   1       2.716  83.051 110.936  0.00  0.00     0.149 HD
ENDBRANCH   6  13
BRANCH   5  18
ATOM     18  N   LIG d   1       0.986  86.239 110.006  0.00  0.00     0.381 N 
ATOM     19  H   LIG d   1       1.134  85.721 109.164  0.00  0.00    -0.090 HD
ATOM     20  H   LIG d   1       0.940  87.215 109.772  0.00  0.00    -0.090 HD
ATOM     21  H   LIG d   1       0.135  85.953 110.436  0.00  0.00    -0.090 HD
ENDBRANCH   5  18
BRANCH   3  22
ATOM     22  C   LIG d   1       3.895  88.296 113.207  0.00  0.00     0.382 C 
ATOM     23  O   LIG d   1       5.115  88.431 112.949  0.00  0.00    -0.241 OA
ATOM     24  O   LIG d   1       3.308  89.173 113.871  0.00  0.00    -0.241 OA
ENDBRANCH   3  22
TORSDOF 7
ENDMDL
MODEL 7
REMARK VINA RESULT:      -5.5     10.902     13.387
REMARK  7 active torsions:
REMARK  status: ('A' for Active; 'I' for Inactive)
REMARK    1  A    between atoms: C_2  and  C_3 
REMARK    2  A    between atoms: C_3  and  O_6 
REMARK    3  A    between atoms: C_3  and  C_4 
REMARK    4  A    between atoms: C_7  and  O_6 
REMARK    5  A    between atoms: C_9  and  C_10 
REMARK    6  A    between atoms: N_15  and  C_14 
REMARK    7  A    between atoms: N_20  and  C_19 
REMARK       I    between atoms: C_22  and  N_20 
ROOT
ATOM      1  C   LIG d   1      -6.479  75.463 116.131  0.00  0.00     0.161 C 
ATOM      2  C   LIG d   1      -5.666  76.200 115.254  0.00  0.00     0.016 C 
ATOM      3  C   LIG d   1      -4.941  75.617 114.189  0.00  0.00     0.038 C 
ATOM      4  C   LIG d   1      -5.100  74.270 113.834  0.00  0.00     0.028 C 
ATOM      5  C   LIG d   1      -5.520  73.382 115.001  0.00  0.00    -0.047 C 
ATOM      6  C   LIG d   1      -6.752  74.009 115.691  0.00  0.00     0.091 C 
ENDROOT
BRANCH   1   7
ATOM      7  O   LIG d   1      -7.721  76.162 116.350  0.00  0.00    -0.368 OA
BRANCH   7   8
ATOM      8  C   LIG d   1      -7.899  76.746 117.664  0.00  0.00     0.119 C 
BRANCH   8   9
ATOM      9  C   LIG d   1      -9.413  76.936 117.884  0.00  0.00     0.028 C 
ATOM     10  C   LIG d   1     -10.255  75.958 117.046  0.00  0.00     0.006 C 
ENDBRANCH   8   9
BRANCH   8  11
ATOM     11  C   LIG d   1      -7.300  78.154 117.734  0.00  0.00     0.028 C 
ATOM     12  C   LIG d   1      -5.986  78.203 118.529  0.00  0.00     0.006 C 
ENDBRANCH   8  11
ENDBRANCH   7   8
ENDBRANCH   1   7
BRANCH   6  13
ATOM     13  N   LIG d   1      -7.177  73.248 116.895  0.00  0.00    -0.311 N 
ATOM     14  C   LIG d   1      -7.977  72.184 116.845  0.00  0.00     0.210 C 
ATOM     15  C   LIG d   1      -8.307  71.559 118.204  0.00  0.00     0.109 C 
ATOM     16  O   LIG d   1      -8.418  71.680 115.801  0.00  0.00    -0.276 OA
ATOM     17  H   LIG d   1      -6.839  73.570 117.781  0.00  0.00     0.149 HD
ENDBRANCH   6  13
BRANCH   5  18
ATOM     18  N   LIG d   1      -5.782  72.034 114.462  0.00  0.00     0.381 N 
ATOM     19  H   LIG d   1      -5.925  72.085 113.474  0.00  0.00    -0.090 HD
ATOM     20  H   LIG d   1      -6.621  71.673 114.883  0.00  0.00    -0.090 HD
ATOM     21  H   LIG d   1      -5.015  71.430 114.664  0.00  0.00    -0.090 HD
ENDBRANCH   5  18
BRANCH   3  22
ATOM     22  C   LIG d   1      -4.015  76.377 113.491  0.00  0.00     0.382 C 
ATOM     23  O   LIG d   1      -2.826  76.437 113.889  0.00  0.00    -0.241 OA
ATOM     24  O   LIG d   1      -4.362  77.039 112.495  0.00  0.00    -0.241 OA
ENDBRANCH   3  22
TORSDOF 7
ENDMDL
MODEL 8
REMARK VINA RESULT:      -5.4      3.021      5.150
REMARK  7 active torsions:
REMARK  status: ('A' for Active; 'I' for Inactive)
REMARK    1  A    between atoms: C_2  and  C_3 
REMARK    2  A    between atoms: C_3  and  O_6 
REMARK    3  A    between atoms: C_3  and  C_4 
REMARK    4  A    between atoms: C_7  and  O_6 
REMARK    5  A    between atoms: C_9  and  C_10 
REMARK    6  A    between atoms: N_15  and  C_14 
REMARK    7  A    between atoms: N_20  and  C_19 
REMARK       I    between atoms: C_22  and  N_20 
ROOT
ATOM      1  C   LIG d   1       2.084  84.704 110.256  0.00  0.00     0.161 C 
ATOM      2  C   LIG d   1       1.083  85.632 110.588  0.00  0.00     0.016 C 
ATOM      3  C   LIG d   1      -0.208  85.260 111.029  0.00  0.00     0.038 C 
ATOM      4  C   LIG d   1      -0.538  83.927 111.315  0.00  0.00     0.028 C 
ATOM      5  C   LIG d   1       0.277  82.916 110.515  0.00  0.00    -0.047 C 
ATOM      6  C   LIG d   1       1.779  83.249 110.667  0.00  0.00     0.091 C 
ENDROOT
BRANCH   1   7
ATOM      7  O   LIG d   1       3.346  85.128 110.810  0.00  0.00    -0.368 OA
BRANCH   7   8
ATOM      8  C   LIG d   1       3.279  85.868 112.054  0.00  0.00     0.119 C 
BRANCH   8   9
ATOM      9  C   LIG d   1       4.448  86.873 112.057  0.00  0.00     0.028 C 
ATOM     10  C   LIG d   1       4.292  87.950 113.144  0.00  0.00     0.006 C 
ENDBRANCH   8   9
BRANCH   8  11
ATOM     11  C   LIG d   1       3.525  84.956 113.259  0.00  0.00     0.028 C 
ATOM     12  C   LIG d   1       2.351  84.948 114.250  0.00  0.00     0.006 C 
ENDBRANCH   8  11
ENDBRANCH   7   8
ENDBRANCH   1   7
BRANCH   6  13
ATOM     13  N   LIG d   1       2.643  82.359 109.848  0.00  0.00    -0.311 N 
ATOM     14  C   LIG d   1       3.192  81.239 110.314  0.00  0.00     0.210 C 
ATOM     15  C   LIG d   1       4.064  80.480 109.309  0.00  0.00     0.109 C 
ATOM     16  O   LIG d   1       3.013  80.785 111.454  0.00  0.00    -0.276 OA
ATOM     17  H   LIG d   1       2.815  82.636 108.901  0.00  0.00     0.149 HD
ENDBRANCH   6  13
BRANCH   5  18
ATOM     18  N   LIG d   1      -0.071  81.571 111.010  0.00  0.00     0.381 N 
ATOM     19  H   LIG d   1       0.249  81.464 111.952  0.00  0.00    -0.090 HD
ATOM     20  H   LIG d   1       0.392  80.885 110.440  0.00  0.00    -0.090 HD
ATOM     21  H   LIG d   1      -1.057  81.437 110.969  0.00  0.00    -0.090 HD
ENDBRANCH   5  18
BRANCH   3  22
ATOM     22  C   LIG d   1      -1.197  86.224 111.151  0.00  0.00     0.382 C 
ATOM     23  O   LIG d   1      -1.253  87.172 110.330  0.00  0.00    -0.241 OA
ATOM     24  O   LIG d   1      -2.007  86.183 112.096  0.00  0.00    -0.241 OA
ENDBRANCH   3  22
TORSDOF 7
ENDMDL
MODEL 9
REMARK VINA RESULT:      -5.2      9.932     11.912
REMARK  7 active torsions:
REMARK  status: ('A' for Active; 'I' for Inactive)
REMARK    1  A    between atoms: C_2  and  C_3 
REMARK    2  A    between atoms: C_3  and  O_6 
REMARK    3  A    between atoms: C_3  and  C_4 
REMARK    4  A    between atoms: C_7  and  O_6 
REMARK    5  A    between atoms: C_9  and  C_10 
REMARK    6  A    between atoms: N_15  and  C_14 
REMARK    7  A    between atoms: N_20  and  C_19 
REMARK       I    between atoms: C_22  and  N_20 
ROOT
ATOM      1  C   LIG d   1      -4.789  75.854 116.609  0.00  0.00     0.161 C 
ATOM      2  C   LIG d   1      -5.378  76.088 115.355  0.00  0.00     0.016 C 
ATOM      3  C   LIG d   1      -4.658  76.055 114.139  0.00  0.00     0.038 C 
ATOM      4  C   LIG d   1      -3.321  75.634 114.080  0.00  0.00     0.028 C 
ATOM      5  C   LIG d   1      -2.552  75.876 115.374  0.00  0.00    -0.047 C 
ATOM      6  C   LIG d   1      -3.356  75.284 116.554  0.00  0.00     0.091 C 
ENDROOT
BRANCH   1   7
ATOM      7  O   LIG d   1      -5.639  74.997 117.396  0.00  0.00    -0.368 OA
BRANCH   7   8
ATOM      8  C   LIG d   1      -6.525  74.123 116.654  0.00  0.00     0.119 C 
BRANCH   8   9
ATOM      9  C   LIG d   1      -7.908  74.182 117.331  0.00  0.00     0.028 C 
ATOM     10  C   LIG d   1      -8.635  75.511 117.065  0.00  0.00     0.006 C 
ENDBRANCH   8   9
BRANCH   8  11
ATOM     11  C   LIG d   1      -6.083  72.660 116.762  0.00  0.00     0.028 C 
ATOM     12  C   LIG d   1      -7.147  71.763 117.415  0.00  0.00     0.006 C 
ENDBRANCH   8  11
ENDBRANCH   7   8
ENDBRANCH   1   7
BRANCH   6  13
ATOM     13  N   LIG d   1      -2.715  75.551 117.868  0.00  0.00    -0.311 N 
ATOM     14  C   LIG d   1      -1.844  74.722 118.441  0.00  0.00     0.210 C 
ATOM     15  C   LIG d   1      -1.317  75.179 119.805  0.00  0.00     0.109 C 
ATOM     16  O   LIG d   1      -1.433  73.667 117.935  0.00  0.00    -0.276 OA
ATOM     17  H   LIG d   1      -2.967  76.401 118.334  0.00  0.00     0.149 HD
ENDBRANCH   6  13
BRANCH   5  18
ATOM     18  N   LIG d   1      -1.217  75.267 115.220  0.00  0.00     0.381 N 
ATOM     19  H   LIG d   1      -0.557  75.964 114.938  0.00  0.00    -0.090 HD
ATOM     20  H   LIG d   1      -1.261  74.566 114.502  0.00  0.00    -0.090 HD
ATOM     21  H   LIG d   1      -0.929  74.855 116.080  0.00  0.00    -0.090 HD
ENDBRANCH   5  18
BRANCH   3  22
ATOM     22  C   LIG d   1      -5.265  76.485 112.969  0.00  0.00     0.382 C 
ATOM     23  O   LIG d   1      -4.584  77.050 112.080  0.00  0.00    -0.241 OA
ATOM     24  O   LIG d   1      -6.494  76.355 112.811  0.00  0.00    -0.241 OA
ENDBRANCH   3  22
TORSDOF 7
ENDMDL
