MODEL 1
REMARK VINA RESULT:      -5.7      0.000      0.000
REMARK  7 active torsions:
REMARK  status: ('A' for Active; 'I' for Inactive)
REMARK    1  A    between atoms: C_2  and  C_3 
REMARK    2  A    between atoms: C_3  and  O_6 
REMARK    3  A    between atoms: C_3  and  C_4 
REMARK    4  A    between atoms: C_7  and  O_6 
REMARK    5  A    between atoms: C_9  and  C_10 
REMARK    6  A    between atoms: N_15  and  C_14 
REMARK    7  A    between atoms: N_20  and  C_19 
REMARK       I    between atoms: C_22  and  N_20 
ROOT
ATOM      1  C   LIG d   1      -2.702  75.186 116.217  0.00  0.00     0.161 C 
ATOM      2  C   LIG d   1      -2.323  74.679 117.471  0.00  0.00     0.016 C 
ATOM      3  C   LIG d   1      -1.221  75.169 118.208  0.00  0.00     0.038 C 
ATOM      4  C   LIG d   1      -0.508  76.309 117.807  0.00  0.00     0.028 C 
ATOM      5  C   LIG d   1      -0.537  76.542 116.300  0.00  0.00    -0.047 C 
ATOM      6  C   LIG d   1      -2.004  76.503 115.815  0.00  0.00     0.091 C 
ENDROOT
BRANCH   1   7
ATOM      7  O   LIG d   1      -4.134  75.342 116.164  0.00  0.00    -0.368 OA
BRANCH   7   8
ATOM      8  C   LIG d   1      -4.869  74.261 115.540  0.00  0.00     0.119 C 
BRANCH   8   9
ATOM      9  C   LIG d   1      -5.123  74.661 114.073  0.00  0.00     0.028 C 
ATOM     10  C   LIG d   1      -6.011  75.910 113.951  0.00  0.00     0.006 C 
ENDBRANCH   8   9
BRANCH   8  11
ATOM     11  C   LIG d   1      -6.260  74.101 116.162  0.00  0.00     0.028 C 
ATOM     12  C   LIG d   1      -6.724  72.636 116.214  0.00  0.00     0.006 C 
ENDBRANCH   8  11
ENDBRANCH   7   8
ENDBRANCH   1   7
BRANCH   6  13
ATOM     13  N   LIG d   1      -2.117  76.639 114.339  0.00  0.00    -0.311 N 
ATOM     14  C   LIG d   1      -2.743  77.652 113.742  0.00  0.00     0.210 C 
ATOM     15  C   LIG d   1      -2.760  77.589 112.212  0.00  0.00     0.109 C 
ATOM     16  O   LIG d   1      -3.259  78.612 114.334  0.00  0.00    -0.276 OA
ATOM     17  H   LIG d   1      -1.700  75.920 113.782  0.00  0.00     0.149 HD
ENDBRANCH   6  13
BRANCH   5  18
ATOM     18  N   LIG d   1       0.124  77.834 116.037  0.00  0.00     0.381 N 
ATOM     19  H   LIG d   1       0.254  77.953 115.052  0.00  0.00    -0.090 HD
ATOM     20  H   LIG d   1       1.028  77.832 116.476  0.00  0.00    -0.090 HD
ATOM     21  H   LIG d   1      -0.428  78.580 116.399  0.00  0.00    -0.090 HD
ENDBRANCH   5  18
BRANCH   3  22
ATOM     22  C   LIG d   1      -0.796  74.491 119.341  0.00  0.00     0.382 C 
ATOM     23  O   LIG d   1       0.430  74.398 119.593  0.00  0.00    -0.241 OA
ATOM     24  O   LIG d   1      -1.620  73.934 120.090  0.00  0.00    -0.241 OA
ENDBRANCH   3  22
TORSDOF 7
ENDMDL
MODEL 2
REMARK VINA RESULT:      -5.5     15.918     17.439
REMARK  7 active torsions:
REMARK  status: ('A' for Active; 'I' for Inactive)
REMARK    1  A    between atoms: C_2  and  C_3 
REMARK    2  A    between atoms: C_3  and  O_6 
REMARK    3  A    between atoms: C_3  and  C_4 
REMARK    4  A    between atoms: C_7  and  O_6 
REMARK    5  A    between atoms: C_9  and  C_10 
REMARK    6  A    between atoms: N_15  and  C_14 
REMARK    7  A    between atoms: N_20  and  C_19 
REMARK       I    between atoms: C_22  and  N_20 
ROOT
ATOM      1  C   LIG d   1      -2.123  57.903 118.818  0.00  0.00     0.161 C 
ATOM      2  C   LIG d   1      -2.526  58.927 119.691  0.00  0.00     0.016 C 
ATOM      3  C   LIG d   1      -1.673  59.973 120.110  0.00  0.00     0.038 C 
ATOM      4  C   LIG d   1      -0.394  60.152 119.561  0.00  0.00     0.028 C 
ATOM      5  C   LIG d   1       0.235  58.857 119.057  0.00  0.00    -0.047 C 
ATOM      6  C   LIG d   1      -0.767  58.143 118.122  0.00  0.00     0.091 C 
ENDROOT
BRANCH   1   7
ATOM      7  O   LIG d   1      -3.153  57.662 117.839  0.00  0.00    -0.368 OA
BRANCH   7   8
ATOM      8  C   LIG d   1      -3.337  58.695 116.840  0.00  0.00     0.119 C 
BRANCH   8   9
ATOM      9  C   LIG d   1      -4.809  59.146 116.907  0.00  0.00     0.028 C 
ATOM     10  C   LIG d   1      -5.708  58.115 117.609  0.00  0.00     0.006 C 
ENDBRANCH   8   9
BRANCH   8  11
ATOM     11  C   LIG d   1      -3.147  58.142 115.425  0.00  0.00     0.028 C 
ATOM     12  C   LIG d   1      -3.059  59.247 114.360  0.00  0.00     0.006 C 
ENDBRANCH   8  11
ENDBRANCH   7   8
ENDBRANCH   1   7
BRANCH   6  13
ATOM     13  N   LIG d   1      -0.263  56.826 117.652  0.00  0.00    -0.311 N 
ATOM     14  C   LIG d   1       0.127  56.595 116.399  0.00  0.00     0.210 C 
ATOM     15  C   LIG d   1       0.593  55.162 116.121  0.00  0.00     0.109 C 
ATOM     16  O   LIG d   1       0.161  57.449 115.500  0.00  0.00    -0.276 OA
ATOM     17  H   LIG d   1      -0.228  56.085 118.324  0.00  0.00     0.149 HD
ENDBRANCH   6  13
BRANCH   5  18
ATOM     18  N   LIG d   1       1.502  59.208 118.388  0.00  0.00     0.381 N 
ATOM     19  H   LIG d   1       2.069  59.757 119.003  0.00  0.00    -0.090 HD
ATOM     20  H   LIG d   1       1.297  59.759 117.573  0.00  0.00    -0.090 HD
ATOM     21  H   LIG d   1       1.989  58.380 118.125  0.00  0.00    -0.090 HD
ENDBRANCH   5  18
BRANCH   3  22
ATOM     22  C   LIG d   1      -2.082  60.832 121.118  0.00  0.00     0.382 C 
ATOM     23  O   LIG d   1      -3.302  60.939 121.394  0.00  0.00    -0.241 OA
ATOM     24  O   LIG d   1      -1.252  61.535 121.726  0.00  0.00    -0.241 OA
ENDBRANCH   3  22
TORSDOF 7
ENDMDL
MODEL 3
REMARK VINA RESULT:      -5.5     15.904     17.031
REMARK  7 active torsions:
REMARK  status: ('A' for Active; 'I' for Inactive)
REMARK    1  A    between atoms: C_2  and  C_3 
REMARK    2  A    between atoms: C_3  and  O_6 
REMARK    3  A    between atoms: C_3  and  C_4 
REMARK    4  A    between atoms: C_7  and  O_6 
REMARK    5  A    between atoms: C_9  and  C_10 
REMARK    6  A    between atoms: N_15  and  C_14 
REMARK    7  A    between atoms: N_20  and  C_19 
REMARK       I    between atoms: C_22  and  N_20 
ROOT
ATOM      1  C   LIG d   1      -2.125  58.848 118.534  0.00  0.00     0.161 C 
ATOM      2  C   LIG d   1      -1.976  58.773 117.139  0.00  0.00     0.016 C 
ATOM      3  C   LIG d   1      -0.738  58.946 116.478  0.00  0.00     0.038 C 
ATOM      4  C   LIG d   1       0.470  59.056 117.183  0.00  0.00     0.028 C 
ATOM      5  C   LIG d   1       0.303  59.642 118.581  0.00  0.00    -0.047 C 
ATOM      6  C   LIG d   1      -0.801  58.858 119.326  0.00  0.00     0.091 C 
ENDROOT
BRANCH   1   7
ATOM      7  O   LIG d   1      -2.976  57.779 118.992  0.00  0.00    -0.368 OA
BRANCH   7   8
ATOM      8  C   LIG d   1      -4.337  58.146 119.326  0.00  0.00     0.119 C 
BRANCH   8   9
ATOM      9  C   LIG d   1      -5.228  57.754 118.131  0.00  0.00     0.028 C 
ATOM     10  C   LIG d   1      -5.917  58.969 117.488  0.00  0.00     0.006 C 
ENDBRANCH   8   9
BRANCH   8  11
ATOM     11  C   LIG d   1      -4.488  59.665 119.461  0.00  0.00     0.028 C 
ATOM     12  C   LIG d   1      -4.978  60.092 120.854  0.00  0.00     0.006 C 
ENDBRANCH   8  11
ENDBRANCH   7   8
ENDBRANCH   1   7
BRANCH   6  13
ATOM     13  N   LIG d   1      -1.086  59.420 120.672  0.00  0.00    -0.311 N 
ATOM     14  C   LIG d   1      -1.393  60.699 120.882  0.00  0.00     0.210 C 
ATOM     15  C   LIG d   1      -1.631  61.074 122.348  0.00  0.00     0.109 C 
ATOM     16  O   LIG d   1      -1.523  61.551 119.990  0.00  0.00    -0.276 OA
ATOM     17  H   LIG d   1      -1.034  58.791 121.449  0.00  0.00     0.149 HD
ENDBRANCH   6  13
BRANCH   5  18
ATOM     18  N   LIG d   1       1.615  59.573 119.253  0.00  0.00     0.381 N 
ATOM     19  H   LIG d   1       2.298  60.065 118.713  0.00  0.00    -0.090 HD
ATOM     20  H   LIG d   1       1.897  58.610 119.317  0.00  0.00    -0.090 HD
ATOM     21  H   LIG d   1       1.553  59.970 120.164  0.00  0.00    -0.090 HD
ENDBRANCH   5  18
BRANCH   3  22
ATOM     22  C   LIG d   1      -0.705  59.049 115.096  0.00  0.00     0.382 C 
ATOM     23  O   LIG d   1       0.328  58.716 114.466  0.00  0.00    -0.241 OA
ATOM     24  O   LIG d   1      -1.680  59.512 114.474  0.00  0.00    -0.241 OA
ENDBRANCH   3  22
TORSDOF 7
ENDMDL
MODEL 4
REMARK VINA RESULT:      -5.3      2.277      5.120
REMARK  7 active torsions:
REMARK  status: ('A' for Active; 'I' for Inactive)
REMARK    1  A    between atoms: C_2  and  C_3 
REMARK    2  A    between atoms: C_3  and  O_6 
REMARK    3  A    between atoms: C_3  and  C_4 
REMARK    4  A    between atoms: C_7  and  O_6 
REMARK    5  A    between atoms: C_9  and  C_10 
REMARK    6  A    between atoms: N_15  and  C_14 
REMARK    7  A    between atoms: N_20  and  C_19 
REMARK       I    between atoms: C_22  and  N_20 
ROOT
ATOM      1  C   LIG d   1      -2.948  77.066 116.375  0.00  0.00     0.161 C 
ATOM      2  C   LIG d   1      -3.343  77.850 115.279  0.00  0.00     0.016 C 
ATOM      3  C   LIG d   1      -2.678  77.835 114.031  0.00  0.00     0.038 C 
ATOM      4  C   LIG d   1      -1.656  76.917 113.747  0.00  0.00     0.028 C 
ATOM      5  C   LIG d   1      -0.892  76.458 114.985  0.00  0.00    -0.047 C 
ATOM      6  C   LIG d   1      -1.905  75.977 116.049  0.00  0.00     0.091 C 
ENDROOT
BRANCH   1   7
ATOM      7  O   LIG d   1      -4.107  76.479 116.999  0.00  0.00    -0.368 OA
BRANCH   7   8
ATOM      8  C   LIG d   1      -5.378  77.106 116.701  0.00  0.00     0.119 C 
BRANCH   8   9
ATOM      9  C   LIG d   1      -5.909  77.722 118.010  0.00  0.00     0.028 C 
ATOM     10  C   LIG d   1      -6.924  78.850 117.760  0.00  0.00     0.006 C 
ENDBRANCH   8   9
BRANCH   8  11
ATOM     11  C   LIG d   1      -6.427  76.071 116.286  0.00  0.00     0.028 C 
ATOM     12  C   LIG d   1      -5.869  75.010 115.324  0.00  0.00     0.006 C 
ENDBRANCH   8  11
ENDBRANCH   7   8
ENDBRANCH   1   7
BRANCH   6  13
ATOM     13  N   LIG d   1      -1.246  75.589 117.324  0.00  0.00    -0.311 N 
ATOM     14  C   LIG d   1      -0.928  74.333 117.632  0.00  0.00     0.210 C 
ATOM     15  C   LIG d   1      -0.273  74.150 119.005  0.00  0.00     0.109 C 
ATOM     16  O   LIG d   1      -1.097  73.357 116.886  0.00  0.00    -0.276 OA
ATOM     17  H   LIG d   1      -1.044  76.323 117.974  0.00  0.00     0.149 HD
ENDBRANCH   6  13
BRANCH   5  18
ATOM     18  N   LIG d   1       0.048  75.403 114.562  0.00  0.00     0.381 N 
ATOM     19  H   LIG d   1       0.611  75.120 115.340  0.00  0.00    -0.090 HD
ATOM     20  H   LIG d   1       0.655  75.774 113.853  0.00  0.00    -0.090 HD
ATOM     21  H   LIG d   1      -0.455  74.621 114.204  0.00  0.00    -0.090 HD
ENDBRANCH   5  18
BRANCH   3  22
ATOM     22  C   LIG d   1      -3.007  78.775 113.066  0.00  0.00     0.382 C 
ATOM     23  O   LIG d   1      -2.971  79.998 113.343  0.00  0.00    -0.241 OA
ATOM     24  O   LIG d   1      -3.382  78.413 111.934  0.00  0.00    -0.241 OA
ENDBRANCH   3  22
TORSDOF 7
ENDMDL
MODEL 5
REMARK VINA RESULT:      -5.3     15.999     18.262
REMARK  7 active torsions:
REMARK  status: ('A' for Active; 'I' for Inactive)
REMARK    1  A    between atoms: C_2  and  C_3 
REMARK    2  A    between atoms: C_3  and  O_6 
REMARK    3  A    between atoms: C_3  and  C_4 
REMARK    4  A    between atoms: C_7  and  O_6 
REMARK    5  A    between atoms: C_9  and  C_10 
REMARK    6  A    between atoms: N_15  and  C_14 
REMARK    7  A    between atoms: N_20  and  C_19 
REMARK       I    between atoms: C_22  and  N_20 
ROOT
ATOM      1  C   LIG d   1      -5.523  93.009 117.814  0.00  0.00     0.161 C 
ATOM      2  C   LIG d   1      -6.076  94.159 118.403  0.00  0.00     0.016 C 
ATOM      3  C   LIG d   1      -7.374  94.636 118.108  0.00  0.00     0.038 C 
ATOM      4  C   LIG d   1      -8.269  93.907 117.311  0.00  0.00     0.028 C 
ATOM      5  C   LIG d   1      -7.578  93.004 116.295  0.00  0.00    -0.047 C 
ATOM      6  C   LIG d   1      -6.525  92.140 117.027  0.00  0.00     0.091 C 
ENDROOT
BRANCH   1   7
ATOM      7  O   LIG d   1      -4.854  92.220 118.817  0.00  0.00    -0.368 OA
BRANCH   7   8
ATOM      8  C   LIG d   1      -3.412  92.350 118.873  0.00  0.00     0.119 C 
BRANCH   8   9
ATOM      9  C   LIG d   1      -2.956  93.019 117.563  0.00  0.00     0.028 C 
ATOM     10  C   LIG d   1      -1.898  94.111 117.798  0.00  0.00     0.006 C 
ENDBRANCH   8   9
BRANCH   8  11
ATOM     11  C   LIG d   1      -2.729  90.979 118.887  0.00  0.00     0.028 C 
ATOM     12  C   LIG d   1      -2.489  90.418 117.476  0.00  0.00     0.006 C 
ENDBRANCH   8  11
ENDBRANCH   7   8
ENDBRANCH   1   7
BRANCH   6  13
ATOM     13  N   LIG d   1      -5.745  91.287 116.093  0.00  0.00    -0.311 N 
ATOM     14  C   LIG d   1      -6.032  90.008 115.854  0.00  0.00     0.210 C 
ATOM     15  C   LIG d   1      -5.088  89.306 114.872  0.00  0.00     0.109 C 
ATOM     16  O   LIG d   1      -6.999  89.398 116.336  0.00  0.00    -0.276 OA
ATOM     17  H   LIG d   1      -4.962  91.710 115.635  0.00  0.00     0.149 HD
ENDBRANCH   6  13
BRANCH   5  18
ATOM     18  N   LIG d   1      -8.622  92.202 115.629  0.00  0.00     0.381 N 
ATOM     19  H   LIG d   1      -8.235  91.335 115.314  0.00  0.00    -0.090 HD
ATOM     20  H   LIG d   1      -8.958  92.707 114.828  0.00  0.00    -0.090 HD
ATOM     21  H   LIG d   1      -9.373  92.028 116.261  0.00  0.00    -0.090 HD
ENDBRANCH   5  18
BRANCH   3  22
ATOM     22  C   LIG d   1      -7.773  95.877 118.581  0.00  0.00     0.382 C 
ATOM     23  O   LIG d   1      -8.297  95.976 119.716  0.00  0.00    -0.241 OA
ATOM     24  O   LIG d   1      -7.656  96.892 117.868  0.00  0.00    -0.241 OA
ENDBRANCH   3  22
TORSDOF 7
ENDMDL
MODEL 6
REMARK VINA RESULT:      -5.3     16.304     18.615
REMARK  7 active torsions:
REMARK  status: ('A' for Active; 'I' for Inactive)
REMARK    1  A    between atoms: C_2  and  C_3 
REMARK    2  A    between atoms: C_3  and  O_6 
REMARK    3  A    between atoms: C_3  and  C_4 
REMARK    4  A    between atoms: C_7  and  O_6 
REMARK    5  A    between atoms: C_9  and  C_10 
REMARK    6  A    between atoms: N_15  and  C_14 
REMARK    7  A    between atoms: N_20  and  C_19 
REMARK       I    between atoms: C_22  and  N_20 
ROOT
ATOM      1  C   LIG d   1      -4.740  92.752 117.533  0.00  0.00     0.161 C 
ATOM      2  C   LIG d   1      -4.754  91.609 116.717  0.00  0.00     0.016 C 
ATOM      3  C   LIG d   1      -5.910  91.142 116.051  0.00  0.00     0.038 C 
ATOM      4  C   LIG d   1      -7.104  91.878 116.035  0.00  0.00     0.028 C 
ATOM      5  C   LIG d   1      -7.280  92.775 117.255  0.00  0.00    -0.047 C 
ATOM      6  C   LIG d   1      -6.005  93.630 117.437  0.00  0.00     0.091 C 
ENDROOT
BRANCH   1   7
ATOM      7  O   LIG d   1      -3.563  93.537 117.254  0.00  0.00    -0.368 OA
BRANCH   7   8
ATOM      8  C   LIG d   1      -2.532  93.523 118.271  0.00  0.00     0.119 C 
BRANCH   8   9
ATOM      9  C   LIG d   1      -2.459  94.938 118.877  0.00  0.00     0.028 C 
ATOM     10  C   LIG d   1      -3.003  94.990 120.314  0.00  0.00     0.006 C 
ENDBRANCH   8   9
BRANCH   8  11
ATOM     11  C   LIG d   1      -1.150  93.271 117.660  0.00  0.00     0.028 C 
ATOM     12  C   LIG d   1      -0.032  94.044 118.378  0.00  0.00     0.006 C 
ENDBRANCH   8  11
ENDBRANCH   7   8
ENDBRANCH   1   7
BRANCH   6  13
ATOM     13  N   LIG d   1      -6.059  94.476 118.658  0.00  0.00    -0.311 N 
ATOM     14  C   LIG d   1      -6.561  95.709 118.675  0.00  0.00     0.210 C 
ATOM     15  C   LIG d   1      -6.502  96.414 120.034  0.00  0.00     0.109 C 
ATOM     16  O   LIG d   1      -7.079  96.275 117.700  0.00  0.00    -0.276 OA
ATOM     17  H   LIG d   1      -5.688  94.083 119.502  0.00  0.00     0.149 HD
ENDBRANCH   6  13
BRANCH   5  18
ATOM     18  N   LIG d   1      -8.494  93.585 117.043  0.00  0.00     0.381 N 
ATOM     19  H   LIG d   1      -8.239  94.533 116.848  0.00  0.00    -0.090 HD
ATOM     20  H   LIG d   1      -9.045  93.573 117.883  0.00  0.00    -0.090 HD
ATOM     21  H   LIG d   1      -9.023  93.214 116.285  0.00  0.00    -0.090 HD
ENDBRANCH   5  18
BRANCH   3  22
ATOM     22  C   LIG d   1      -5.891  89.905 115.424  0.00  0.00     0.382 C 
ATOM     23  O   LIG d   1      -6.796  89.600 114.612  0.00  0.00    -0.241 OA
ATOM     24  O   LIG d   1      -5.003  89.074 115.695  0.00  0.00    -0.241 OA
ENDBRANCH   3  22
TORSDOF 7
ENDMDL
MODEL 7
REMARK VINA RESULT:      -5.3     15.501     17.679
REMARK  7 active torsions:
REMARK  status: ('A' for Active; 'I' for Inactive)
REMARK    1  A    between atoms: C_2  and  C_3 
REMARK    2  A    between atoms: C_3  and  O_6 
REMARK    3  A    between atoms: C_3  and  C_4 
REMARK    4  A    between atoms: C_7  and  O_6 
REMARK    5  A    between atoms: C_9  and  C_10 
REMARK    6  A    between atoms: N_15  and  C_14 
REMARK    7  A    between atoms: N_20  and  C_19 
REMARK       I    between atoms: C_22  and  N_20 
ROOT
ATOM      1  C   LIG d   1      -5.552  93.008 116.975  0.00  0.00     0.161 C 
ATOM      2  C   LIG d   1      -6.690  92.263 116.622  0.00  0.00     0.016 C 
ATOM      3  C   LIG d   1      -6.663  90.870 116.379  0.00  0.00     0.038 C 
ATOM      4  C   LIG d   1      -5.518  90.097 116.622  0.00  0.00     0.028 C 
ATOM      5  C   LIG d   1      -4.217  90.883 116.492  0.00  0.00    -0.047 C 
ATOM      6  C   LIG d   1      -4.317  92.164 117.353  0.00  0.00     0.091 C 
ENDROOT
BRANCH   1   7
ATOM      7  O   LIG d   1      -5.878  93.923 118.040  0.00  0.00    -0.368 OA
BRANCH   7   8
ATOM      8  C   LIG d   1      -6.429  93.331 119.242  0.00  0.00     0.119 C 
BRANCH   8   9
ATOM      9  C   LIG d   1      -7.667  94.157 119.640  0.00  0.00     0.028 C 
ATOM     10  C   LIG d   1      -7.940  95.314 118.663  0.00  0.00     0.006 C 
ENDBRANCH   8   9
BRANCH   8  11
ATOM     11  C   LIG d   1      -5.459  93.461 120.421  0.00  0.00     0.028 C 
ATOM     12  C   LIG d   1      -4.558  94.701 120.318  0.00  0.00     0.006 C 
ENDBRANCH   8  11
ENDBRANCH   7   8
ENDBRANCH   1   7
BRANCH   6  13
ATOM     13  N   LIG d   1      -3.119  93.033 117.217  0.00  0.00    -0.311 N 
ATOM     14  C   LIG d   1      -2.101  93.017 118.075  0.00  0.00     0.210 C 
ATOM     15  C   LIG d   1      -0.975  94.007 117.760  0.00  0.00     0.109 C 
ATOM     16  O   LIG d   1      -2.008  92.255 119.048  0.00  0.00    -0.276 OA
ATOM     17  H   LIG d   1      -3.097  93.661 116.437  0.00  0.00     0.149 HD
ENDBRANCH   6  13
BRANCH   5  18
ATOM     18  N   LIG d   1      -3.116  89.994 116.905  0.00  0.00     0.381 N 
ATOM     19  H   LIG d   1      -3.234  89.730 117.863  0.00  0.00    -0.090 HD
ATOM     20  H   LIG d   1      -2.247  90.491 116.820  0.00  0.00    -0.090 HD
ATOM     21  H   LIG d   1      -3.099  89.181 116.329  0.00  0.00    -0.090 HD
ENDBRANCH   5  18
BRANCH   3  22
ATOM     22  C   LIG d   1      -7.781  90.243 115.850  0.00  0.00     0.382 C 
ATOM     23  O   LIG d   1      -8.684  90.925 115.308  0.00  0.00    -0.241 OA
ATOM     24  O   LIG d   1      -7.918  89.009 115.947  0.00  0.00    -0.241 OA
ENDBRANCH   3  22
TORSDOF 7
ENDMDL
MODEL 8
REMARK VINA RESULT:      -5.2     16.227     18.239
REMARK  7 active torsions:
REMARK  status: ('A' for Active; 'I' for Inactive)
REMARK    1  A    between atoms: C_2  and  C_3 
REMARK    2  A    between atoms: C_3  and  O_6 
REMARK    3  A    between atoms: C_3  and  C_4 
REMARK    4  A    between atoms: C_7  and  O_6 
REMARK    5  A    between atoms: C_9  and  C_10 
REMARK    6  A    between atoms: N_15  and  C_14 
REMARK    7  A    between atoms: N_20  and  C_19 
REMARK       I    between atoms: C_22  and  N_20 
ROOT
ATOM      1  C   LIG d   1      -6.299  93.073 117.536  0.00  0.00     0.161 C 
ATOM      2  C   LIG d   1      -6.996  91.985 116.985  0.00  0.00     0.016 C 
ATOM      3  C   LIG d   1      -6.364  90.807 116.526  0.00  0.00     0.038 C 
ATOM      4  C   LIG d   1      -4.995  90.573 116.728  0.00  0.00     0.028 C 
ATOM      5  C   LIG d   1      -4.170  91.852 116.823  0.00  0.00    -0.047 C 
ATOM      6  C   LIG d   1      -4.818  92.791 117.866  0.00  0.00     0.091 C 
ENDROOT
BRANCH   1   7
ATOM      7  O   LIG d   1      -6.990  93.555 118.705  0.00  0.00    -0.368 OA
BRANCH   7   8
ATOM      8  C   LIG d   1      -7.988  94.580 118.478  0.00  0.00     0.119 C 
BRANCH   8   9
ATOM      9  C   LIG d   1      -7.253  95.842 117.987  0.00  0.00     0.028 C 
ATOM     10  C   LIG d   1      -6.512  96.568 119.122  0.00  0.00     0.006 C 
ENDBRANCH   8   9
BRANCH   8  11
ATOM     11  C   LIG d   1      -8.672  94.991 119.786  0.00  0.00     0.028 C 
ATOM     12  C   LIG d   1      -9.543  93.873 120.380  0.00  0.00     0.006 C 
ENDBRANCH   8  11
ENDBRANCH   7   8
ENDBRANCH   1   7
BRANCH   6  13
ATOM     13  N   LIG d   1      -4.121  94.100 117.960  0.00  0.00    -0.311 N 
ATOM     14  C   LIG d   1      -3.186  94.369 118.869  0.00  0.00     0.210 C 
ATOM     15  C   LIG d   1      -2.609  95.787 118.804  0.00  0.00     0.109 C 
ATOM     16  O   LIG d   1      -2.756  93.559 119.704  0.00  0.00    -0.276 OA
ATOM     17  H   LIG d   1      -4.386  94.806 117.301  0.00  0.00     0.149 HD
ENDBRANCH   6  13
BRANCH   5  18
ATOM     18  N   LIG d   1      -2.789  91.467 117.170  0.00  0.00     0.381 N 
ATOM     19  H   LIG d   1      -2.142  91.995 116.621  0.00  0.00    -0.090 HD
ATOM     20  H   LIG d   1      -2.660  90.493 116.959  0.00  0.00    -0.090 HD
ATOM     21  H   LIG d   1      -2.624  91.628 118.139  0.00  0.00    -0.090 HD
ENDBRANCH   5  18
BRANCH   3  22
ATOM     22  C   LIG d   1      -7.096  89.863 115.822  0.00  0.00     0.382 C 
ATOM     23  O   LIG d   1      -7.707  88.957 116.437  0.00  0.00    -0.241 OA
ATOM     24  O   LIG d   1      -7.117  89.881 114.577  0.00  0.00    -0.241 OA
ENDBRANCH   3  22
TORSDOF 7
ENDMDL
MODEL 9
REMARK VINA RESULT:      -5.1      2.552      5.788
REMARK  7 active torsions:
REMARK  status: ('A' for Active; 'I' for Inactive)
REMARK    1  A    between atoms: C_2  and  C_3 
REMARK    2  A    between atoms: C_3  and  O_6 
REMARK    3  A    between atoms: C_3  and  C_4 
REMARK    4  A    between atoms: C_7  and  O_6 
REMARK    5  A    between atoms: C_9  and  C_10 
REMARK    6  A    between atoms: N_15  and  C_14 
REMARK    7  A    between atoms: N_20  and  C_19 
REMARK       I    between atoms: C_22  and  N_20 
ROOT
ATOM      1  C   LIG d   1      -1.428  76.980 116.579  0.00  0.00     0.161 C 
ATOM      2  C   LIG d   1      -2.542  76.941 115.725  0.00  0.00     0.016 C 
ATOM      3  C   LIG d   1      -3.209  75.745 115.370  0.00  0.00     0.038 C 
ATOM      4  C   LIG d   1      -2.896  74.516 115.969  0.00  0.00     0.028 C 
ATOM      5  C   LIG d   1      -1.453  74.428 116.454  0.00  0.00    -0.047 C 
ATOM      6  C   LIG d   1      -1.142  75.663 117.331  0.00  0.00     0.091 C 
ENDROOT
BRANCH   1   7
ATOM      7  O   LIG d   1      -1.567  78.070 117.513  0.00  0.00    -0.368 OA
BRANCH   7   8
ATOM      8  C   LIG d   1      -2.093  77.727 118.819  0.00  0.00     0.119 C 
BRANCH   8   9
ATOM      9  C   LIG d   1      -3.462  78.420 118.963  0.00  0.00     0.028 C 
ATOM     10  C   LIG d   1      -4.636  77.464 118.693  0.00  0.00     0.006 C 
ENDBRANCH   8   9
BRANCH   8  11
ATOM     11  C   LIG d   1      -1.225  78.307 119.939  0.00  0.00     0.028 C 
ATOM     12  C   LIG d   1      -1.241  77.445 121.212  0.00  0.00     0.006 C 
ENDBRANCH   8  11
ENDBRANCH   7   8
ENDBRANCH   1   7
BRANCH   6  13
ATOM     13  N   LIG d   1       0.275  75.699 117.777  0.00  0.00    -0.311 N 
ATOM     14  C   LIG d   1       0.698  75.157 118.918  0.00  0.00     0.210 C 
ATOM     15  C   LIG d   1       2.194  75.324 119.198  0.00  0.00     0.109 C 
ATOM     16  O   LIG d   1      -0.019  74.527 119.710  0.00  0.00    -0.276 OA
ATOM     17  H   LIG d   1       0.930  76.164 117.180  0.00  0.00     0.149 HD
ENDBRANCH   6  13
BRANCH   5  18
ATOM     18  N   LIG d   1      -1.304  73.153 117.180  0.00  0.00     0.381 N 
ATOM     19  H   LIG d   1      -0.484  72.676 116.861  0.00  0.00    -0.090 HD
ATOM     20  H   LIG d   1      -2.101  72.573 116.986  0.00  0.00    -0.090 HD
ATOM     21  H   LIG d   1      -1.238  73.323 118.159  0.00  0.00    -0.090 HD
ENDBRANCH   5  18
BRANCH   3  22
ATOM     22  C   LIG d   1      -4.174  75.766 114.374  0.00  0.00     0.382 C 
ATOM     23  O   LIG d   1      -4.541  74.694 113.835  0.00  0.00    -0.241 OA
ATOM     24  O   LIG d   1      -4.649  76.847 113.978  0.00  0.00    -0.241 OA
ENDBRANCH   3  22
TORSDOF 7
ENDMDL
