MODEL 1
REMARK VINA RESULT:      -6.6      0.000      0.000
REMARK  7 active torsions:
REMARK  status: ('A' for Active; 'I' for Inactive)
REMARK    1  A    between atoms: C_2  and  C_3 
REMARK    2  A    between atoms: C_3  and  O_6 
REMARK    3  A    between atoms: C_3  and  C_4 
REMARK    4  A    between atoms: C_7  and  O_6 
REMARK    5  A    between atoms: C_9  and  C_10 
REMARK    6  A    between atoms: N_15  and  C_14 
REMARK    7  A    between atoms: N_20  and  C_19 
REMARK       I    between atoms: C_22  and  N_20 
ROOT
ATOM      1  C   LIG d   1       1.114  83.848 109.288  0.00  0.00     0.161 C 
ATOM      2  C   LIG d   1       1.333  85.163 109.732  0.00  0.00     0.016 C 
ATOM      3  C   LIG d   1       0.920  85.636 110.998  0.00  0.00     0.038 C 
ATOM      4  C   LIG d   1       0.389  84.778 111.973  0.00  0.00     0.028 C 
ATOM      5  C   LIG d   1      -0.312  83.557 111.389  0.00  0.00    -0.047 C 
ATOM      6  C   LIG d   1       0.637  82.868 110.381  0.00  0.00     0.091 C 
ENDROOT
BRANCH   1   7
ATOM      7  O   LIG d   1       2.303  83.343 108.648  0.00  0.00    -0.368 OA
BRANCH   7   8
ATOM      8  C   LIG d   1       3.165  82.514 109.466  0.00  0.00     0.119 C 
BRANCH   8   9
ATOM      9  C   LIG d   1       4.406  83.352 109.828  0.00  0.00     0.028 C 
ATOM     10  C   LIG d   1       4.426  83.762 111.310  0.00  0.00     0.006 C 
ENDBRANCH   8   9
BRANCH   8  11
ATOM     11  C   LIG d   1       3.700  81.317 108.676  0.00  0.00     0.028 C 
ATOM     12  C   LIG d   1       4.105  80.140 109.578  0.00  0.00     0.006 C 
ENDBRANCH   8  11
ENDBRANCH   7   8
ENDBRANCH   1   7
BRANCH   6  13
ATOM     13  N   LIG d   1      -0.002  81.712 109.700  0.00  0.00    -0.311 N 
ATOM     14  C   LIG d   1       0.190  80.447 110.069  0.00  0.00     0.210 C 
ATOM     15  C   LIG d   1      -0.548  79.407 109.220  0.00  0.00     0.109 C 
ATOM     16  O   LIG d   1       0.876  80.089 111.038  0.00  0.00    -0.276 OA
ATOM     17  H   LIG d   1      -0.600  81.914 108.923  0.00  0.00     0.149 HD
ENDBRANCH   6  13
BRANCH   5  18
ATOM     18  N   LIG d   1      -0.694  82.682 112.513  0.00  0.00     0.381 N 
ATOM     19  H   LIG d   1      -1.484  83.069 112.990  0.00  0.00    -0.090 HD
ATOM     20  H   LIG d   1       0.072  82.632 113.162  0.00  0.00    -0.090 HD
ATOM     21  H   LIG d   1      -0.914  81.771 112.177  0.00  0.00    -0.090 HD
ENDBRANCH   5  18
BRANCH   3  22
ATOM     22  C   LIG d   1       0.999  86.990 111.285  0.00  0.00     0.382 C 
ATOM     23  O   LIG d   1      -0.036  87.626 111.601  0.00  0.00    -0.241 OA
ATOM     24  O   LIG d   1       2.084  87.594 111.188  0.00  0.00    -0.241 OA
ENDBRANCH   3  22
TORSDOF 7
ENDMDL
MODEL 2
REMARK VINA RESULT:      -6.2      2.632      4.968
REMARK  7 active torsions:
REMARK  status: ('A' for Active; 'I' for Inactive)
REMARK    1  A    between atoms: C_2  and  C_3 
REMARK    2  A    between atoms: C_3  and  O_6 
REMARK    3  A    between atoms: C_3  and  C_4 
REMARK    4  A    between atoms: C_7  and  O_6 
REMARK    5  A    between atoms: C_9  and  C_10 
REMARK    6  A    between atoms: N_15  and  C_14 
REMARK    7  A    between atoms: N_20  and  C_19 
REMARK       I    between atoms: C_22  and  N_20 
ROOT
ATOM      1  C   LIG d   1       0.021  82.143 111.351  0.00  0.00     0.161 C 
ATOM      2  C   LIG d   1      -1.078  82.018 112.217  0.00  0.00     0.016 C 
ATOM      3  C   LIG d   1      -1.766  80.801 112.431  0.00  0.00     0.038 C 
ATOM      4  C   LIG d   1      -1.304  79.586 111.904  0.00  0.00     0.028 C 
ATOM      5  C   LIG d   1      -0.497  79.750 110.621  0.00  0.00    -0.047 C 
ATOM      6  C   LIG d   1       0.608  80.805 110.854  0.00  0.00     0.091 C 
ENDROOT
BRANCH   1   7
ATOM      7  O   LIG d   1       1.047  82.939 111.976  0.00  0.00    -0.368 OA
BRANCH   7   8
ATOM      8  C   LIG d   1       1.046  84.350 111.650  0.00  0.00     0.119 C 
BRANCH   8   9
ATOM      9  C   LIG d   1       0.573  84.488 110.190  0.00  0.00     0.028 C 
ATOM     10  C   LIG d   1      -0.434  85.636 110.005  0.00  0.00     0.006 C 
ENDBRANCH   8   9
BRANCH   8  11
ATOM     11  C   LIG d   1       2.464  84.929 111.673  0.00  0.00     0.028 C 
ATOM     12  C   LIG d   1       3.206  84.740 110.341  0.00  0.00     0.006 C 
ENDBRANCH   8  11
ENDBRANCH   7   8
ENDBRANCH   1   7
BRANCH   6  13
ATOM     13  N   LIG d   1       1.391  81.088 109.623  0.00  0.00    -0.311 N 
ATOM     14  C   LIG d   1       2.719  81.191 109.607  0.00  0.00     0.210 C 
ATOM     15  C   LIG d   1       3.326  81.506 108.236  0.00  0.00     0.109 C 
ATOM     16  O   LIG d   1       3.454  81.020 110.591  0.00  0.00    -0.276 OA
ATOM     17  H   LIG d   1       0.877  81.209 108.773  0.00  0.00     0.149 HD
ENDBRANCH   6  13
BRANCH   5  18
ATOM     18  N   LIG d   1       0.038  78.423 110.258  0.00  0.00     0.381 N 
ATOM     19  H   LIG d   1       0.206  77.888 111.087  0.00  0.00    -0.090 HD
ATOM     20  H   LIG d   1       0.912  78.545 109.779  0.00  0.00    -0.090 HD
ATOM     21  H   LIG d   1      -0.608  77.945 109.670  0.00  0.00    -0.090 HD
ENDBRANCH   5  18
BRANCH   3  22
ATOM     22  C   LIG d   1      -2.954  80.800 113.146  0.00  0.00     0.382 C 
ATOM     23  O   LIG d   1      -3.625  81.855 113.249  0.00  0.00    -0.241 OA
ATOM     24  O   LIG d   1      -3.340  79.768 113.728  0.00  0.00    -0.241 OA
ENDBRANCH   3  22
TORSDOF 7
ENDMDL
MODEL 3
REMARK VINA RESULT:      -6.1      2.346      4.840
REMARK  7 active torsions:
REMARK  status: ('A' for Active; 'I' for Inactive)
REMARK    1  A    between atoms: C_2  and  C_3 
REMARK    2  A    between atoms: C_3  and  O_6 
REMARK    3  A    between atoms: C_3  and  C_4 
REMARK    4  A    between atoms: C_7  and  O_6 
REMARK    5  A    between atoms: C_9  and  C_10 
REMARK    6  A    between atoms: N_15  and  C_14 
REMARK    7  A    between atoms: N_20  and  C_19 
REMARK       I    between atoms: C_22  and  N_20 
ROOT
ATOM      1  C   LIG d   1       1.983  82.841 111.654  0.00  0.00     0.161 C 
ATOM      2  C   LIG d   1       0.852  82.014 111.757  0.00  0.00     0.016 C 
ATOM      3  C   LIG d   1      -0.443  82.500 112.049  0.00  0.00     0.038 C 
ATOM      4  C   LIG d   1      -0.724  83.873 112.110  0.00  0.00     0.028 C 
ATOM      5  C   LIG d   1       0.479  84.720 112.512  0.00  0.00    -0.047 C 
ATOM      6  C   LIG d   1       1.676  84.353 111.606  0.00  0.00     0.091 C 
ENDROOT
BRANCH   1   7
ATOM      7  O   LIG d   1       2.769  82.453 110.510  0.00  0.00    -0.368 OA
BRANCH   7   8
ATOM      8  C   LIG d   1       2.032  81.920 109.381  0.00  0.00     0.119 C 
BRANCH   8   9
ATOM      9  C   LIG d   1       2.633  80.541 109.047  0.00  0.00     0.028 C 
ATOM     10  C   LIG d   1       4.053  80.366 109.611  0.00  0.00     0.006 C 
ENDBRANCH   8   9
BRANCH   8  11
ATOM     11  C   LIG d   1       2.245  82.770 108.125  0.00  0.00     0.028 C 
ATOM     12  C   LIG d   1       1.279  83.963 108.042  0.00  0.00     0.006 C 
ENDBRANCH   8  11
ENDBRANCH   7   8
ENDBRANCH   1   7
BRANCH   6  13
ATOM     13  N   LIG d   1       2.918  85.075 111.988  0.00  0.00    -0.311 N 
ATOM     14  C   LIG d   1       3.239  86.279 111.518  0.00  0.00     0.210 C 
ATOM     15  C   LIG d   1       4.574  86.836 112.024  0.00  0.00     0.109 C 
ATOM     16  O   LIG d   1       2.530  86.953 110.755  0.00  0.00    -0.276 OA
ATOM     17  H   LIG d   1       3.536  84.615 112.627  0.00  0.00     0.149 HD
ENDBRANCH   6  13
BRANCH   5  18
ATOM     18  N   LIG d   1       0.083  86.137 112.401  0.00  0.00     0.381 N 
ATOM     19  H   LIG d   1      -0.903  86.202 112.245  0.00  0.00    -0.090 HD
ATOM     20  H   LIG d   1       0.554  86.545 111.613  0.00  0.00    -0.090 HD
ATOM     21  H   LIG d   1       0.329  86.626 113.233  0.00  0.00    -0.090 HD
ENDBRANCH   5  18
BRANCH   3  22
ATOM     22  C   LIG d   1      -1.467  81.606 112.324  0.00  0.00     0.382 C 
ATOM     23  O   LIG d   1      -2.462  81.978 112.993  0.00  0.00    -0.241 OA
ATOM     24  O   LIG d   1      -1.388  80.420 111.951  0.00  0.00    -0.241 OA
ENDBRANCH   3  22
TORSDOF 7
ENDMDL
MODEL 4
REMARK VINA RESULT:      -6.1      2.594      4.759
REMARK  7 active torsions:
REMARK  status: ('A' for Active; 'I' for Inactive)
REMARK    1  A    between atoms: C_2  and  C_3 
REMARK    2  A    between atoms: C_3  and  O_6 
REMARK    3  A    between atoms: C_3  and  C_4 
REMARK    4  A    between atoms: C_7  and  O_6 
REMARK    5  A    between atoms: C_9  and  C_10 
REMARK    6  A    between atoms: N_15  and  C_14 
REMARK    7  A    between atoms: N_20  and  C_19 
REMARK       I    between atoms: C_22  and  N_20 
ROOT
ATOM      1  C   LIG d   1       1.225  81.316 112.080  0.00  0.00     0.161 C 
ATOM      2  C   LIG d   1       2.325  81.901 111.433  0.00  0.00     0.016 C 
ATOM      3  C   LIG d   1       2.489  81.906 110.028  0.00  0.00     0.038 C 
ATOM      4  C   LIG d   1       1.481  81.457 109.163  0.00  0.00     0.028 C 
ATOM      5  C   LIG d   1       0.575  80.400 109.785  0.00  0.00    -0.047 C 
ATOM      6  C   LIG d   1       0.061  80.919 111.147  0.00  0.00     0.091 C 
ENDROOT
BRANCH   1   7
ATOM      7  O   LIG d   1       0.753  82.188 113.126  0.00  0.00    -0.368 OA
BRANCH   7   8
ATOM      8  C   LIG d   1       0.926  83.608 112.898  0.00  0.00     0.119 C 
BRANCH   8   9
ATOM      9  C   LIG d   1       1.426  84.231 114.216  0.00  0.00     0.028 C 
ATOM     10  C   LIG d   1       1.483  85.767 114.155  0.00  0.00     0.006 C 
ENDBRANCH   8   9
BRANCH   8  11
ATOM     11  C   LIG d   1      -0.412  84.294 112.608  0.00  0.00     0.028 C 
ATOM     12  C   LIG d   1      -0.659  84.507 111.107  0.00  0.00     0.006 C 
ENDBRANCH   8  11
ENDBRANCH   7   8
ENDBRANCH   1   7
BRANCH   6  13
ATOM     13  N   LIG d   1      -0.765  79.912 111.862  0.00  0.00    -0.311 N 
ATOM     14  C   LIG d   1      -1.916  80.203 112.466  0.00  0.00     0.210 C 
ATOM     15  C   LIG d   1      -2.599  79.021 113.161  0.00  0.00     0.109 C 
ATOM     16  O   LIG d   1      -2.453  81.321 112.463  0.00  0.00    -0.276 OA
ATOM     17  H   LIG d   1      -0.420  78.972 111.887  0.00  0.00     0.149 HD
ENDBRANCH   6  13
BRANCH   5  18
ATOM     18  N   LIG d   1      -0.510  80.123 108.825  0.00  0.00     0.381 N 
ATOM     19  H   LIG d   1      -0.724  79.145 108.828  0.00  0.00    -0.090 HD
ATOM     20  H   LIG d   1      -0.201  80.375 107.903  0.00  0.00    -0.090 HD
ATOM     21  H   LIG d   1      -1.322  80.648 109.067  0.00  0.00    -0.090 HD
ENDBRANCH   5  18
BRANCH   3  22
ATOM     22  C   LIG d   1       3.690  82.330 109.478  0.00  0.00     0.382 C 
ATOM     23  O   LIG d   1       4.524  82.942 110.188  0.00  0.00    -0.241 OA
ATOM     24  O   LIG d   1       3.930  82.146 108.270  0.00  0.00    -0.241 OA
ENDBRANCH   3  22
TORSDOF 7
ENDMDL
MODEL 5
REMARK VINA RESULT:      -6.0      1.959      4.256
REMARK  7 active torsions:
REMARK  status: ('A' for Active; 'I' for Inactive)
REMARK    1  A    between atoms: C_2  and  C_3 
REMARK    2  A    between atoms: C_3  and  O_6 
REMARK    3  A    between atoms: C_3  and  C_4 
REMARK    4  A    between atoms: C_7  and  O_6 
REMARK    5  A    between atoms: C_9  and  C_10 
REMARK    6  A    between atoms: N_15  and  C_14 
REMARK    7  A    between atoms: N_20  and  C_19 
REMARK       I    between atoms: C_22  and  N_20 
ROOT
ATOM      1  C   LIG d   1       0.206  82.433 111.396  0.00  0.00     0.161 C 
ATOM      2  C   LIG d   1      -0.588  83.510 111.824  0.00  0.00     0.016 C 
ATOM      3  C   LIG d   1      -0.248  84.865 111.600  0.00  0.00     0.038 C 
ATOM      4  C   LIG d   1       0.839  85.233 110.794  0.00  0.00     0.028 C 
ATOM      5  C   LIG d   1       1.951  84.190 110.763  0.00  0.00    -0.047 C 
ATOM      6  C   LIG d   1       1.338  82.813 110.419  0.00  0.00     0.091 C 
ENDROOT
BRANCH   1   7
ATOM      7  O   LIG d   1      -0.629  81.409 110.821  0.00  0.00    -0.368 OA
BRANCH   7   8
ATOM      8  C   LIG d   1      -0.576  80.110 111.460  0.00  0.00     0.119 C 
BRANCH   8   9
ATOM      9  C   LIG d   1      -0.742  79.045 110.359  0.00  0.00     0.028 C 
ATOM     10  C   LIG d   1      -0.349  79.572 108.969  0.00  0.00     0.006 C 
ENDBRANCH   8   9
BRANCH   8  11
ATOM     11  C   LIG d   1      -1.765  79.905 112.405  0.00  0.00     0.028 C 
ATOM     12  C   LIG d   1      -2.626  78.691 112.023  0.00  0.00     0.006 C 
ENDBRANCH   8  11
ENDBRANCH   7   8
ENDBRANCH   1   7
BRANCH   6  13
ATOM     13  N   LIG d   1       2.345  81.720 110.451  0.00  0.00    -0.311 N 
ATOM     14  C   LIG d   1       2.999  81.294 109.372  0.00  0.00     0.210 C 
ATOM     15  C   LIG d   1       3.979  80.144 109.622  0.00  0.00     0.109 C 
ATOM     16  O   LIG d   1       2.884  81.781 108.237  0.00  0.00    -0.276 OA
ATOM     17  H   LIG d   1       2.523  81.290 111.337  0.00  0.00     0.149 HD
ENDBRANCH   6  13
BRANCH   5  18
ATOM     18  N   LIG d   1       2.956  84.638 109.781  0.00  0.00     0.381 N 
ATOM     19  H   LIG d   1       3.601  83.896 109.594  0.00  0.00    -0.090 HD
ATOM     20  H   LIG d   1       3.467  85.411 110.168  0.00  0.00    -0.090 HD
ATOM     21  H   LIG d   1       2.506  84.917 108.937  0.00  0.00    -0.090 HD
ENDBRANCH   5  18
BRANCH   3  22
ATOM     22  C   LIG d   1      -0.979  85.868 112.218  0.00  0.00     0.382 C 
ATOM     23  O   LIG d   1      -1.550  86.745 111.527  0.00  0.00    -0.241 OA
ATOM     24  O   LIG d   1      -1.038  85.932 113.461  0.00  0.00    -0.241 OA
ENDBRANCH   3  22
TORSDOF 7
ENDMDL
MODEL 6
REMARK VINA RESULT:      -6.0      2.567      4.865
REMARK  7 active torsions:
REMARK  status: ('A' for Active; 'I' for Inactive)
REMARK    1  A    between atoms: C_2  and  C_3 
REMARK    2  A    between atoms: C_3  and  O_6 
REMARK    3  A    between atoms: C_3  and  C_4 
REMARK    4  A    between atoms: C_7  and  O_6 
REMARK    5  A    between atoms: C_9  and  C_10 
REMARK    6  A    between atoms: N_15  and  C_14 
REMARK    7  A    between atoms: N_20  and  C_19 
REMARK       I    between atoms: C_22  and  N_20 
ROOT
ATOM      1  C   LIG d   1       0.428  82.342 111.067  0.00  0.00     0.161 C 
ATOM      2  C   LIG d   1       1.198  82.831 109.998  0.00  0.00     0.016 C 
ATOM      3  C   LIG d   1       1.719  82.007 108.974  0.00  0.00     0.038 C 
ATOM      4  C   LIG d   1       1.376  80.651 108.866  0.00  0.00     0.028 C 
ATOM      5  C   LIG d   1       1.015  80.010 110.202  0.00  0.00    -0.047 C 
ATOM      6  C   LIG d   1      -0.049  80.883 110.906  0.00  0.00     0.091 C 
ENDROOT
BRANCH   1   7
ATOM      7  O   LIG d   1      -0.696  83.214 111.299  0.00  0.00    -0.368 OA
BRANCH   7   8
ATOM      8  C   LIG d   1      -0.630  84.036 112.490  0.00  0.00     0.119 C 
BRANCH   8   9
ATOM      9  C   LIG d   1      -0.579  85.507 112.035  0.00  0.00     0.028 C 
ATOM     10  C   LIG d   1      -1.002  85.683 110.567  0.00  0.00     0.006 C 
ENDBRANCH   8   9
BRANCH   8  11
ATOM     11  C   LIG d   1       0.676  83.803 113.256  0.00  0.00     0.028 C 
ATOM     12  C   LIG d   1       1.327  85.110 113.735  0.00  0.00     0.006 C 
ENDBRANCH   8  11
ENDBRANCH   7   8
ENDBRANCH   1   7
BRANCH   6  13
ATOM     13  N   LIG d   1      -0.397  80.373 112.258  0.00  0.00    -0.311 N 
ATOM     14  C   LIG d   1      -1.457  79.603 112.500  0.00  0.00     0.210 C 
ATOM     15  C   LIG d   1      -1.645  79.204 113.967  0.00  0.00     0.109 C 
ATOM     16  O   LIG d   1      -2.242  79.188 111.634  0.00  0.00    -0.276 OA
ATOM     17  H   LIG d   1       0.204  80.636 113.014  0.00  0.00     0.149 HD
ENDBRANCH   6  13
BRANCH   5  18
ATOM     18  N   LIG d   1       0.546  78.639 109.926  0.00  0.00     0.381 N 
ATOM     19  H   LIG d   1       0.501  78.118 110.779  0.00  0.00    -0.090 HD
ATOM     20  H   LIG d   1       1.204  78.188 109.315  0.00  0.00    -0.090 HD
ATOM     21  H   LIG d   1      -0.352  78.666 109.497  0.00  0.00    -0.090 HD
ENDBRANCH   5  18
BRANCH   3  22
ATOM     22  C   LIG d   1       2.626  82.531 108.065  0.00  0.00     0.382 C 
ATOM     23  O   LIG d   1       3.853  82.513 108.323  0.00  0.00    -0.241 OA
ATOM     24  O   LIG d   1       2.228  83.062 107.011  0.00  0.00    -0.241 OA
ENDBRANCH   3  22
TORSDOF 7
ENDMDL
MODEL 7
REMARK VINA RESULT:      -5.8      2.236      5.393
REMARK  7 active torsions:
REMARK  status: ('A' for Active; 'I' for Inactive)
REMARK    1  A    between atoms: C_2  and  C_3 
REMARK    2  A    between atoms: C_3  and  O_6 
REMARK    3  A    between atoms: C_3  and  C_4 
REMARK    4  A    between atoms: C_7  and  O_6 
REMARK    5  A    between atoms: C_9  and  C_10 
REMARK    6  A    between atoms: N_15  and  C_14 
REMARK    7  A    between atoms: N_20  and  C_19 
REMARK       I    between atoms: C_22  and  N_20 
ROOT
ATOM      1  C   LIG d   1       1.644  82.620 111.218  0.00  0.00     0.161 C 
ATOM      2  C   LIG d   1       2.386  81.456 110.956  0.00  0.00     0.016 C 
ATOM      3  C   LIG d   1       2.700  81.011 109.651  0.00  0.00     0.038 C 
ATOM      4  C   LIG d   1       2.420  81.786 108.516  0.00  0.00     0.028 C 
ATOM      5  C   LIG d   1       1.228  82.720 108.699  0.00  0.00    -0.047 C 
ATOM      6  C   LIG d   1       1.426  83.537 109.996  0.00  0.00     0.091 C 
ENDROOT
BRANCH   1   7
ATOM      7  O   LIG d   1       2.256  83.357 112.295  0.00  0.00    -0.368 OA
BRANCH   7   8
ATOM      8  C   LIG d   1       3.509  84.015 111.986  0.00  0.00     0.119 C 
BRANCH   8   9
ATOM      9  C   LIG d   1       4.624  83.264 112.739  0.00  0.00     0.028 C 
ATOM     10  C   LIG d   1       4.138  82.678 114.075  0.00  0.00     0.006 C 
ENDBRANCH   8   9
BRANCH   8  11
ATOM     11  C   LIG d   1       3.539  85.444 112.536  0.00  0.00     0.028 C 
ATOM     12  C   LIG d   1       4.420  86.386 111.701  0.00  0.00     0.006 C 
ENDBRANCH   8  11
ENDBRANCH   7   8
ENDBRANCH   1   7
BRANCH   6  13
ATOM     13  N   LIG d   1       0.265  84.415 110.295  0.00  0.00    -0.311 N 
ATOM     14  C   LIG d   1       0.335  85.745 110.305  0.00  0.00     0.210 C 
ATOM     15  C   LIG d   1      -0.973  86.459 110.658  0.00  0.00     0.109 C 
ATOM     16  O   LIG d   1       1.349  86.402 110.025  0.00  0.00    -0.276 OA
ATOM     17  H   LIG d   1      -0.606  83.966 110.504  0.00  0.00     0.149 HD
ENDBRANCH   6  13
BRANCH   5  18
ATOM     18  N   LIG d   1       1.135  83.564 107.493  0.00  0.00     0.381 N 
ATOM     19  H   LIG d   1       1.957  84.128 107.409  0.00  0.00    -0.090 HD
ATOM     20  H   LIG d   1       0.342  84.175 107.585  0.00  0.00    -0.090 HD
ATOM     21  H   LIG d   1       1.031  82.993 106.684  0.00  0.00    -0.090 HD
ENDBRANCH   5  18
BRANCH   3  22
ATOM     22  C   LIG d   1       3.266  79.758 109.470  0.00  0.00     0.382 C 
ATOM     23  O   LIG d   1       2.530  78.758 109.293  0.00  0.00    -0.241 OA
ATOM     24  O   LIG d   1       4.501  79.609 109.526  0.00  0.00    -0.241 OA
ENDBRANCH   3  22
TORSDOF 7
ENDMDL
MODEL 8
REMARK VINA RESULT:      -5.8      2.751      4.323
REMARK  7 active torsions:
REMARK  status: ('A' for Active; 'I' for Inactive)
REMARK    1  A    between atoms: C_2  and  C_3 
REMARK    2  A    between atoms: C_3  and  O_6 
REMARK    3  A    between atoms: C_3  and  C_4 
REMARK    4  A    between atoms: C_7  and  O_6 
REMARK    5  A    between atoms: C_9  and  C_10 
REMARK    6  A    between atoms: N_15  and  C_14 
REMARK    7  A    between atoms: N_20  and  C_19 
REMARK       I    between atoms: C_22  and  N_20 
ROOT
ATOM      1  C   LIG d   1       2.277  85.659 111.516  0.00  0.00     0.161 C 
ATOM      2  C   LIG d   1       2.537  87.003 111.834  0.00  0.00     0.016 C 
ATOM      3  C   LIG d   1       3.424  87.402 112.860  0.00  0.00     0.038 C 
ATOM      4  C   LIG d   1       4.233  86.480 113.541  0.00  0.00     0.028 C 
ATOM      5  C   LIG d   1       3.635  85.079 113.601  0.00  0.00    -0.047 C 
ATOM      6  C   LIG d   1       3.233  84.643 112.173  0.00  0.00     0.091 C 
ENDROOT
BRANCH   1   7
ATOM      7  O   LIG d   1       2.271  85.489 110.085  0.00  0.00    -0.368 OA
BRANCH   7   8
ATOM      8  C   LIG d   1       1.075  84.900 109.518  0.00  0.00     0.119 C 
BRANCH   8   9
ATOM      9  C   LIG d   1       1.438  84.371 108.117  0.00  0.00     0.028 C 
ATOM     10  C   LIG d   1       1.495  82.835 108.065  0.00  0.00     0.006 C 
ENDBRANCH   8   9
BRANCH   8  11
ATOM     11  C   LIG d   1      -0.010  85.955 109.285  0.00  0.00     0.028 C 
ATOM     12  C   LIG d   1      -1.119  85.915 110.348  0.00  0.00     0.006 C 
ENDBRANCH   8  11
ENDBRANCH   7   8
ENDBRANCH   1   7
BRANCH   6  13
ATOM     13  N   LIG d   1       2.563  83.316 112.153  0.00  0.00    -0.311 N 
ATOM     14  C   LIG d   1       2.945  82.314 111.364  0.00  0.00     0.210 C 
ATOM     15  C   LIG d   1       2.105  81.039 111.486  0.00  0.00     0.109 C 
ATOM     16  O   LIG d   1       3.920  82.349 110.598  0.00  0.00    -0.276 OA
ATOM     17  H   LIG d   1       1.782  83.191 112.767  0.00  0.00     0.149 HD
ENDBRANCH   6  13
BRANCH   5  18
ATOM     18  N   LIG d   1       4.641  84.191 114.215  0.00  0.00     0.381 N 
ATOM     19  H   LIG d   1       4.203  83.602 114.895  0.00  0.00    -0.090 HD
ATOM     20  H   LIG d   1       5.329  84.755 114.682  0.00  0.00    -0.090 HD
ATOM     21  H   LIG d   1       5.077  83.634 113.514  0.00  0.00    -0.090 HD
ENDBRANCH   5  18
BRANCH   3  22
ATOM     22  C   LIG d   1       3.480  88.734 113.240  0.00  0.00     0.382 C 
ATOM     23  O   LIG d   1       4.447  89.449 112.882  0.00  0.00    -0.241 OA
ATOM     24  O   LIG d   1       2.598  89.219 113.974  0.00  0.00    -0.241 OA
ENDBRANCH   3  22
TORSDOF 7
ENDMDL
MODEL 9
REMARK VINA RESULT:      -5.8      1.661      2.222
REMARK  7 active torsions:
REMARK  status: ('A' for Active; 'I' for Inactive)
REMARK    1  A    between atoms: C_2  and  C_3 
REMARK    2  A    between atoms: C_3  and  O_6 
REMARK    3  A    between atoms: C_3  and  C_4 
REMARK    4  A    between atoms: C_7  and  O_6 
REMARK    5  A    between atoms: C_9  and  C_10 
REMARK    6  A    between atoms: N_15  and  C_14 
REMARK    7  A    between atoms: N_20  and  C_19 
REMARK       I    between atoms: C_22  and  N_20 
ROOT
ATOM      1  C   LIG d   1       2.178  83.796 110.446  0.00  0.00     0.161 C 
ATOM      2  C   LIG d   1       2.268  85.192 110.573  0.00  0.00     0.016 C 
ATOM      3  C   LIG d   1       1.998  85.884 111.776  0.00  0.00     0.038 C 
ATOM      4  C   LIG d   1       1.765  85.208 112.983  0.00  0.00     0.028 C 
ATOM      5  C   LIG d   1       1.168  83.817 112.793  0.00  0.00    -0.047 C 
ATOM      6  C   LIG d   1       2.033  83.034 111.780  0.00  0.00     0.091 C 
ENDROOT
BRANCH   1   7
ATOM      7  O   LIG d   1       3.310  83.299 109.705  0.00  0.00    -0.368 OA
BRANCH   7   8
ATOM      8  C   LIG d   1       3.019  82.724 108.407  0.00  0.00     0.119 C 
BRANCH   8   9
ATOM      9  C   LIG d   1       1.536  83.007 108.097  0.00  0.00     0.028 C 
ATOM     10  C   LIG d   1       1.353  83.844 106.821  0.00  0.00     0.006 C 
ENDBRANCH   8   9
BRANCH   8  11
ATOM     11  C   LIG d   1       3.144  81.198 108.433  0.00  0.00     0.028 C 
ATOM     12  C   LIG d   1       4.132  80.699 109.499  0.00  0.00     0.006 C 
ENDBRANCH   8  11
ENDBRANCH   7   8
ENDBRANCH   1   7
BRANCH   6  13
ATOM     13  N   LIG d   1       1.472  81.693 111.473  0.00  0.00    -0.311 N 
ATOM     14  C   LIG d   1       0.212  81.496 111.089  0.00  0.00     0.210 C 
ATOM     15  C   LIG d   1      -0.168  80.032 110.842  0.00  0.00     0.109 C 
ATOM     16  O   LIG d   1      -0.619  82.397 110.898  0.00  0.00    -0.276 OA
ATOM     17  H   LIG d   1       2.086  80.908 111.571  0.00  0.00     0.149 HD
ENDBRANCH   6  13
BRANCH   5  18
ATOM     18  N   LIG d   1       1.106  83.174 114.119  0.00  0.00     0.381 N 
ATOM     19  H   LIG d   1       0.341  82.529 114.147  0.00  0.00    -0.090 HD
ATOM     20  H   LIG d   1       0.948  83.880 114.816  0.00  0.00    -0.090 HD
ATOM     21  H   LIG d   1       1.960  82.696 114.307  0.00  0.00    -0.090 HD
ENDBRANCH   5  18
BRANCH   3  22
ATOM     22  C   LIG d   1       1.920  87.268 111.771  0.00  0.00     0.382 C 
ATOM     23  O   LIG d   1       2.969  87.955 111.830  0.00  0.00    -0.241 OA
ATOM     24  O   LIG d   1       0.813  87.839 111.754  0.00  0.00    -0.241 OA
ENDBRANCH   3  22
TORSDOF 7
ENDMDL
