MODEL 1
REMARK VINA RESULT:      -6.3      0.000      0.000
REMARK  7 active torsions:
REMARK  status: ('A' for Active; 'I' for Inactive)
REMARK    1  A    between atoms: C_2  and  C_3 
REMARK    2  A    between atoms: C_3  and  O_6 
REMARK    3  A    between atoms: C_3  and  C_4 
REMARK    4  A    between atoms: C_7  and  O_6 
REMARK    5  A    between atoms: C_9  and  C_10 
REMARK    6  A    between atoms: N_15  and  C_14 
REMARK    7  A    between atoms: N_20  and  C_19 
REMARK       I    between atoms: C_22  and  N_20 
ROOT
ATOM      1  C   LIG d   1       2.591  83.607 109.932  0.00  0.00     0.161 C 
ATOM      2  C   LIG d   1       2.771  84.838 110.586  0.00  0.00     0.016 C 
ATOM      3  C   LIG d   1       1.857  85.358 111.531  0.00  0.00     0.038 C 
ATOM      4  C   LIG d   1       0.769  84.607 112.001  0.00  0.00     0.028 C 
ATOM      5  C   LIG d   1       0.270  83.571 110.999  0.00  0.00    -0.047 C 
ATOM      6  C   LIG d   1       1.468  82.724 110.514  0.00  0.00     0.091 C 
ENDROOT
BRANCH   1   7
ATOM      7  O   LIG d   1       3.836  82.882 109.905  0.00  0.00    -0.368 OA
BRANCH   7   8
ATOM      8  C   LIG d   1       4.039  81.924 110.974  0.00  0.00     0.119 C 
BRANCH   8   9
ATOM      9  C   LIG d   1       4.913  82.605 112.045  0.00  0.00     0.028 C 
ATOM     10  C   LIG d   1       4.177  82.767 113.386  0.00  0.00     0.006 C 
ENDBRANCH   8   9
BRANCH   8  11
ATOM     11  C   LIG d   1       4.852  80.718 110.494  0.00  0.00     0.028 C 
ATOM     12  C   LIG d   1       4.254  80.057 109.242  0.00  0.00     0.006 C 
ENDBRANCH   8  11
ENDBRANCH   7   8
ENDBRANCH   1   7
BRANCH   6  13
ATOM     13  N   LIG d   1       1.081  81.741 109.469  0.00  0.00    -0.311 N 
ATOM     14  C   LIG d   1       0.772  80.473 109.733  0.00  0.00     0.210 C 
ATOM     15  C   LIG d   1       0.421  79.624 108.507  0.00  0.00     0.109 C 
ATOM     16  O   LIG d   1       0.725  79.978 110.869  0.00  0.00    -0.276 OA
ATOM     17  H   LIG d   1       1.063  82.066 108.522  0.00  0.00     0.149 HD
ENDBRANCH   6  13
BRANCH   5  18
ATOM     18  N   LIG d   1      -0.772  82.770 111.669  0.00  0.00     0.381 N 
ATOM     19  H   LIG d   1      -1.529  82.602 111.036  0.00  0.00    -0.090 HD
ATOM     20  H   LIG d   1      -1.126  83.288 112.454  0.00  0.00    -0.090 HD
ATOM     21  H   LIG d   1      -0.390  81.904 111.978  0.00  0.00    -0.090 HD
ENDBRANCH   5  18
BRANCH   3  22
ATOM     22  C   LIG d   1       2.005  86.659 111.986  0.00  0.00     0.382 C 
ATOM     23  O   LIG d   1       2.205  86.878 113.205  0.00  0.00    -0.241 OA
ATOM     24  O   LIG d   1       1.897  87.619 111.200  0.00  0.00    -0.241 OA
ENDBRANCH   3  22
TORSDOF 7
ENDMDL
MODEL 2
REMARK VINA RESULT:      -6.2      2.629      5.126
REMARK  7 active torsions:
REMARK  status: ('A' for Active; 'I' for Inactive)
REMARK    1  A    between atoms: C_2  and  C_3 
REMARK    2  A    between atoms: C_3  and  O_6 
REMARK    3  A    between atoms: C_3  and  C_4 
REMARK    4  A    between atoms: C_7  and  O_6 
REMARK    5  A    between atoms: C_9  and  C_10 
REMARK    6  A    between atoms: N_15  and  C_14 
REMARK    7  A    between atoms: N_20  and  C_19 
REMARK       I    between atoms: C_22  and  N_20 
ROOT
ATOM      1  C   LIG d   1       0.315  82.289 111.300  0.00  0.00     0.161 C 
ATOM      2  C   LIG d   1      -0.811  82.033 112.100  0.00  0.00     0.016 C 
ATOM      3  C   LIG d   1      -1.304  80.733 112.357  0.00  0.00     0.038 C 
ATOM      4  C   LIG d   1      -0.609  79.584 111.952  0.00  0.00     0.028 C 
ATOM      5  C   LIG d   1       0.255  79.802 110.715  0.00  0.00    -0.047 C 
ATOM      6  C   LIG d   1       1.150  81.042 110.942  0.00  0.00     0.091 C 
ENDROOT
BRANCH   1   7
ATOM      7  O   LIG d   1       1.145  83.285 111.930  0.00  0.00    -0.368 OA
BRANCH   7   8
ATOM      8  C   LIG d   1       0.939  84.652 111.499  0.00  0.00     0.119 C 
BRANCH   8   9
ATOM      9  C   LIG d   1       0.398  84.607 110.057  0.00  0.00     0.028 C 
ATOM     10  C   LIG d   1      -0.696  85.659 109.807  0.00  0.00     0.006 C 
ENDBRANCH   8   9
BRANCH   8  11
ATOM     11  C   LIG d   1       2.264  85.415 111.411  0.00  0.00     0.028 C 
ATOM     12  C   LIG d   1       3.301  84.707 110.526  0.00  0.00     0.006 C 
ENDBRANCH   8  11
ENDBRANCH   7   8
ENDBRANCH   1   7
BRANCH   6  13
ATOM     13  N   LIG d   1       1.968  81.377 109.746  0.00  0.00    -0.311 N 
ATOM     14  C   LIG d   1       3.234  80.995 109.594  0.00  0.00     0.210 C 
ATOM     15  C   LIG d   1       3.900  81.464 108.296  0.00  0.00     0.109 C 
ATOM     16  O   LIG d   1       3.860  80.284 110.395  0.00  0.00    -0.276 OA
ATOM     17  H   LIG d   1       1.529  81.925 109.032  0.00  0.00     0.149 HD
ENDBRANCH   6  13
BRANCH   5  18
ATOM     18  N   LIG d   1       1.027  78.566 110.487  0.00  0.00     0.381 N 
ATOM     19  H   LIG d   1       1.788  78.752 109.864  0.00  0.00    -0.090 HD
ATOM     20  H   LIG d   1       0.428  77.884 110.057  0.00  0.00    -0.090 HD
ATOM     21  H   LIG d   1       1.375  78.216 111.352  0.00  0.00    -0.090 HD
ENDBRANCH   5  18
BRANCH   3  22
ATOM     22  C   LIG d   1      -2.526  80.574 112.993  0.00  0.00     0.382 C 
ATOM     23  O   LIG d   1      -2.644  79.744 113.926  0.00  0.00    -0.241 OA
ATOM     24  O   LIG d   1      -3.523  81.219 112.615  0.00  0.00    -0.241 OA
ENDBRANCH   3  22
TORSDOF 7
ENDMDL
MODEL 3
REMARK VINA RESULT:      -6.1      1.753      2.235
REMARK  7 active torsions:
REMARK  status: ('A' for Active; 'I' for Inactive)
REMARK    1  A    between atoms: C_2  and  C_3 
REMARK    2  A    between atoms: C_3  and  O_6 
REMARK    3  A    between atoms: C_3  and  C_4 
REMARK    4  A    between atoms: C_7  and  O_6 
REMARK    5  A    between atoms: C_9  and  C_10 
REMARK    6  A    between atoms: N_15  and  C_14 
REMARK    7  A    between atoms: N_20  and  C_19 
REMARK       I    between atoms: C_22  and  N_20 
ROOT
ATOM      1  C   LIG d   1       0.758  83.493 109.549  0.00  0.00     0.161 C 
ATOM      2  C   LIG d   1       0.357  84.709 110.126  0.00  0.00     0.016 C 
ATOM      3  C   LIG d   1      -0.350  84.795 111.347  0.00  0.00     0.038 C 
ATOM      4  C   LIG d   1      -0.573  83.670 112.156  0.00  0.00     0.028 C 
ATOM      5  C   LIG d   1      -0.629  82.363 111.373  0.00  0.00    -0.047 C 
ATOM      6  C   LIG d   1       0.622  82.263 110.471  0.00  0.00     0.091 C 
ENDROOT
BRANCH   1   7
ATOM      7  O   LIG d   1       2.110  83.606 109.061  0.00  0.00    -0.368 OA
BRANCH   7   8
ATOM      8  C   LIG d   1       3.159  83.352 110.027  0.00  0.00     0.119 C 
BRANCH   8   9
ATOM      9  C   LIG d   1       3.731  84.716 110.459  0.00  0.00     0.028 C 
ATOM     10  C   LIG d   1       3.475  85.016 111.946  0.00  0.00     0.006 C 
ENDBRANCH   8   9
BRANCH   8  11
ATOM     11  C   LIG d   1       4.334  82.603 109.390  0.00  0.00     0.028 C 
ATOM     12  C   LIG d   1       5.052  81.671 110.377  0.00  0.00     0.006 C 
ENDBRANCH   8  11
ENDBRANCH   7   8
ENDBRANCH   1   7
BRANCH   6  13
ATOM     13  N   LIG d   1       0.604  81.053 109.608  0.00  0.00    -0.311 N 
ATOM     14  C   LIG d   1       1.444  80.031 109.762  0.00  0.00     0.210 C 
ATOM     15  C   LIG d   1       1.267  78.892 108.752  0.00  0.00     0.109 C 
ATOM     16  O   LIG d   1       2.297  79.944 110.658  0.00  0.00    -0.276 OA
ATOM     17  H   LIG d   1      -0.077  81.026 108.875  0.00  0.00     0.149 HD
ENDBRANCH   6  13
BRANCH   5  18
ATOM     18  N   LIG d   1      -0.727  81.262 112.350  0.00  0.00     0.381 N 
ATOM     19  H   LIG d   1      -0.552  81.610 113.271  0.00  0.00    -0.090 HD
ATOM     20  H   LIG d   1      -0.028  80.573 112.134  0.00  0.00    -0.090 HD
ATOM     21  H   LIG d   1      -1.633  80.850 112.310  0.00  0.00    -0.090 HD
ENDBRANCH   5  18
BRANCH   3  22
ATOM     22  C   LIG d   1      -0.878  86.012 111.752  0.00  0.00     0.382 C 
ATOM     23  O   LIG d   1      -0.493  87.074 111.208  0.00  0.00    -0.241 OA
ATOM     24  O   LIG d   1      -1.702  86.064 112.685  0.00  0.00    -0.241 OA
ENDBRANCH   3  22
TORSDOF 7
ENDMDL
MODEL 4
REMARK VINA RESULT:      -5.8      1.884      2.596
REMARK  7 active torsions:
REMARK  status: ('A' for Active; 'I' for Inactive)
REMARK    1  A    between atoms: C_2  and  C_3 
REMARK    2  A    between atoms: C_3  and  O_6 
REMARK    3  A    between atoms: C_3  and  C_4 
REMARK    4  A    between atoms: C_7  and  O_6 
REMARK    5  A    between atoms: C_9  and  C_10 
REMARK    6  A    between atoms: N_15  and  C_14 
REMARK    7  A    between atoms: N_20  and  C_19 
REMARK       I    between atoms: C_22  and  N_20 
ROOT
ATOM      1  C   LIG d   1       1.024  82.928 110.232  0.00  0.00     0.161 C 
ATOM      2  C   LIG d   1       1.739  84.134 110.135  0.00  0.00     0.016 C 
ATOM      3  C   LIG d   1       2.252  84.827 111.256  0.00  0.00     0.038 C 
ATOM      4  C   LIG d   1       2.215  84.279 112.547  0.00  0.00     0.028 C 
ATOM      5  C   LIG d   1       1.061  83.306 112.759  0.00  0.00    -0.047 C 
ATOM      6  C   LIG d   1       1.071  82.259 111.622  0.00  0.00     0.091 C 
ENDROOT
BRANCH   1   7
ATOM      7  O   LIG d   1       1.476  82.009 109.218  0.00  0.00    -0.368 OA
BRANCH   7   8
ATOM      8  C   LIG d   1       2.428  81.005 109.647  0.00  0.00     0.119 C 
BRANCH   8   9
ATOM      9  C   LIG d   1       3.805  81.398 109.078  0.00  0.00     0.028 C 
ATOM     10  C   LIG d   1       4.832  81.699 110.183  0.00  0.00     0.006 C 
ENDBRANCH   8   9
BRANCH   8  11
ATOM     11  C   LIG d   1       2.110  79.638 109.032  0.00  0.00     0.028 C 
ATOM     12  C   LIG d   1       0.624  79.475 108.678  0.00  0.00     0.006 C 
ENDBRANCH   8  11
ENDBRANCH   7   8
ENDBRANCH   1   7
BRANCH   6  13
ATOM     13  N   LIG d   1      -0.077  81.319 111.707  0.00  0.00    -0.311 N 
ATOM     14  C   LIG d   1      -0.062  80.209 112.443  0.00  0.00     0.210 C 
ATOM     15  C   LIG d   1      -1.342  79.370 112.373  0.00  0.00     0.109 C 
ATOM     16  O   LIG d   1       0.877  79.855 113.171  0.00  0.00    -0.276 OA
ATOM     17  H   LIG d   1      -0.892  81.545 111.172  0.00  0.00     0.149 HD
ENDBRANCH   6  13
BRANCH   5  18
ATOM     18  N   LIG d   1       1.223  82.707 114.098  0.00  0.00     0.381 N 
ATOM     19  H   LIG d   1       1.546  81.764 114.010  0.00  0.00    -0.090 HD
ATOM     20  H   LIG d   1       0.330  82.693 114.558  0.00  0.00    -0.090 HD
ATOM     21  H   LIG d   1       1.873  83.240 114.633  0.00  0.00    -0.090 HD
ENDBRANCH   5  18
BRANCH   3  22
ATOM     22  C   LIG d   1       2.775  86.101 111.096  0.00  0.00     0.382 C 
ATOM     23  O   LIG d   1       2.014  87.061 110.825  0.00  0.00    -0.241 OA
ATOM     24  O   LIG d   1       4.002  86.295 111.174  0.00  0.00    -0.241 OA
ENDBRANCH   3  22
TORSDOF 7
ENDMDL
MODEL 5
REMARK VINA RESULT:      -5.5      2.726      4.737
REMARK  7 active torsions:
REMARK  status: ('A' for Active; 'I' for Inactive)
REMARK    1  A    between atoms: C_2  and  C_3 
REMARK    2  A    between atoms: C_3  and  O_6 
REMARK    3  A    between atoms: C_3  and  C_4 
REMARK    4  A    between atoms: C_7  and  O_6 
REMARK    5  A    between atoms: C_9  and  C_10 
REMARK    6  A    between atoms: N_15  and  C_14 
REMARK    7  A    between atoms: N_20  and  C_19 
REMARK       I    between atoms: C_22  and  N_20 
ROOT
ATOM      1  C   LIG d   1       1.459  80.933 112.082  0.00  0.00     0.161 C 
ATOM      2  C   LIG d   1       2.625  81.436 111.481  0.00  0.00     0.016 C 
ATOM      3  C   LIG d   1       2.857  81.405 110.087  0.00  0.00     0.038 C 
ATOM      4  C   LIG d   1       1.866  81.003 109.179  0.00  0.00     0.028 C 
ATOM      5  C   LIG d   1       0.866  80.017 109.772  0.00  0.00    -0.047 C 
ATOM      6  C   LIG d   1       0.320  80.592 111.098  0.00  0.00     0.091 C 
ENDROOT
BRANCH   1   7
ATOM      7  O   LIG d   1       0.992  81.852 113.089  0.00  0.00    -0.368 OA
BRANCH   7   8
ATOM      8  C   LIG d   1       1.127  83.261 112.778  0.00  0.00     0.119 C 
BRANCH   8   9
ATOM      9  C   LIG d   1       1.628  83.970 114.051  0.00  0.00     0.028 C 
ATOM     10  C   LIG d   1       3.137  84.264 114.003  0.00  0.00     0.006 C 
ENDBRANCH   8   9
BRANCH   8  11
ATOM     11  C   LIG d   1      -0.232  83.896 112.469  0.00  0.00     0.028 C 
ATOM     12  C   LIG d   1      -0.289  85.389 112.830  0.00  0.00     0.006 C 
ENDBRANCH   8  11
ENDBRANCH   7   8
ENDBRANCH   1   7
BRANCH   6  13
ATOM     13  N   LIG d   1      -0.603  79.652 111.787  0.00  0.00    -0.311 N 
ATOM     14  C   LIG d   1      -1.732  80.035 112.379  0.00  0.00     0.210 C 
ATOM     15  C   LIG d   1      -2.526  78.908 113.048  0.00  0.00     0.109 C 
ATOM     16  O   LIG d   1      -2.168  81.196 112.387  0.00  0.00    -0.276 OA
ATOM     17  H   LIG d   1      -0.342  78.685 111.801  0.00  0.00     0.149 HD
ENDBRANCH   6  13
BRANCH   5  18
ATOM     18  N   LIG d   1      -0.187  79.789 108.763  0.00  0.00     0.381 N 
ATOM     19  H   LIG d   1      -0.647  78.920 108.945  0.00  0.00    -0.090 HD
ATOM     20  H   LIG d   1       0.240  79.737 107.855  0.00  0.00    -0.090 HD
ATOM     21  H   LIG d   1      -0.847  80.535 108.786  0.00  0.00    -0.090 HD
ENDBRANCH   5  18
BRANCH   3  22
ATOM     22  C   LIG d   1       4.107  81.743 109.591  0.00  0.00     0.382 C 
ATOM     23  O   LIG d   1       5.092  81.811 110.366  0.00  0.00    -0.241 OA
ATOM     24  O   LIG d   1       4.254  82.023 108.386  0.00  0.00    -0.241 OA
ENDBRANCH   3  22
TORSDOF 7
ENDMDL
MODEL 6
REMARK VINA RESULT:      -5.3      2.589      5.711
REMARK  7 active torsions:
REMARK  status: ('A' for Active; 'I' for Inactive)
REMARK    1  A    between atoms: C_2  and  C_3 
REMARK    2  A    between atoms: C_3  and  O_6 
REMARK    3  A    between atoms: C_3  and  C_4 
REMARK    4  A    between atoms: C_7  and  O_6 
REMARK    5  A    between atoms: C_9  and  C_10 
REMARK    6  A    between atoms: N_15  and  C_14 
REMARK    7  A    between atoms: N_20  and  C_19 
REMARK       I    between atoms: C_22  and  N_20 
ROOT
ATOM      1  C   LIG d   1       0.726  81.489 110.284  0.00  0.00     0.161 C 
ATOM      2  C   LIG d   1       1.657  80.449 110.128  0.00  0.00     0.016 C 
ATOM      3  C   LIG d   1       3.046  80.664 109.977  0.00  0.00     0.038 C 
ATOM      4  C   LIG d   1       3.620  81.936 110.124  0.00  0.00     0.028 C 
ATOM      5  C   LIG d   1       2.666  83.074 109.779  0.00  0.00    -0.047 C 
ATOM      6  C   LIG d   1       1.345  82.876 110.558  0.00  0.00     0.091 C 
ENDROOT
BRANCH   1   7
ATOM      7  O   LIG d   1      -0.218  81.149 111.319  0.00  0.00    -0.368 OA
BRANCH   7   8
ATOM      8  C   LIG d   1       0.001  79.884 111.991  0.00  0.00     0.119 C 
BRANCH   8   9
ATOM      9  C   LIG d   1      -1.380  79.245 112.236  0.00  0.00     0.028 C 
ATOM     10  C   LIG d   1      -1.662  78.073 111.280  0.00  0.00     0.006 C 
ENDBRANCH   8   9
BRANCH   8  11
ATOM     11  C   LIG d   1       0.605  80.090 113.383  0.00  0.00     0.028 C 
ATOM     12  C   LIG d   1       0.244  78.962 114.362  0.00  0.00     0.006 C 
ENDBRANCH   8  11
ENDBRANCH   7   8
ENDBRANCH   1   7
BRANCH   6  13
ATOM     13  N   LIG d   1       0.325  83.900 110.214  0.00  0.00    -0.311 N 
ATOM     14  C   LIG d   1       0.195  85.053 110.868  0.00  0.00     0.210 C 
ATOM     15  C   LIG d   1      -0.934  85.958 110.364  0.00  0.00     0.109 C 
ATOM     16  O   LIG d   1       0.928  85.427 111.796  0.00  0.00    -0.276 OA
ATOM     17  H   LIG d   1      -0.292  83.692 109.454  0.00  0.00     0.149 HD
ENDBRANCH   6  13
BRANCH   5  18
ATOM     18  N   LIG d   1       3.346  84.341 110.108  0.00  0.00     0.381 N 
ATOM     19  H   LIG d   1       2.786  84.871 110.746  0.00  0.00    -0.090 HD
ATOM     20  H   LIG d   1       3.458  84.878 109.266  0.00  0.00    -0.090 HD
ATOM     21  H   LIG d   1       4.237  84.155 110.513  0.00  0.00    -0.090 HD
ENDBRANCH   5  18
BRANCH   3  22
ATOM     22  C   LIG d   1       3.873  79.604 109.636  0.00  0.00     0.382 C 
ATOM     23  O   LIG d   1       3.374  78.505 109.295  0.00  0.00    -0.241 OA
ATOM     24  O   LIG d   1       5.111  79.720 109.709  0.00  0.00    -0.241 OA
ENDBRANCH   3  22
TORSDOF 7
ENDMDL
MODEL 7
REMARK VINA RESULT:      -4.3      3.039      5.729
REMARK  7 active torsions:
REMARK  status: ('A' for Active; 'I' for Inactive)
REMARK    1  A    between atoms: C_2  and  C_3 
REMARK    2  A    between atoms: C_3  and  O_6 
REMARK    3  A    between atoms: C_3  and  C_4 
REMARK    4  A    between atoms: C_7  and  O_6 
REMARK    5  A    between atoms: C_9  and  C_10 
REMARK    6  A    between atoms: N_15  and  C_14 
REMARK    7  A    between atoms: N_20  and  C_19 
REMARK       I    between atoms: C_22  and  N_20 
ROOT
ATOM      1  C   LIG d   1       0.450  81.973 111.305  0.00  0.00     0.161 C 
ATOM      2  C   LIG d   1      -0.899  81.660 111.538  0.00  0.00     0.016 C 
ATOM      3  C   LIG d   1      -1.337  80.860 112.618  0.00  0.00     0.038 C 
ATOM      4  C   LIG d   1      -0.463  80.441 113.632  0.00  0.00     0.028 C 
ATOM      5  C   LIG d   1       0.984  80.308 113.168  0.00  0.00    -0.047 C 
ATOM      6  C   LIG d   1       1.406  81.617 112.462  0.00  0.00     0.091 C 
ENDROOT
BRANCH   1   7
ATOM      7  O   LIG d   1       0.576  83.368 110.962  0.00  0.00    -0.368 OA
BRANCH   7   8
ATOM      8  C   LIG d   1      -0.583  84.196 111.226  0.00  0.00     0.119 C 
BRANCH   8   9
ATOM      9  C   LIG d   1      -0.606  85.312 110.164  0.00  0.00     0.028 C 
ATOM     10  C   LIG d   1       0.568  85.206 109.176  0.00  0.00     0.006 C 
ENDBRANCH   8   9
BRANCH   8  11
ATOM     11  C   LIG d   1      -0.457  84.918 112.571  0.00  0.00     0.028 C 
ATOM     12  C   LIG d   1       0.992  85.308 112.904  0.00  0.00     0.006 C 
ENDBRANCH   8  11
ENDBRANCH   7   8
ENDBRANCH   1   7
BRANCH   6  13
ATOM     13  N   LIG d   1       2.781  81.542 111.903  0.00  0.00    -0.311 N 
ATOM     14  C   LIG d   1       3.782  82.321 112.310  0.00  0.00     0.210 C 
ATOM     15  C   LIG d   1       5.113  82.092 111.588  0.00  0.00     0.109 C 
ATOM     16  O   LIG d   1       3.701  83.157 113.223  0.00  0.00    -0.276 OA
ATOM     17  H   LIG d   1       2.943  80.869 111.180  0.00  0.00     0.149 HD
ENDBRANCH   6  13
BRANCH   5  18
ATOM     18  N   LIG d   1       1.805  80.000 114.354  0.00  0.00     0.381 N 
ATOM     19  H   LIG d   1       1.726  80.739 115.023  0.00  0.00    -0.090 HD
ATOM     20  H   LIG d   1       2.768  79.930 114.073  0.00  0.00    -0.090 HD
ATOM     21  H   LIG d   1       1.508  79.140 114.761  0.00  0.00    -0.090 HD
ENDBRANCH   5  18
BRANCH   3  22
ATOM     22  C   LIG d   1      -2.657  80.438 112.670  0.00  0.00     0.382 C 
ATOM     23  O   LIG d   1      -2.923  79.212 112.691  0.00  0.00    -0.241 OA
ATOM     24  O   LIG d   1      -3.587  81.267 112.652  0.00  0.00    -0.241 OA
ENDBRANCH   3  22
TORSDOF 7
ENDMDL
MODEL 8
REMARK VINA RESULT:      -4.1     26.267     28.249
REMARK  7 active torsions:
REMARK  status: ('A' for Active; 'I' for Inactive)
REMARK    1  A    between atoms: C_2  and  C_3 
REMARK    2  A    between atoms: C_3  and  O_6 
REMARK    3  A    between atoms: C_3  and  C_4 
REMARK    4  A    between atoms: C_7  and  O_6 
REMARK    5  A    between atoms: C_9  and  C_10 
REMARK    6  A    between atoms: N_15  and  C_14 
REMARK    7  A    between atoms: N_20  and  C_19 
REMARK       I    between atoms: C_22  and  N_20 
ROOT
ATOM      1  C   LIG d   1     -25.785  85.343 113.230  0.00  0.00     0.161 C 
ATOM      2  C   LIG d   1     -24.391  85.220 113.351  0.00  0.00     0.016 C 
ATOM      3  C   LIG d   1     -23.547  86.285 113.740  0.00  0.00     0.038 C 
ATOM      4  C   LIG d   1     -24.059  87.514 114.183  0.00  0.00     0.028 C 
ATOM      5  C   LIG d   1     -25.427  87.846 113.596  0.00  0.00    -0.047 C 
ATOM      6  C   LIG d   1     -26.373  86.643 113.815  0.00  0.00     0.091 C 
ENDROOT
BRANCH   1   7
ATOM      7  O   LIG d   1     -26.429  84.193 113.814  0.00  0.00    -0.368 OA
BRANCH   7   8
ATOM      8  C   LIG d   1     -26.124  82.914 113.207  0.00  0.00     0.119 C 
BRANCH   8   9
ATOM      9  C   LIG d   1     -27.444  82.331 112.668  0.00  0.00     0.028 C 
ATOM     10  C   LIG d   1     -28.262  83.364 111.875  0.00  0.00     0.006 C 
ENDBRANCH   8   9
BRANCH   8  11
ATOM     11  C   LIG d   1     -25.631  81.906 114.249  0.00  0.00     0.028 C 
ATOM     12  C   LIG d   1     -24.106  81.942 114.438  0.00  0.00     0.006 C 
ENDBRANCH   8  11
ENDBRANCH   7   8
ENDBRANCH   1   7
BRANCH   6  13
ATOM     13  N   LIG d   1     -27.708  86.852 113.196  0.00  0.00    -0.311 N 
ATOM     14  C   LIG d   1     -27.887  87.067 111.894  0.00  0.00     0.210 C 
ATOM     15  C   LIG d   1     -29.343  87.277 111.468  0.00  0.00     0.109 C 
ATOM     16  O   LIG d   1     -26.981  87.073 111.047  0.00  0.00    -0.276 OA
ATOM     17  H   LIG d   1     -28.502  86.832 113.807  0.00  0.00     0.149 HD
ENDBRANCH   6  13
BRANCH   5  18
ATOM     18  N   LIG d   1     -25.903  89.082 114.246  0.00  0.00     0.381 N 
ATOM     19  H   LIG d   1     -26.895  89.042 114.364  0.00  0.00    -0.090 HD
ATOM     20  H   LIG d   1     -25.688  89.864 113.653  0.00  0.00    -0.090 HD
ATOM     21  H   LIG d   1     -25.459  89.194 115.131  0.00  0.00    -0.090 HD
ENDBRANCH   5  18
BRANCH   3  22
ATOM     22  C   LIG d   1     -22.171  86.140 113.650  0.00  0.00     0.382 C 
ATOM     23  O   LIG d   1     -21.631  85.057 113.982  0.00  0.00    -0.241 OA
ATOM     24  O   LIG d   1     -21.457  87.093 113.284  0.00  0.00    -0.241 OA
ENDBRANCH   3  22
TORSDOF 7
ENDMDL
MODEL 9
REMARK VINA RESULT:      -4.1     29.398     32.216
REMARK  7 active torsions:
REMARK  status: ('A' for Active; 'I' for Inactive)
REMARK    1  A    between atoms: C_2  and  C_3 
REMARK    2  A    between atoms: C_3  and  O_6 
REMARK    3  A    between atoms: C_3  and  C_4 
REMARK    4  A    between atoms: C_7  and  O_6 
REMARK    5  A    between atoms: C_9  and  C_10 
REMARK    6  A    between atoms: N_15  and  C_14 
REMARK    7  A    between atoms: N_20  and  C_19 
REMARK       I    between atoms: C_22  and  N_20 
ROOT
ATOM      1  C   LIG d   1     -27.298  72.045 109.214  0.00  0.00     0.161 C 
ATOM      2  C   LIG d   1     -26.828  70.751 108.934  0.00  0.00     0.016 C 
ATOM      3  C   LIG d   1     -27.340  69.946 107.891  0.00  0.00     0.038 C 
ATOM      4  C   LIG d   1     -28.259  70.442 106.955  0.00  0.00     0.028 C 
ATOM      5  C   LIG d   1     -29.132  71.567 107.500  0.00  0.00    -0.047 C 
ATOM      6  C   LIG d   1     -28.222  72.645 108.134  0.00  0.00     0.091 C 
ENDROOT
BRANCH   1   7
ATOM      7  O   LIG d   1     -26.184  72.925 109.465  0.00  0.00    -0.368 OA
BRANCH   7   8
ATOM      8  C   LIG d   1     -26.086  73.462 110.807  0.00  0.00     0.119 C 
BRANCH   8   9
ATOM      9  C   LIG d   1     -27.241  72.860 111.632  0.00  0.00     0.028 C 
ATOM     10  C   LIG d   1     -26.815  72.502 113.065  0.00  0.00     0.006 C 
ENDBRANCH   8   9
BRANCH   8  11
ATOM     11  C   LIG d   1     -26.323  74.975 110.822  0.00  0.00     0.028 C 
ATOM     12  C   LIG d   1     -25.266  75.736 111.637  0.00  0.00     0.006 C 
ENDBRANCH   8  11
ENDBRANCH   7   8
ENDBRANCH   1   7
BRANCH   6  13
ATOM     13  N   LIG d   1     -29.000  73.742 108.766  0.00  0.00    -0.311 N 
ATOM     14  C   LIG d   1     -29.283  74.889 108.150  0.00  0.00     0.210 C 
ATOM     15  C   LIG d   1     -30.079  75.894 108.989  0.00  0.00     0.109 C 
ATOM     16  O   LIG d   1     -28.980  75.156 106.978  0.00  0.00    -0.276 OA
ATOM     17  H   LIG d   1     -29.313  73.597 109.706  0.00  0.00     0.149 HD
ENDBRANCH   6  13
BRANCH   5  18
ATOM     18  N   LIG d   1     -29.945  72.082 106.382  0.00  0.00     0.381 N 
ATOM     19  H   LIG d   1     -29.415  72.049 105.534  0.00  0.00    -0.090 HD
ATOM     20  H   LIG d   1     -30.184  73.040 106.568  0.00  0.00    -0.090 HD
ATOM     21  H   LIG d   1     -30.774  71.538 106.285  0.00  0.00    -0.090 HD
ENDBRANCH   5  18
BRANCH   3  22
ATOM     22  C   LIG d   1     -26.962  68.615 107.801  0.00  0.00     0.382 C 
ATOM     23  O   LIG d   1     -27.832  67.712 107.834  0.00  0.00    -0.241 OA
ATOM     24  O   LIG d   1     -25.758  68.304 107.733  0.00  0.00    -0.241 OA
ENDBRANCH   3  22
TORSDOF 7
ENDMDL
