MODEL 1
REMARK VINA RESULT:      -6.3      0.000      0.000
REMARK  7 active torsions:
REMARK  status: ('A' for Active; 'I' for Inactive)
REMARK    1  A    between atoms: C_2  and  C_3 
REMARK    2  A    between atoms: C_3  and  O_6 
REMARK    3  A    between atoms: C_3  and  C_4 
REMARK    4  A    between atoms: C_7  and  O_6 
REMARK    5  A    between atoms: C_9  and  C_10 
REMARK    6  A    between atoms: N_15  and  C_14 
REMARK    7  A    between atoms: N_20  and  C_19 
REMARK       I    between atoms: C_22  and  N_20 
ROOT
ATOM      1  C   LIG d   1       2.550  83.586 109.893  0.00  0.00     0.161 C 
ATOM      2  C   LIG d   1       2.724  84.815 110.550  0.00  0.00     0.016 C 
ATOM      3  C   LIG d   1       1.815  85.321 111.507  0.00  0.00     0.038 C 
ATOM      4  C   LIG d   1       0.741  84.556 111.987  0.00  0.00     0.028 C 
ATOM      5  C   LIG d   1       0.242  83.519 110.986  0.00  0.00    -0.047 C 
ATOM      6  C   LIG d   1       1.444  82.687 110.484  0.00  0.00     0.091 C 
ENDROOT
BRANCH   1   7
ATOM      7  O   LIG d   1       3.803  82.875 109.848  0.00  0.00    -0.368 OA
BRANCH   7   8
ATOM      8  C   LIG d   1       4.037  81.927 110.919  0.00  0.00     0.119 C 
BRANCH   8   9
ATOM      9  C   LIG d   1       4.875  82.643 111.996  0.00  0.00     0.028 C 
ATOM     10  C   LIG d   1       4.138  82.746 113.342  0.00  0.00     0.006 C 
ENDBRANCH   8   9
BRANCH   8  11
ATOM     11  C   LIG d   1       4.900  80.754 110.447  0.00  0.00     0.028 C 
ATOM     12  C   LIG d   1       4.243  79.947 109.316  0.00  0.00     0.006 C 
ENDBRANCH   8  11
ENDBRANCH   7   8
ENDBRANCH   1   7
BRANCH   6  13
ATOM     13  N   LIG d   1       1.056  81.704 109.438  0.00  0.00    -0.311 N 
ATOM     14  C   LIG d   1       0.768  80.431 109.700  0.00  0.00     0.210 C 
ATOM     15  C   LIG d   1       0.412  79.583 108.475  0.00  0.00     0.109 C 
ATOM     16  O   LIG d   1       0.741  79.930 110.835  0.00  0.00    -0.276 OA
ATOM     17  H   LIG d   1       1.022  82.034 108.493  0.00  0.00     0.149 HD
ENDBRANCH   6  13
BRANCH   5  18
ATOM     18  N   LIG d   1      -0.783  82.702 111.664  0.00  0.00     0.381 N 
ATOM     19  H   LIG d   1      -0.551  82.603 112.632  0.00  0.00    -0.090 HD
ATOM     20  H   LIG d   1      -0.797  81.788 111.248  0.00  0.00    -0.090 HD
ATOM     21  H   LIG d   1      -1.677  83.132 111.572  0.00  0.00    -0.090 HD
ENDBRANCH   5  18
BRANCH   3  22
ATOM     22  C   LIG d   1       1.953  86.622 111.966  0.00  0.00     0.382 C 
ATOM     23  O   LIG d   1       1.896  87.581 111.159  0.00  0.00    -0.241 OA
ATOM     24  O   LIG d   1       2.178  86.847 113.170  0.00  0.00    -0.241 OA
ENDBRANCH   3  22
TORSDOF 7
ENDMDL
MODEL 2
REMARK VINA RESULT:      -6.2      2.667      5.061
REMARK  7 active torsions:
REMARK  status: ('A' for Active; 'I' for Inactive)
REMARK    1  A    between atoms: C_2  and  C_3 
REMARK    2  A    between atoms: C_3  and  O_6 
REMARK    3  A    between atoms: C_3  and  C_4 
REMARK    4  A    between atoms: C_7  and  O_6 
REMARK    5  A    between atoms: C_9  and  C_10 
REMARK    6  A    between atoms: N_15  and  C_14 
REMARK    7  A    between atoms: N_20  and  C_19 
REMARK       I    between atoms: C_22  and  N_20 
ROOT
ATOM      1  C   LIG d   1       0.277  82.314 111.312  0.00  0.00     0.161 C 
ATOM      2  C   LIG d   1      -0.848  82.038 112.107  0.00  0.00     0.016 C 
ATOM      3  C   LIG d   1      -1.320  80.729 112.358  0.00  0.00     0.038 C 
ATOM      4  C   LIG d   1      -0.607  79.592 111.952  0.00  0.00     0.028 C 
ATOM      5  C   LIG d   1       0.258  79.829 110.718  0.00  0.00    -0.047 C 
ATOM      6  C   LIG d   1       1.133  81.082 110.952  0.00  0.00     0.091 C 
ENDROOT
BRANCH   1   7
ATOM      7  O   LIG d   1       1.090  83.320 111.948  0.00  0.00    -0.368 OA
BRANCH   7   8
ATOM      8  C   LIG d   1       1.160  84.602 111.275  0.00  0.00     0.119 C 
BRANCH   8   9
ATOM      9  C   LIG d   1       0.249  84.524 110.035  0.00  0.00     0.028 C 
ATOM     10  C   LIG d   1      -0.738  85.701 109.957  0.00  0.00     0.006 C 
ENDBRANCH   8   9
BRANCH   8  11
ATOM     11  C   LIG d   1       2.566  84.868 110.729  0.00  0.00     0.028 C 
ATOM     12  C   LIG d   1       3.670  84.230 111.588  0.00  0.00     0.006 C 
ENDBRANCH   8  11
ENDBRANCH   7   8
ENDBRANCH   1   7
BRANCH   6  13
ATOM     13  N   LIG d   1       1.949  81.433 109.760  0.00  0.00    -0.311 N 
ATOM     14  C   LIG d   1       3.223  81.076 109.613  0.00  0.00     0.210 C 
ATOM     15  C   LIG d   1       3.885  81.559 108.319  0.00  0.00     0.109 C 
ATOM     16  O   LIG d   1       3.859  80.377 110.417  0.00  0.00    -0.276 OA
ATOM     17  H   LIG d   1       1.502  81.973 109.045  0.00  0.00     0.149 HD
ENDBRANCH   6  13
BRANCH   5  18
ATOM     18  N   LIG d   1       1.050  78.606 110.488  0.00  0.00     0.381 N 
ATOM     19  H   LIG d   1       1.589  78.392 111.304  0.00  0.00    -0.090 HD
ATOM     20  H   LIG d   1       1.684  78.768 109.725  0.00  0.00    -0.090 HD
ATOM     21  H   LIG d   1       0.446  77.844 110.271  0.00  0.00    -0.090 HD
ENDBRANCH   5  18
BRANCH   3  22
ATOM     22  C   LIG d   1      -2.542  80.549 112.989  0.00  0.00     0.382 C 
ATOM     23  O   LIG d   1      -3.545  81.200 112.610  0.00  0.00    -0.241 OA
ATOM     24  O   LIG d   1      -2.643  79.777 113.962  0.00  0.00    -0.241 OA
ENDBRANCH   3  22
TORSDOF 7
ENDMDL
MODEL 3
REMARK VINA RESULT:      -6.1      1.323      2.098
REMARK  7 active torsions:
REMARK  status: ('A' for Active; 'I' for Inactive)
REMARK    1  A    between atoms: C_2  and  C_3 
REMARK    2  A    between atoms: C_3  and  O_6 
REMARK    3  A    between atoms: C_3  and  C_4 
REMARK    4  A    between atoms: C_7  and  O_6 
REMARK    5  A    between atoms: C_9  and  C_10 
REMARK    6  A    between atoms: N_15  and  C_14 
REMARK    7  A    between atoms: N_20  and  C_19 
REMARK       I    between atoms: C_22  and  N_20 
ROOT
ATOM      1  C   LIG d   1       2.719  83.580 111.035  0.00  0.00     0.161 C 
ATOM      2  C   LIG d   1       3.049  84.834 111.574  0.00  0.00     0.016 C 
ATOM      3  C   LIG d   1       2.191  85.956 111.518  0.00  0.00     0.038 C 
ATOM      4  C   LIG d   1       0.873  85.858 111.047  0.00  0.00     0.028 C 
ATOM      5  C   LIG d   1       0.674  84.738 110.032  0.00  0.00    -0.047 C 
ATOM      6  C   LIG d   1       1.242  83.424 110.617  0.00  0.00     0.091 C 
ENDROOT
BRANCH   1   7
ATOM      7  O   LIG d   1       3.091  82.537 111.958  0.00  0.00    -0.368 OA
BRANCH   7   8
ATOM      8  C   LIG d   1       4.411  81.968 111.779  0.00  0.00     0.119 C 
BRANCH   8   9
ATOM      9  C   LIG d   1       4.260  80.719 110.889  0.00  0.00     0.028 C 
ATOM     10  C   LIG d   1       4.488  81.029 109.400  0.00  0.00     0.006 C 
ENDBRANCH   8   9
BRANCH   8  11
ATOM     11  C   LIG d   1       4.981  81.455 113.105  0.00  0.00     0.028 C 
ATOM     12  C   LIG d   1       3.958  81.500 114.251  0.00  0.00     0.006 C 
ENDBRANCH   8  11
ENDBRANCH   7   8
ENDBRANCH   1   7
BRANCH   6  13
ATOM     13  N   LIG d   1       1.164  82.295 109.654  0.00  0.00    -0.311 N 
ATOM     14  C   LIG d   1       0.673  81.097 109.967  0.00  0.00     0.210 C 
ATOM     15  C   LIG d   1       0.703  80.069 108.832  0.00  0.00     0.109 C 
ATOM     16  O   LIG d   1       0.185  80.798 111.068  0.00  0.00    -0.276 OA
ATOM     17  H   LIG d   1       1.508  82.460 108.728  0.00  0.00     0.149 HD
ENDBRANCH   6  13
BRANCH   5  18
ATOM     18  N   LIG d   1      -0.768  84.661 109.731  0.00  0.00     0.381 N 
ATOM     19  H   LIG d   1      -1.162  85.580 109.721  0.00  0.00    -0.090 HD
ATOM     20  H   LIG d   1      -1.223  84.131 110.453  0.00  0.00    -0.090 HD
ATOM     21  H   LIG d   1      -0.909  84.221 108.848  0.00  0.00    -0.090 HD
ENDBRANCH   5  18
BRANCH   3  22
ATOM     22  C   LIG d   1       2.664  87.203 111.898  0.00  0.00     0.382 C 
ATOM     23  O   LIG d   1       1.985  88.231 111.658  0.00  0.00    -0.241 OA
ATOM     24  O   LIG d   1       3.780  87.317 112.439  0.00  0.00    -0.241 OA
ENDBRANCH   3  22
TORSDOF 7
ENDMDL
MODEL 4
REMARK VINA RESULT:      -6.1      1.952      2.281
REMARK  7 active torsions:
REMARK  status: ('A' for Active; 'I' for Inactive)
REMARK    1  A    between atoms: C_2  and  C_3 
REMARK    2  A    between atoms: C_3  and  O_6 
REMARK    3  A    between atoms: C_3  and  C_4 
REMARK    4  A    between atoms: C_7  and  O_6 
REMARK    5  A    between atoms: C_9  and  C_10 
REMARK    6  A    between atoms: N_15  and  C_14 
REMARK    7  A    between atoms: N_20  and  C_19 
REMARK       I    between atoms: C_22  and  N_20 
ROOT
ATOM      1  C   LIG d   1       0.689  83.425 109.833  0.00  0.00     0.161 C 
ATOM      2  C   LIG d   1       0.324  84.583 110.541  0.00  0.00     0.016 C 
ATOM      3  C   LIG d   1      -0.282  84.556 111.818  0.00  0.00     0.038 C 
ATOM      4  C   LIG d   1      -0.427  83.365 112.545  0.00  0.00     0.028 C 
ATOM      5  C   LIG d   1      -0.535  82.127 111.662  0.00  0.00    -0.047 C 
ATOM      6  C   LIG d   1       0.640  82.122 110.658  0.00  0.00     0.091 C 
ENDROOT
BRANCH   1   7
ATOM      7  O   LIG d   1       1.995  83.600 109.250  0.00  0.00    -0.368 OA
BRANCH   7   8
ATOM      8  C   LIG d   1       3.122  83.407 110.140  0.00  0.00     0.119 C 
BRANCH   8   9
ATOM      9  C   LIG d   1       3.626  84.802 110.558  0.00  0.00     0.028 C 
ATOM     10  C   LIG d   1       3.478  85.051 112.068  0.00  0.00     0.006 C 
ENDBRANCH   8   9
BRANCH   8  11
ATOM     11  C   LIG d   1       4.300  82.752 109.413  0.00  0.00     0.028 C 
ATOM     12  C   LIG d   1       3.876  82.024 108.128  0.00  0.00     0.006 C 
ENDBRANCH   8  11
ENDBRANCH   7   8
ENDBRANCH   1   7
BRANCH   6  13
ATOM     13  N   LIG d   1       0.562  80.987 109.701  0.00  0.00    -0.311 N 
ATOM     14  C   LIG d   1       1.455  80.000 109.661  0.00  0.00     0.210 C 
ATOM     15  C   LIG d   1       1.200  78.940 108.585  0.00  0.00     0.109 C 
ATOM     16  O   LIG d   1       2.416  79.884 110.436  0.00  0.00    -0.276 OA
ATOM     17  H   LIG d   1      -0.204  80.986 109.056  0.00  0.00     0.149 HD
ENDBRANCH   6  13
BRANCH   5  18
ATOM     18  N   LIG d   1      -0.543  80.947 112.548  0.00  0.00     0.381 N 
ATOM     19  H   LIG d   1      -1.275  80.323 112.274  0.00  0.00    -0.090 HD
ATOM     20  H   LIG d   1      -0.722  81.249 113.490  0.00  0.00    -0.090 HD
ATOM     21  H   LIG d   1       0.336  80.481 112.503  0.00  0.00    -0.090 HD
ENDBRANCH   5  18
BRANCH   3  22
ATOM     22  C   LIG d   1      -0.786  85.727 112.364  0.00  0.00     0.382 C 
ATOM     23  O   LIG d   1      -0.471  86.060 113.532  0.00  0.00    -0.241 OA
ATOM     24  O   LIG d   1      -1.586  86.431 111.720  0.00  0.00    -0.241 OA
ENDBRANCH   3  22
TORSDOF 7
ENDMDL
MODEL 5
REMARK VINA RESULT:      -5.9      2.079      4.927
REMARK  7 active torsions:
REMARK  status: ('A' for Active; 'I' for Inactive)
REMARK    1  A    between atoms: C_2  and  C_3 
REMARK    2  A    between atoms: C_3  and  O_6 
REMARK    3  A    between atoms: C_3  and  C_4 
REMARK    4  A    between atoms: C_7  and  O_6 
REMARK    5  A    between atoms: C_9  and  C_10 
REMARK    6  A    between atoms: N_15  and  C_14 
REMARK    7  A    between atoms: N_20  and  C_19 
REMARK       I    between atoms: C_22  and  N_20 
ROOT
ATOM      1  C   LIG d   1       2.440  82.899 112.242  0.00  0.00     0.161 C 
ATOM      2  C   LIG d   1       1.674  81.723 112.186  0.00  0.00     0.016 C 
ATOM      3  C   LIG d   1       0.263  81.717 112.100  0.00  0.00     0.038 C 
ATOM      4  C   LIG d   1      -0.473  82.896 111.910  0.00  0.00     0.028 C 
ATOM      5  C   LIG d   1       0.216  84.137 112.466  0.00  0.00    -0.047 C 
ATOM      6  C   LIG d   1       1.663  84.194 111.924  0.00  0.00     0.091 C 
ENDROOT
BRANCH   1   7
ATOM      7  O   LIG d   1       3.586  82.778 111.375  0.00  0.00    -0.368 OA
BRANCH   7   8
ATOM      8  C   LIG d   1       3.488  81.784 110.326  0.00  0.00     0.119 C 
BRANCH   8   9
ATOM      9  C   LIG d   1       4.789  80.958 110.347  0.00  0.00     0.028 C 
ATOM     10  C   LIG d   1       4.637  79.604 109.635  0.00  0.00     0.006 C 
ENDBRANCH   8   9
BRANCH   8  11
ATOM     11  C   LIG d   1       3.446  82.437 108.941  0.00  0.00     0.028 C 
ATOM     12  C   LIG d   1       2.015  82.743 108.471  0.00  0.00     0.006 C 
ENDBRANCH   8  11
ENDBRANCH   7   8
ENDBRANCH   1   7
BRANCH   6  13
ATOM     13  N   LIG d   1       2.435  85.332 112.485  0.00  0.00    -0.311 N 
ATOM     14  C   LIG d   1       2.580  86.499 111.860  0.00  0.00     0.210 C 
ATOM     15  C   LIG d   1       3.432  87.531 112.606  0.00  0.00     0.109 C 
ATOM     16  O   LIG d   1       2.057  86.789 110.774  0.00  0.00    -0.276 OA
ATOM     17  H   LIG d   1       2.867  85.194 113.378  0.00  0.00     0.149 HD
ENDBRANCH   6  13
BRANCH   5  18
ATOM     18  N   LIG d   1      -0.593  85.308 112.079  0.00  0.00     0.381 N 
ATOM     19  H   LIG d   1      -1.493  85.008 111.761  0.00  0.00    -0.090 HD
ATOM     20  H   LIG d   1      -0.134  85.784 111.322  0.00  0.00    -0.090 HD
ATOM     21  H   LIG d   1      -0.695  85.924 112.855  0.00  0.00    -0.090 HD
ENDBRANCH   5  18
BRANCH   3  22
ATOM     22  C   LIG d   1      -0.429  80.524 112.244  0.00  0.00     0.382 C 
ATOM     23  O   LIG d   1      -0.751  80.121 113.388  0.00  0.00    -0.241 OA
ATOM     24  O   LIG d   1      -0.697  79.825 111.249  0.00  0.00    -0.241 OA
ENDBRANCH   3  22
TORSDOF 7
ENDMDL
MODEL 6
REMARK VINA RESULT:      -5.8      2.651      4.607
REMARK  7 active torsions:
REMARK  status: ('A' for Active; 'I' for Inactive)
REMARK    1  A    between atoms: C_2  and  C_3 
REMARK    2  A    between atoms: C_3  and  O_6 
REMARK    3  A    between atoms: C_3  and  C_4 
REMARK    4  A    between atoms: C_7  and  O_6 
REMARK    5  A    between atoms: C_9  and  C_10 
REMARK    6  A    between atoms: N_15  and  C_14 
REMARK    7  A    between atoms: N_20  and  C_19 
REMARK       I    between atoms: C_22  and  N_20 
ROOT
ATOM      1  C   LIG d   1       1.445  81.129 112.216  0.00  0.00     0.161 C 
ATOM      2  C   LIG d   1       2.628  81.612 111.632  0.00  0.00     0.016 C 
ATOM      3  C   LIG d   1       2.889  81.558 110.243  0.00  0.00     0.038 C 
ATOM      4  C   LIG d   1       1.913  81.152 109.321  0.00  0.00     0.028 C 
ATOM      5  C   LIG d   1       0.890  80.184 109.908  0.00  0.00    -0.047 C 
ATOM      6  C   LIG d   1       0.323  80.785 111.214  0.00  0.00     0.091 C 
ENDROOT
BRANCH   1   7
ATOM      7  O   LIG d   1       0.968  82.068 113.200  0.00  0.00    -0.368 OA
BRANCH   7   8
ATOM      8  C   LIG d   1       1.171  83.470 112.895  0.00  0.00     0.119 C 
BRANCH   8   9
ATOM      9  C   LIG d   1       1.649  84.160 114.187  0.00  0.00     0.028 C 
ATOM     10  C   LIG d   1       2.849  85.092 113.945  0.00  0.00     0.006 C 
ENDBRANCH   8   9
BRANCH   8  11
ATOM     11  C   LIG d   1      -0.148  84.158 112.531  0.00  0.00     0.028 C 
ATOM     12  C   LIG d   1      -0.307  84.381 111.019  0.00  0.00     0.006 C 
ENDBRANCH   8  11
ENDBRANCH   7   8
ENDBRANCH   1   7
BRANCH   6  13
ATOM     13  N   LIG d   1      -0.622  79.864 111.898  0.00  0.00    -0.311 N 
ATOM     14  C   LIG d   1      -1.766  80.266 112.451  0.00  0.00     0.210 C 
ATOM     15  C   LIG d   1      -2.584  79.157 113.121  0.00  0.00     0.109 C 
ATOM     16  O   LIG d   1      -2.195  81.428 112.421  0.00  0.00    -0.276 OA
ATOM     17  H   LIG d   1      -0.367  78.897 111.940  0.00  0.00     0.149 HD
ENDBRANCH   6  13
BRANCH   5  18
ATOM     18  N   LIG d   1      -0.143  79.952 108.882  0.00  0.00     0.381 N 
ATOM     19  H   LIG d   1      -1.052  80.083 109.280  0.00  0.00    -0.090 HD
ATOM     20  H   LIG d   1      -0.074  79.003 108.559  0.00  0.00    -0.090 HD
ATOM     21  H   LIG d   1      -0.014  80.580 108.119  0.00  0.00    -0.090 HD
ENDBRANCH   5  18
BRANCH   3  22
ATOM     22  C   LIG d   1       4.152  81.875 109.768  0.00  0.00     0.382 C 
ATOM     23  O   LIG d   1       4.314  82.159 108.557  0.00  0.00    -0.241 OA
ATOM     24  O   LIG d   1       5.140  81.839 110.527  0.00  0.00    -0.241 OA
ENDBRANCH   3  22
TORSDOF 7
ENDMDL
MODEL 7
REMARK VINA RESULT:      -5.8      1.911      2.676
REMARK  7 active torsions:
REMARK  status: ('A' for Active; 'I' for Inactive)
REMARK    1  A    between atoms: C_2  and  C_3 
REMARK    2  A    between atoms: C_3  and  O_6 
REMARK    3  A    between atoms: C_3  and  C_4 
REMARK    4  A    between atoms: C_7  and  O_6 
REMARK    5  A    between atoms: C_9  and  C_10 
REMARK    6  A    between atoms: N_15  and  C_14 
REMARK    7  A    between atoms: N_20  and  C_19 
REMARK       I    between atoms: C_22  and  N_20 
ROOT
ATOM      1  C   LIG d   1       1.539  83.777 110.846  0.00  0.00     0.161 C 
ATOM      2  C   LIG d   1       2.125  85.053 110.804  0.00  0.00     0.016 C 
ATOM      3  C   LIG d   1       2.447  85.800 111.961  0.00  0.00     0.038 C 
ATOM      4  C   LIG d   1       2.342  85.253 113.249  0.00  0.00     0.028 C 
ATOM      5  C   LIG d   1       1.284  84.160 113.359  0.00  0.00    -0.047 C 
ATOM      6  C   LIG d   1       1.520  83.119 112.241  0.00  0.00     0.091 C 
ENDROOT
BRANCH   1   7
ATOM      7  O   LIG d   1       2.187  82.911 109.892  0.00  0.00    -0.368 OA
BRANCH   7   8
ATOM      8  C   LIG d   1       3.631  82.832 109.981  0.00  0.00     0.119 C 
BRANCH   8   9
ATOM      9  C   LIG d   1       4.149  82.292 108.634  0.00  0.00     0.028 C 
ATOM     10  C   LIG d   1       4.090  80.757 108.555  0.00  0.00     0.006 C 
ENDBRANCH   8   9
BRANCH   8  11
ATOM     11  C   LIG d   1       4.069  81.801 111.026  0.00  0.00     0.028 C 
ATOM     12  C   LIG d   1       5.002  82.395 112.094  0.00  0.00     0.006 C 
ENDBRANCH   8  11
ENDBRANCH   7   8
ENDBRANCH   1   7
BRANCH   6  13
ATOM     13  N   LIG d   1       0.479  82.059 112.225  0.00  0.00    -0.311 N 
ATOM     14  C   LIG d   1       0.654  80.851 112.758  0.00  0.00     0.210 C 
ATOM     15  C   LIG d   1      -0.540  79.902 112.614  0.00  0.00     0.109 C 
ATOM     16  O   LIG d   1       1.672  80.486 113.364  0.00  0.00    -0.276 OA
ATOM     17  H   LIG d   1      -0.390  82.281 111.780  0.00  0.00     0.149 HD
ENDBRANCH   6  13
BRANCH   5  18
ATOM     18  N   LIG d   1       1.377  83.585 114.714  0.00  0.00     0.381 N 
ATOM     19  H   LIG d   1       0.911  82.700 114.739  0.00  0.00    -0.090 HD
ATOM     20  H   LIG d   1       0.918  84.201 115.361  0.00  0.00    -0.090 HD
ATOM     21  H   LIG d   1       2.333  83.473 114.972  0.00  0.00    -0.090 HD
ENDBRANCH   5  18
BRANCH   3  22
ATOM     22  C   LIG d   1       2.841  87.123 111.838  0.00  0.00     0.382 C 
ATOM     23  O   LIG d   1       1.983  88.017 111.640  0.00  0.00    -0.241 OA
ATOM     24  O   LIG d   1       4.048  87.429 111.877  0.00  0.00    -0.241 OA
ENDBRANCH   3  22
TORSDOF 7
ENDMDL
MODEL 8
REMARK VINA RESULT:      -5.7      1.834      2.481
REMARK  7 active torsions:
REMARK  status: ('A' for Active; 'I' for Inactive)
REMARK    1  A    between atoms: C_2  and  C_3 
REMARK    2  A    between atoms: C_3  and  O_6 
REMARK    3  A    between atoms: C_3  and  C_4 
REMARK    4  A    between atoms: C_7  and  O_6 
REMARK    5  A    between atoms: C_9  and  C_10 
REMARK    6  A    between atoms: N_15  and  C_14 
REMARK    7  A    between atoms: N_20  and  C_19 
REMARK       I    between atoms: C_22  and  N_20 
ROOT
ATOM      1  C   LIG d   1       1.026  83.516 110.526  0.00  0.00     0.161 C 
ATOM      2  C   LIG d   1       1.703  84.746 110.477  0.00  0.00     0.016 C 
ATOM      3  C   LIG d   1       2.211  85.400 111.623  0.00  0.00     0.038 C 
ATOM      4  C   LIG d   1       2.209  84.791 112.887  0.00  0.00     0.028 C 
ATOM      5  C   LIG d   1       1.088  83.774 113.067  0.00  0.00    -0.047 C 
ATOM      6  C   LIG d   1       1.113  82.783 111.881  0.00  0.00     0.091 C 
ENDROOT
BRANCH   1   7
ATOM      7  O   LIG d   1       1.491  82.660 109.463  0.00  0.00    -0.368 OA
BRANCH   7   8
ATOM      8  C   LIG d   1       2.461  81.650 109.836  0.00  0.00     0.119 C 
BRANCH   8   9
ATOM      9  C   LIG d   1       3.853  82.178 109.440  0.00  0.00     0.028 C 
ATOM     10  C   LIG d   1       4.943  81.773 110.447  0.00  0.00     0.006 C 
ENDBRANCH   8   9
BRANCH   8  11
ATOM     11  C   LIG d   1       2.268  80.366 109.025  0.00  0.00     0.028 C 
ATOM     12  C   LIG d   1       0.791  79.959 108.895  0.00  0.00     0.006 C 
ENDBRANCH   8  11
ENDBRANCH   7   8
ENDBRANCH   1   7
BRANCH   6  13
ATOM     13  N   LIG d   1      -0.005  81.805 111.936  0.00  0.00    -0.311 N 
ATOM     14  C   LIG d   1       0.096  80.609 112.513  0.00  0.00     0.210 C 
ATOM     15  C   LIG d   1      -1.169  79.747 112.440  0.00  0.00     0.109 C 
ATOM     16  O   LIG d   1       1.102  80.191 113.105  0.00  0.00    -0.276 OA
ATOM     17  H   LIG d   1      -0.868  82.074 111.507  0.00  0.00     0.149 HD
ENDBRANCH   6  13
BRANCH   5  18
ATOM     18  N   LIG d   1       1.287  83.118 114.373  0.00  0.00     0.381 N 
ATOM     19  H   LIG d   1       0.440  83.155 114.904  0.00  0.00    -0.090 HD
ATOM     20  H   LIG d   1       1.999  83.613 114.881  0.00  0.00    -0.090 HD
ATOM     21  H   LIG d   1       1.563  82.170 114.240  0.00  0.00    -0.090 HD
ENDBRANCH   5  18
BRANCH   3  22
ATOM     22  C   LIG d   1       2.693  86.696 111.517  0.00  0.00     0.382 C 
ATOM     23  O   LIG d   1       3.923  86.918 111.618  0.00  0.00    -0.241 OA
ATOM     24  O   LIG d   1       1.908  87.652 111.366  0.00  0.00    -0.241 OA
ENDBRANCH   3  22
TORSDOF 7
ENDMDL
MODEL 9
REMARK VINA RESULT:      -5.7      2.506      5.696
REMARK  7 active torsions:
REMARK  status: ('A' for Active; 'I' for Inactive)
REMARK    1  A    between atoms: C_2  and  C_3 
REMARK    2  A    between atoms: C_3  and  O_6 
REMARK    3  A    between atoms: C_3  and  C_4 
REMARK    4  A    between atoms: C_7  and  O_6 
REMARK    5  A    between atoms: C_9  and  C_10 
REMARK    6  A    between atoms: N_15  and  C_14 
REMARK    7  A    between atoms: N_20  and  C_19 
REMARK       I    between atoms: C_22  and  N_20 
ROOT
ATOM      1  C   LIG d   1       0.816  80.596 111.172  0.00  0.00     0.161 C 
ATOM      2  C   LIG d   1       0.734  79.225 110.874  0.00  0.00     0.016 C 
ATOM      3  C   LIG d   1      -0.365  78.414 111.242  0.00  0.00     0.038 C 
ATOM      4  C   LIG d   1      -1.531  78.955 111.803  0.00  0.00     0.028 C 
ATOM      5  C   LIG d   1      -1.288  80.245 112.579  0.00  0.00    -0.047 C 
ATOM      6  C   LIG d   1      -0.495  81.226 111.685  0.00  0.00     0.091 C 
ENDROOT
BRANCH   1   7
ATOM      7  O   LIG d   1       1.303  81.317 110.023  0.00  0.00    -0.368 OA
BRANCH   7   8
ATOM      8  C   LIG d   1       2.643  81.856 110.129  0.00  0.00     0.119 C 
BRANCH   8   9
ATOM      9  C   LIG d   1       2.577  83.343 109.729  0.00  0.00     0.028 C 
ATOM     10  C   LIG d   1       3.341  84.249 110.709  0.00  0.00     0.006 C 
ENDBRANCH   8   9
BRANCH   8  11
ATOM     11  C   LIG d   1       3.588  81.205 109.115  0.00  0.00     0.028 C 
ATOM     12  C   LIG d   1       4.396  80.043 109.714  0.00  0.00     0.006 C 
ENDBRANCH   8  11
ENDBRANCH   7   8
ENDBRANCH   1   7
BRANCH   6  13
ATOM     13  N   LIG d   1      -0.142  82.482 112.397  0.00  0.00    -0.311 N 
ATOM     14  C   LIG d   1      -0.389  83.696 111.908  0.00  0.00     0.210 C 
ATOM     15  C   LIG d   1       0.075  84.857 112.794  0.00  0.00     0.109 C 
ATOM     16  O   LIG d   1      -0.977  83.922 110.840  0.00  0.00    -0.276 OA
ATOM     17  H   LIG d   1       0.311  82.391 113.286  0.00  0.00     0.149 HD
ENDBRANCH   6  13
BRANCH   5  18
ATOM     18  N   LIG d   1      -2.602  80.772 112.991  0.00  0.00     0.381 N 
ATOM     19  H   LIG d   1      -2.483  81.457 113.711  0.00  0.00    -0.090 HD
ATOM     20  H   LIG d   1      -3.153  80.018 113.362  0.00  0.00    -0.090 HD
ATOM     21  H   LIG d   1      -3.067  81.179 112.209  0.00  0.00    -0.090 HD
ENDBRANCH   5  18
BRANCH   3  22
ATOM     22  C   LIG d   1      -0.286  77.039 111.084  0.00  0.00     0.382 C 
ATOM     23  O   LIG d   1      -1.206  76.305 111.518  0.00  0.00    -0.241 OA
ATOM     24  O   LIG d   1       0.714  76.520 110.554  0.00  0.00    -0.241 OA
ENDBRANCH   3  22
TORSDOF 7
ENDMDL
