MODEL 1
REMARK VINA RESULT:      -6.7      0.000      0.000
REMARK  7 active torsions:
REMARK  status: ('A' for Active; 'I' for Inactive)
REMARK    1  A    between atoms: C_2  and  C_3 
REMARK    2  A    between atoms: C_3  and  O_6 
REMARK    3  A    between atoms: C_3  and  C_4 
REMARK    4  A    between atoms: C_7  and  O_6 
REMARK    5  A    between atoms: C_9  and  C_10 
REMARK    6  A    between atoms: N_15  and  C_14 
REMARK    7  A    between atoms: N_20  and  C_19 
REMARK       I    between atoms: C_22  and  N_20 
ROOT
ATOM      1  C   LIG d   1       0.493  82.859 111.336  0.00  0.00     0.161 C 
ATOM      2  C   LIG d   1      -0.721  82.531 111.963  0.00  0.00     0.016 C 
ATOM      3  C   LIG d   1      -1.227  81.213 112.036  0.00  0.00     0.038 C 
ATOM      4  C   LIG d   1      -0.475  80.105 111.618  0.00  0.00     0.028 C 
ATOM      5  C   LIG d   1       0.534  80.437 110.524  0.00  0.00    -0.047 C 
ATOM      6  C   LIG d   1       1.380  81.650 110.972  0.00  0.00     0.091 C 
ENDROOT
BRANCH   1   7
ATOM      7  O   LIG d   1       1.228  83.792 112.153  0.00  0.00    -0.368 OA
BRANCH   7   8
ATOM      8  C   LIG d   1       1.048  85.194 111.837  0.00  0.00     0.119 C 
BRANCH   8   9
ATOM      9  C   LIG d   1       0.850  85.304 110.313  0.00  0.00     0.028 C 
ATOM     10  C   LIG d   1      -0.478  85.985 109.941  0.00  0.00     0.006 C 
ENDBRANCH   8   9
BRANCH   8  11
ATOM     11  C   LIG d   1       2.315  86.000 112.140  0.00  0.00     0.028 C 
ATOM     12  C   LIG d   1       3.413  85.803 111.083  0.00  0.00     0.006 C 
ENDBRANCH   8  11
ENDBRANCH   7   8
ENDBRANCH   1   7
BRANCH   6  13
ATOM     13  N   LIG d   1       2.336  82.093 109.924  0.00  0.00    -0.311 N 
ATOM     14  C   LIG d   1       3.624  82.332 110.160  0.00  0.00     0.210 C 
ATOM     15  C   LIG d   1       4.429  82.799 108.943  0.00  0.00     0.109 C 
ATOM     16  O   LIG d   1       4.184  82.171 111.255  0.00  0.00    -0.276 OA
ATOM     17  H   LIG d   1       1.972  82.219 108.999  0.00  0.00     0.149 HD
ENDBRANCH   6  13
BRANCH   5  18
ATOM     18  N   LIG d   1       1.341  79.226 110.281  0.00  0.00     0.381 N 
ATOM     19  H   LIG d   1       1.781  78.936 111.131  0.00  0.00    -0.090 HD
ATOM     20  H   LIG d   1       2.060  79.444 109.613  0.00  0.00    -0.090 HD
ATOM     21  H   LIG d   1       0.763  78.495 109.931  0.00  0.00    -0.090 HD
ENDBRANCH   5  18
BRANCH   3  22
ATOM     22  C   LIG d   1      -2.517  80.997 112.498  0.00  0.00     0.382 C 
ATOM     23  O   LIG d   1      -3.254  81.973 112.779  0.00  0.00    -0.241 OA
ATOM     24  O   LIG d   1      -2.938  79.839 112.678  0.00  0.00    -0.241 OA
ENDBRANCH   3  22
TORSDOF 7
ENDMDL
MODEL 2
REMARK VINA RESULT:      -5.9      2.255      4.061
REMARK  7 active torsions:
REMARK  status: ('A' for Active; 'I' for Inactive)
REMARK    1  A    between atoms: C_2  and  C_3 
REMARK    2  A    between atoms: C_3  and  O_6 
REMARK    3  A    between atoms: C_3  and  C_4 
REMARK    4  A    between atoms: C_7  and  O_6 
REMARK    5  A    between atoms: C_9  and  C_10 
REMARK    6  A    between atoms: N_15  and  C_14 
REMARK    7  A    between atoms: N_20  and  C_19 
REMARK       I    between atoms: C_22  and  N_20 
ROOT
ATOM      1  C   LIG d   1       2.185  82.660 112.448  0.00  0.00     0.161 C 
ATOM      2  C   LIG d   1       1.283  81.583 112.437  0.00  0.00     0.016 C 
ATOM      3  C   LIG d   1      -0.094  81.723 112.152  0.00  0.00     0.038 C 
ATOM      4  C   LIG d   1      -0.639  82.937 111.707  0.00  0.00     0.028 C 
ATOM      5  C   LIG d   1       0.132  84.161 112.191  0.00  0.00    -0.047 C 
ATOM      6  C   LIG d   1       1.630  83.973 111.857  0.00  0.00     0.091 C 
ENDROOT
BRANCH   1   7
ATOM      7  O   LIG d   1       3.404  82.284 111.777  0.00  0.00    -0.368 OA
BRANCH   7   8
ATOM      8  C   LIG d   1       3.303  82.066 110.348  0.00  0.00     0.119 C 
BRANCH   8   9
ATOM      9  C   LIG d   1       3.788  80.631 110.065  0.00  0.00     0.028 C 
ATOM     10  C   LIG d   1       2.638  79.691 109.664  0.00  0.00     0.006 C 
ENDBRANCH   8   9
BRANCH   8  11
ATOM     11  C   LIG d   1       4.262  82.977 109.576  0.00  0.00     0.028 C 
ATOM     12  C   LIG d   1       4.350  82.622 108.084  0.00  0.00     0.006 C 
ENDBRANCH   8  11
ENDBRANCH   7   8
ENDBRANCH   1   7
BRANCH   6  13
ATOM     13  N   LIG d   1       2.469  85.087 112.371  0.00  0.00    -0.311 N 
ATOM     14  C   LIG d   1       2.779  86.164 111.652  0.00  0.00     0.210 C 
ATOM     15  C   LIG d   1       3.672  87.184 112.365  0.00  0.00     0.109 C 
ATOM     16  O   LIG d   1       2.372  86.387 110.501  0.00  0.00    -0.276 OA
ATOM     17  H   LIG d   1       2.815  85.003 113.307  0.00  0.00     0.149 HD
ENDBRANCH   6  13
BRANCH   5  18
ATOM     18  N   LIG d   1      -0.460  85.346 111.543  0.00  0.00     0.381 N 
ATOM     19  H   LIG d   1      -1.164  85.060 110.892  0.00  0.00    -0.090 HD
ATOM     20  H   LIG d   1       0.258  85.834 111.038  0.00  0.00    -0.090 HD
ATOM     21  H   LIG d   1      -0.859  85.947 112.231  0.00  0.00    -0.090 HD
ENDBRANCH   5  18
BRANCH   3  22
ATOM     22  C   LIG d   1      -0.950  80.650 112.349  0.00  0.00     0.382 C 
ATOM     23  O   LIG d   1      -1.193  79.860 111.405  0.00  0.00    -0.241 OA
ATOM     24  O   LIG d   1      -1.517  80.488 113.446  0.00  0.00    -0.241 OA
ENDBRANCH   3  22
TORSDOF 7
ENDMDL
MODEL 3
REMARK VINA RESULT:      -5.5      1.271      2.053
REMARK  7 active torsions:
REMARK  status: ('A' for Active; 'I' for Inactive)
REMARK    1  A    between atoms: C_2  and  C_3 
REMARK    2  A    between atoms: C_3  and  O_6 
REMARK    3  A    between atoms: C_3  and  C_4 
REMARK    4  A    between atoms: C_7  and  O_6 
REMARK    5  A    between atoms: C_9  and  C_10 
REMARK    6  A    between atoms: N_15  and  C_14 
REMARK    7  A    between atoms: N_20  and  C_19 
REMARK       I    between atoms: C_22  and  N_20 
ROOT
ATOM      1  C   LIG d   1       0.772  82.677 112.148  0.00  0.00     0.161 C 
ATOM      2  C   LIG d   1      -0.533  82.350 112.550  0.00  0.00     0.016 C 
ATOM      3  C   LIG d   1      -1.160  81.123 112.235  0.00  0.00     0.038 C 
ATOM      4  C   LIG d   1      -0.465  80.071 111.620  0.00  0.00     0.028 C 
ATOM      5  C   LIG d   1       0.695  80.540 110.749  0.00  0.00    -0.047 C 
ATOM      6  C   LIG d   1       1.586  81.499 111.572  0.00  0.00     0.091 C 
ENDROOT
BRANCH   1   7
ATOM      7  O   LIG d   1       1.483  83.288 113.243  0.00  0.00    -0.368 OA
BRANCH   7   8
ATOM      8  C   LIG d   1       1.989  84.625 113.007  0.00  0.00     0.119 C 
BRANCH   8   9
ATOM      9  C   LIG d   1       1.757  85.442 114.293  0.00  0.00     0.028 C 
ATOM     10  C   LIG d   1       2.876  86.465 114.548  0.00  0.00     0.006 C 
ENDBRANCH   8   9
BRANCH   8  11
ATOM     11  C   LIG d   1       1.183  85.343 111.920  0.00  0.00     0.028 C 
ATOM     12  C   LIG d   1       2.070  86.136 110.947  0.00  0.00     0.006 C 
ENDBRANCH   8  11
ENDBRANCH   7   8
ENDBRANCH   1   7
BRANCH   6  13
ATOM     13  N   LIG d   1       2.698  82.070 110.768  0.00  0.00    -0.311 N 
ATOM     14  C   LIG d   1       2.517  82.697 109.607  0.00  0.00     0.210 C 
ATOM     15  C   LIG d   1       3.800  83.192 108.932  0.00  0.00     0.109 C 
ATOM     16  O   LIG d   1       1.413  82.917 109.087  0.00  0.00    -0.276 OA
ATOM     17  H   LIG d   1       3.625  81.964 111.132  0.00  0.00     0.149 HD
ENDBRANCH   6  13
BRANCH   5  18
ATOM     18  N   LIG d   1       1.415  79.341 110.281  0.00  0.00     0.381 N 
ATOM     19  H   LIG d   1       1.776  78.835 111.066  0.00  0.00    -0.090 HD
ATOM     20  H   LIG d   1       2.190  79.628 109.709  0.00  0.00    -0.090 HD
ATOM     21  H   LIG d   1       0.802  78.758 109.755  0.00  0.00    -0.090 HD
ENDBRANCH   5  18
BRANCH   3  22
ATOM     22  C   LIG d   1      -2.511  80.953 112.500  0.00  0.00     0.382 C 
ATOM     23  O   LIG d   1      -3.003  79.800 112.535  0.00  0.00    -0.241 OA
ATOM     24  O   LIG d   1      -3.252  81.941 112.660  0.00  0.00    -0.241 OA
ENDBRANCH   3  22
TORSDOF 7
ENDMDL
MODEL 4
REMARK VINA RESULT:      -5.4      2.369      3.964
REMARK  7 active torsions:
REMARK  status: ('A' for Active; 'I' for Inactive)
REMARK    1  A    between atoms: C_2  and  C_3 
REMARK    2  A    between atoms: C_3  and  O_6 
REMARK    3  A    between atoms: C_3  and  C_4 
REMARK    4  A    between atoms: C_7  and  O_6 
REMARK    5  A    between atoms: C_9  and  C_10 
REMARK    6  A    between atoms: N_15  and  C_14 
REMARK    7  A    between atoms: N_20  and  C_19 
REMARK       I    between atoms: C_22  and  N_20 
ROOT
ATOM      1  C   LIG d   1       1.231  82.099 112.218  0.00  0.00     0.161 C 
ATOM      2  C   LIG d   1       0.237  81.150 111.928  0.00  0.00     0.016 C 
ATOM      3  C   LIG d   1      -1.091  81.245 112.404  0.00  0.00     0.038 C 
ATOM      4  C   LIG d   1      -1.557  82.382 113.081  0.00  0.00     0.028 C 
ATOM      5  C   LIG d   1      -0.461  83.132 113.830  0.00  0.00    -0.047 C 
ATOM      6  C   LIG d   1       0.714  83.402 112.863  0.00  0.00     0.091 C 
ENDROOT
BRANCH   1   7
ATOM      7  O   LIG d   1       1.987  82.395 111.027  0.00  0.00    -0.368 OA
BRANCH   7   8
ATOM      8  C   LIG d   1       3.386  82.019 111.049  0.00  0.00     0.119 C 
BRANCH   8   9
ATOM      9  C   LIG d   1       4.207  83.271 110.685  0.00  0.00     0.028 C 
ATOM     10  C   LIG d   1       3.374  84.319 109.927  0.00  0.00     0.006 C 
ENDBRANCH   8   9
BRANCH   8  11
ATOM     11  C   LIG d   1       3.705  80.993 109.958  0.00  0.00     0.028 C 
ATOM     12  C   LIG d   1       2.532  80.767 108.991  0.00  0.00     0.006 C 
ENDBRANCH   8  11
ENDBRANCH   7   8
ENDBRANCH   1   7
BRANCH   6  13
ATOM     13  N   LIG d   1       1.865  84.058 113.537  0.00  0.00    -0.311 N 
ATOM     14  C   LIG d   1       2.232  85.316 113.302  0.00  0.00     0.210 C 
ATOM     15  C   LIG d   1       3.458  85.790 114.089  0.00  0.00     0.109 C 
ATOM     16  O   LIG d   1       1.641  86.095 112.540  0.00  0.00    -0.276 OA
ATOM     17  H   LIG d   1       2.382  83.508 114.195  0.00  0.00     0.149 HD
ENDBRANCH   6  13
BRANCH   5  18
ATOM     18  N   LIG d   1      -1.057  84.367 114.375  0.00  0.00     0.381 N 
ATOM     19  H   LIG d   1      -0.371  84.872 114.899  0.00  0.00    -0.090 HD
ATOM     20  H   LIG d   1      -1.808  84.119 114.995  0.00  0.00    -0.090 HD
ATOM     21  H   LIG d   1      -1.403  84.934 113.632  0.00  0.00    -0.090 HD
ENDBRANCH   5  18
BRANCH   3  22
ATOM     22  C   LIG d   1      -1.959  80.177 112.237  0.00  0.00     0.382 C 
ATOM     23  O   LIG d   1      -1.730  79.316 111.354  0.00  0.00    -0.241 OA
ATOM     24  O   LIG d   1      -2.991  80.087 112.928  0.00  0.00    -0.241 OA
ENDBRANCH   3  22
TORSDOF 7
ENDMDL
MODEL 5
REMARK VINA RESULT:      -5.2      2.252      5.436
REMARK  7 active torsions:
REMARK  status: ('A' for Active; 'I' for Inactive)
REMARK    1  A    between atoms: C_2  and  C_3 
REMARK    2  A    between atoms: C_3  and  O_6 
REMARK    3  A    between atoms: C_3  and  C_4 
REMARK    4  A    between atoms: C_7  and  O_6 
REMARK    5  A    between atoms: C_9  and  C_10 
REMARK    6  A    between atoms: N_15  and  C_14 
REMARK    7  A    between atoms: N_20  and  C_19 
REMARK       I    between atoms: C_22  and  N_20 
ROOT
ATOM      1  C   LIG d   1       0.527  81.992 110.874  0.00  0.00     0.161 C 
ATOM      2  C   LIG d   1       1.383  80.912 110.604  0.00  0.00     0.016 C 
ATOM      3  C   LIG d   1       2.680  81.064 110.060  0.00  0.00     0.038 C 
ATOM      4  C   LIG d   1       3.269  82.325 109.890  0.00  0.00     0.028 C 
ATOM      5  C   LIG d   1       2.254  83.444 109.676  0.00  0.00    -0.047 C 
ATOM      6  C   LIG d   1       1.194  83.381 110.799  0.00  0.00     0.091 C 
ENDROOT
BRANCH   1   7
ATOM      7  O   LIG d   1      -0.102  81.807 112.158  0.00  0.00    -0.368 OA
BRANCH   7   8
ATOM      8  C   LIG d   1      -1.504  81.441 112.134  0.00  0.00     0.119 C 
BRANCH   8   9
ATOM      9  C   LIG d   1      -2.151  82.002 113.416  0.00  0.00     0.028 C 
ATOM     10  C   LIG d   1      -1.270  83.059 114.104  0.00  0.00     0.006 C 
ENDBRANCH   8   9
BRANCH   8  11
ATOM     11  C   LIG d   1      -1.686  79.923 112.219  0.00  0.00     0.028 C 
ATOM     12  C   LIG d   1      -2.442  79.483 113.483  0.00  0.00     0.006 C 
ENDBRANCH   8  11
ENDBRANCH   7   8
ENDBRANCH   1   7
BRANCH   6  13
ATOM     13  N   LIG d   1       0.116  84.388 110.618  0.00  0.00    -0.311 N 
ATOM     14  C   LIG d   1       0.160  85.611 111.144  0.00  0.00     0.210 C 
ATOM     15  C   LIG d   1      -1.064  86.485 110.852  0.00  0.00     0.109 C 
ATOM     16  O   LIG d   1       1.110  86.066 111.798  0.00  0.00    -0.276 OA
ATOM     17  H   LIG d   1      -0.679  84.113 110.074  0.00  0.00     0.149 HD
ENDBRANCH   6  13
BRANCH   5  18
ATOM     18  N   LIG d   1       2.995  84.719 109.651  0.00  0.00     0.381 N 
ATOM     19  H   LIG d   1       2.357  85.483 109.748  0.00  0.00    -0.090 HD
ATOM     20  H   LIG d   1       3.461  84.807 108.765  0.00  0.00    -0.090 HD
ATOM     21  H   LIG d   1       3.664  84.739 110.389  0.00  0.00    -0.090 HD
ENDBRANCH   5  18
BRANCH   3  22
ATOM     22  C   LIG d   1       3.386  79.945 109.644  0.00  0.00     0.382 C 
ATOM     23  O   LIG d   1       2.861  78.808 109.721  0.00  0.00    -0.241 OA
ATOM     24  O   LIG d   1       4.556  80.054 109.233  0.00  0.00    -0.241 OA
ENDBRANCH   3  22
TORSDOF 7
ENDMDL
MODEL 6
REMARK VINA RESULT:      -5.1      2.302      3.942
REMARK  7 active torsions:
REMARK  status: ('A' for Active; 'I' for Inactive)
REMARK    1  A    between atoms: C_2  and  C_3 
REMARK    2  A    between atoms: C_3  and  O_6 
REMARK    3  A    between atoms: C_3  and  C_4 
REMARK    4  A    between atoms: C_7  and  O_6 
REMARK    5  A    between atoms: C_9  and  C_10 
REMARK    6  A    between atoms: N_15  and  C_14 
REMARK    7  A    between atoms: N_20  and  C_19 
REMARK       I    between atoms: C_22  and  N_20 
ROOT
ATOM      1  C   LIG d   1       1.304  82.167 112.340  0.00  0.00     0.161 C 
ATOM      2  C   LIG d   1       0.312  81.234 111.993  0.00  0.00     0.016 C 
ATOM      3  C   LIG d   1      -1.036  81.342 112.406  0.00  0.00     0.038 C 
ATOM      4  C   LIG d   1      -1.519  82.479 113.071  0.00  0.00     0.028 C 
ATOM      5  C   LIG d   1      -0.450  83.207 113.879  0.00  0.00    -0.047 C 
ATOM      6  C   LIG d   1       0.773  83.471 112.971  0.00  0.00     0.091 C 
ENDROOT
BRANCH   1   7
ATOM      7  O   LIG d   1       2.119  82.464 111.188  0.00  0.00    -0.368 OA
BRANCH   7   8
ATOM      8  C   LIG d   1       1.469  82.344 109.899  0.00  0.00     0.119 C 
BRANCH   8   9
ATOM      9  C   LIG d   1       2.215  81.255 109.104  0.00  0.00     0.028 C 
ATOM     10  C   LIG d   1       3.668  81.077 109.575  0.00  0.00     0.006 C 
ENDBRANCH   8   9
BRANCH   8  11
ATOM     11  C   LIG d   1       1.623  83.626 109.076  0.00  0.00     0.028 C 
ATOM     12  C   LIG d   1       0.716  84.764 109.569  0.00  0.00     0.006 C 
ENDBRANCH   8  11
ENDBRANCH   7   8
ENDBRANCH   1   7
BRANCH   6  13
ATOM     13  N   LIG d   1       1.898  84.105 113.706  0.00  0.00    -0.311 N 
ATOM     14  C   LIG d   1       2.290  85.362 113.504  0.00  0.00     0.210 C 
ATOM     15  C   LIG d   1       3.483  85.812 114.353  0.00  0.00     0.109 C 
ATOM     16  O   LIG d   1       1.742  86.157 112.726  0.00  0.00    -0.276 OA
ATOM     17  H   LIG d   1       2.379  83.541 114.380  0.00  0.00     0.149 HD
ENDBRANCH   6  13
BRANCH   5  18
ATOM     18  N   LIG d   1      -1.056  84.445 114.406  0.00  0.00     0.381 N 
ATOM     19  H   LIG d   1      -0.628  84.687 115.278  0.00  0.00    -0.090 HD
ATOM     20  H   LIG d   1      -2.034  84.284 114.569  0.00  0.00    -0.090 HD
ATOM     21  H   LIG d   1      -0.938  85.187 113.753  0.00  0.00    -0.090 HD
ENDBRANCH   5  18
BRANCH   3  22
ATOM     22  C   LIG d   1      -1.908  80.287 112.187  0.00  0.00     0.382 C 
ATOM     23  O   LIG d   1      -1.630  79.410 111.334  0.00  0.00    -0.241 OA
ATOM     24  O   LIG d   1      -2.990  80.224 112.801  0.00  0.00    -0.241 OA
ENDBRANCH   3  22
TORSDOF 7
ENDMDL
MODEL 7
REMARK VINA RESULT:      -4.8      2.902      4.811
REMARK  7 active torsions:
REMARK  status: ('A' for Active; 'I' for Inactive)
REMARK    1  A    between atoms: C_2  and  C_3 
REMARK    2  A    between atoms: C_3  and  O_6 
REMARK    3  A    between atoms: C_3  and  C_4 
REMARK    4  A    between atoms: C_7  and  O_6 
REMARK    5  A    between atoms: C_9  and  C_10 
REMARK    6  A    between atoms: N_15  and  C_14 
REMARK    7  A    between atoms: N_20  and  C_19 
REMARK       I    between atoms: C_22  and  N_20 
ROOT
ATOM      1  C   LIG d   1       2.057  83.039 111.183  0.00  0.00     0.161 C 
ATOM      2  C   LIG d   1       2.504  81.714 111.042  0.00  0.00     0.016 C 
ATOM      3  C   LIG d   1       2.703  81.089 109.789  0.00  0.00     0.038 C 
ATOM      4  C   LIG d   1       2.613  81.801 108.584  0.00  0.00     0.028 C 
ATOM      5  C   LIG d   1       1.676  83.002 108.657  0.00  0.00    -0.047 C 
ATOM      6  C   LIG d   1       2.061  83.865 109.880  0.00  0.00     0.091 C 
ENDROOT
BRANCH   1   7
ATOM      7  O   LIG d   1       2.827  83.707 112.203  0.00  0.00    -0.368 OA
BRANCH   7   8
ATOM      8  C   LIG d   1       2.067  84.337 113.264  0.00  0.00     0.119 C 
BRANCH   8   9
ATOM      9  C   LIG d   1       2.915  84.259 114.548  0.00  0.00     0.028 C 
ATOM     10  C   LIG d   1       4.347  84.778 114.339  0.00  0.00     0.006 C 
ENDBRANCH   8   9
BRANCH   8  11
ATOM     11  C   LIG d   1       0.788  83.555 113.574  0.00  0.00     0.028 C 
ATOM     12  C   LIG d   1       1.023  82.390 114.549  0.00  0.00     0.006 C 
ENDBRANCH   8  11
ENDBRANCH   7   8
ENDBRANCH   1   7
BRANCH   6  13
ATOM     13  N   LIG d   1       1.141  85.015 110.074  0.00  0.00    -0.311 N 
ATOM     14  C   LIG d   1      -0.171  84.881 110.262  0.00  0.00     0.210 C 
ATOM     15  C   LIG d   1      -0.939  86.197 110.421  0.00  0.00     0.109 C 
ATOM     16  O   LIG d   1      -0.766  83.797 110.344  0.00  0.00    -0.276 OA
ATOM     17  H   LIG d   1       1.545  85.931 110.054  0.00  0.00     0.149 HD
ENDBRANCH   6  13
BRANCH   5  18
ATOM     18  N   LIG d   1       1.784  83.730 107.379  0.00  0.00     0.381 N 
ATOM     19  H   LIG d   1       0.934  83.629 106.859  0.00  0.00    -0.090 HD
ATOM     20  H   LIG d   1       2.532  83.331 106.840  0.00  0.00    -0.090 HD
ATOM     21  H   LIG d   1       1.965  84.694 107.550  0.00  0.00    -0.090 HD
ENDBRANCH   5  18
BRANCH   3  22
ATOM     22  C   LIG d   1       2.956  79.727 109.733  0.00  0.00     0.382 C 
ATOM     23  O   LIG d   1       2.058  78.909 110.044  0.00  0.00    -0.241 OA
ATOM     24  O   LIG d   1       4.086  79.308 109.419  0.00  0.00    -0.241 OA
ENDBRANCH   3  22
TORSDOF 7
ENDMDL
MODEL 8
REMARK VINA RESULT:      -4.6      1.957      2.299
REMARK  7 active torsions:
REMARK  status: ('A' for Active; 'I' for Inactive)
REMARK    1  A    between atoms: C_2  and  C_3 
REMARK    2  A    between atoms: C_3  and  O_6 
REMARK    3  A    between atoms: C_3  and  C_4 
REMARK    4  A    between atoms: C_7  and  O_6 
REMARK    5  A    between atoms: C_9  and  C_10 
REMARK    6  A    between atoms: N_15  and  C_14 
REMARK    7  A    between atoms: N_20  and  C_19 
REMARK       I    between atoms: C_22  and  N_20 
ROOT
ATOM      1  C   LIG d   1       0.378  82.157 112.781  0.00  0.00     0.161 C 
ATOM      2  C   LIG d   1      -0.776  81.475 113.201  0.00  0.00     0.016 C 
ATOM      3  C   LIG d   1      -1.247  80.292 112.588  0.00  0.00     0.038 C 
ATOM      4  C   LIG d   1      -0.508  79.623 111.601  0.00  0.00     0.028 C 
ATOM      5  C   LIG d   1       0.405  80.545 110.799  0.00  0.00    -0.047 C 
ATOM      6  C   LIG d   1       1.258  81.382 111.778  0.00  0.00     0.091 C 
ENDROOT
BRANCH   1   7
ATOM      7  O   LIG d   1       1.155  82.555 113.927  0.00  0.00    -0.368 OA
BRANCH   7   8
ATOM      8  C   LIG d   1       1.196  83.976 114.208  0.00  0.00     0.119 C 
BRANCH   8   9
ATOM      9  C   LIG d   1       0.036  84.634 113.435  0.00  0.00     0.028 C 
ATOM     10  C   LIG d   1      -1.062  85.171 114.369  0.00  0.00     0.006 C 
ENDBRANCH   8   9
BRANCH   8  11
ATOM     11  C   LIG d   1       2.470  84.618 113.650  0.00  0.00     0.028 C 
ATOM     12  C   LIG d   1       3.693  84.399 114.555  0.00  0.00     0.006 C 
ENDBRANCH   8  11
ENDBRANCH   7   8
ENDBRANCH   1   7
BRANCH   6  13
ATOM     13  N   LIG d   1       2.119  82.371 111.077  0.00  0.00    -0.311 N 
ATOM     14  C   LIG d   1       1.642  83.313 110.266  0.00  0.00     0.210 C 
ATOM     15  C   LIG d   1       2.703  84.217 109.630  0.00  0.00     0.109 C 
ATOM     16  O   LIG d   1       0.438  83.507 110.037  0.00  0.00    -0.276 OA
ATOM     17  H   LIG d   1       3.106  82.306 111.231  0.00  0.00     0.149 HD
ENDBRANCH   6  13
BRANCH   5  18
ATOM     18  N   LIG d   1       1.216  79.700 109.902  0.00  0.00     0.381 N 
ATOM     19  H   LIG d   1       0.618  79.100 109.370  0.00  0.00    -0.090 HD
ATOM     20  H   LIG d   1       1.824  79.125 110.459  0.00  0.00    -0.090 HD
ATOM     21  H   LIG d   1       1.755  80.271 109.290  0.00  0.00    -0.090 HD
ENDBRANCH   5  18
BRANCH   3  22
ATOM     22  C   LIG d   1      -2.492  79.787 112.933  0.00  0.00     0.382 C 
ATOM     23  O   LIG d   1      -3.104  80.252 113.925  0.00  0.00    -0.241 OA
ATOM     24  O   LIG d   1      -2.990  78.842 112.293  0.00  0.00    -0.241 OA
ENDBRANCH   3  22
TORSDOF 7
ENDMDL
MODEL 9
REMARK VINA RESULT:      -4.2     29.287     31.467
REMARK  7 active torsions:
REMARK  status: ('A' for Active; 'I' for Inactive)
REMARK    1  A    between atoms: C_2  and  C_3 
REMARK    2  A    between atoms: C_3  and  O_6 
REMARK    3  A    between atoms: C_3  and  C_4 
REMARK    4  A    between atoms: C_7  and  O_6 
REMARK    5  A    between atoms: C_9  and  C_10 
REMARK    6  A    between atoms: N_15  and  C_14 
REMARK    7  A    between atoms: N_20  and  C_19 
REMARK       I    between atoms: C_22  and  N_20 
ROOT
ATOM      1  C   LIG d   1     -12.497  54.075 109.944  0.00  0.00     0.161 C 
ATOM      2  C   LIG d   1     -11.247  54.207 109.317  0.00  0.00     0.016 C 
ATOM      3  C   LIG d   1     -11.089  54.357 107.920  0.00  0.00     0.038 C 
ATOM      4  C   LIG d   1     -12.186  54.539 107.065  0.00  0.00     0.028 C 
ATOM      5  C   LIG d   1     -13.472  53.908 107.588  0.00  0.00    -0.047 C 
ATOM      6  C   LIG d   1     -13.710  54.382 109.040  0.00  0.00     0.091 C 
ENDROOT
BRANCH   1   7
ATOM      7  O   LIG d   1     -12.538  54.892 111.131  0.00  0.00    -0.368 OA
BRANCH   7   8
ATOM      8  C   LIG d   1     -12.848  56.293 110.930  0.00  0.00     0.119 C 
BRANCH   8   9
ATOM      9  C   LIG d   1     -11.695  57.115 111.538  0.00  0.00     0.028 C 
ATOM     10  C   LIG d   1     -10.799  56.273 112.463  0.00  0.00     0.006 C 
ENDBRANCH   8   9
BRANCH   8  11
ATOM     11  C   LIG d   1     -14.098  56.705 111.714  0.00  0.00     0.028 C 
ATOM     12  C   LIG d   1     -14.499  55.673 112.780  0.00  0.00     0.006 C 
ENDBRANCH   8  11
ENDBRANCH   7   8
ENDBRANCH   1   7
BRANCH   6  13
ATOM     13  N   LIG d   1     -14.903  53.745 109.656  0.00  0.00    -0.311 N 
ATOM     14  C   LIG d   1     -16.110  54.308 109.669  0.00  0.00     0.210 C 
ATOM     15  C   LIG d   1     -17.197  53.491 110.374  0.00  0.00     0.109 C 
ATOM     16  O   LIG d   1     -16.391  55.392 109.135  0.00  0.00    -0.276 OA
ATOM     17  H   LIG d   1     -14.772  52.850 110.085  0.00  0.00     0.149 HD
ENDBRANCH   6  13
BRANCH   5  18
ATOM     18  N   LIG d   1     -14.562  54.290 106.670  0.00  0.00     0.381 N 
ATOM     19  H   LIG d   1     -14.902  53.479 106.192  0.00  0.00    -0.090 HD
ATOM     20  H   LIG d   1     -14.200  54.931 105.985  0.00  0.00    -0.090 HD
ATOM     21  H   LIG d   1     -15.302  54.719 107.179  0.00  0.00    -0.090 HD
ENDBRANCH   5  18
BRANCH   3  22
ATOM     22  C   LIG d   1      -9.822  54.287 107.361  0.00  0.00     0.382 C 
ATOM     23  O   LIG d   1      -8.818  54.606 108.041  0.00  0.00    -0.241 OA
ATOM     24  O   LIG d   1      -9.676  53.953 106.170  0.00  0.00    -0.241 OA
ENDBRANCH   3  22
TORSDOF 7
ENDMDL
