MODEL 1
REMARK VINA RESULT:      -6.5      0.000      0.000
REMARK  7 active torsions:
REMARK  status: ('A' for Active; 'I' for Inactive)
REMARK    1  A    between atoms: C_2  and  C_3 
REMARK    2  A    between atoms: C_3  and  O_6 
REMARK    3  A    between atoms: C_3  and  C_4 
REMARK    4  A    between atoms: C_7  and  O_6 
REMARK    5  A    between atoms: C_9  and  C_10 
REMARK    6  A    between atoms: N_15  and  C_14 
REMARK    7  A    between atoms: N_20  and  C_19 
REMARK       I    between atoms: C_22  and  N_20 
ROOT
ATOM      1  C   LIG d   1       0.332  82.048 111.397  0.00  0.00     0.161 C 
ATOM      2  C   LIG d   1      -0.813  81.805 112.173  0.00  0.00     0.016 C 
ATOM      3  C   LIG d   1      -1.347  80.514 112.390  0.00  0.00     0.038 C 
ATOM      4  C   LIG d   1      -0.679  79.355 111.967  0.00  0.00     0.028 C 
ATOM      5  C   LIG d   1       0.211  79.579 110.749  0.00  0.00    -0.047 C 
ATOM      6  C   LIG d   1       1.137  80.787 111.020  0.00  0.00     0.091 C 
ENDROOT
BRANCH   1   7
ATOM      7  O   LIG d   1       1.181  83.003 112.064  0.00  0.00    -0.368 OA
BRANCH   7   8
ATOM      8  C   LIG d   1       1.253  84.320 111.464  0.00  0.00     0.119 C 
BRANCH   8   9
ATOM      9  C   LIG d   1       0.640  85.319 112.465  0.00  0.00     0.028 C 
ATOM     10  C   LIG d   1      -0.853  85.575 112.199  0.00  0.00     0.006 C 
ENDBRANCH   8   9
BRANCH   8  11
ATOM     11  C   LIG d   1       0.376  84.411 110.212  0.00  0.00     0.028 C 
ATOM     12  C   LIG d   1       1.181  84.728 108.942  0.00  0.00     0.006 C 
ENDBRANCH   8  11
ENDBRANCH   7   8
ENDBRANCH   1   7
BRANCH   6  13
ATOM     13  N   LIG d   1       1.983  81.127 109.846  0.00  0.00    -0.311 N 
ATOM     14  C   LIG d   1       3.286  81.386 109.932  0.00  0.00     0.210 C 
ATOM     15  C   LIG d   1       3.965  81.735 108.603  0.00  0.00     0.109 C 
ATOM     16  O   LIG d   1       3.951  81.329 110.977  0.00  0.00    -0.276 OA
ATOM     17  H   LIG d   1       1.530  81.165 108.953  0.00  0.00     0.149 HD
ENDBRANCH   6  13
BRANCH   5  18
ATOM     18  N   LIG d   1       0.951  78.327 110.501  0.00  0.00     0.381 N 
ATOM     19  H   LIG d   1       1.098  77.845 111.364  0.00  0.00    -0.090 HD
ATOM     20  H   LIG d   1       1.848  78.552 110.108  0.00  0.00    -0.090 HD
ATOM     21  H   LIG d   1       0.440  77.749 109.871  0.00  0.00    -0.090 HD
ENDBRANCH   5  18
BRANCH   3  22
ATOM     22  C   LIG d   1      -2.583  80.375 113.002  0.00  0.00     0.382 C 
ATOM     23  O   LIG d   1      -2.813  79.381 113.733  0.00  0.00    -0.241 OA
ATOM     24  O   LIG d   1      -3.486  81.208 112.799  0.00  0.00    -0.241 OA
ENDBRANCH   3  22
TORSDOF 7
ENDMDL
MODEL 2
REMARK VINA RESULT:      -6.4      1.962      4.692
REMARK  7 active torsions:
REMARK  status: ('A' for Active; 'I' for Inactive)
REMARK    1  A    between atoms: C_2  and  C_3 
REMARK    2  A    between atoms: C_3  and  O_6 
REMARK    3  A    between atoms: C_3  and  C_4 
REMARK    4  A    between atoms: C_7  and  O_6 
REMARK    5  A    between atoms: C_9  and  C_10 
REMARK    6  A    between atoms: N_15  and  C_14 
REMARK    7  A    between atoms: N_20  and  C_19 
REMARK       I    between atoms: C_22  and  N_20 
ROOT
ATOM      1  C   LIG d   1       1.464  82.241 111.625  0.00  0.00     0.161 C 
ATOM      2  C   LIG d   1       2.098  82.668 110.447  0.00  0.00     0.016 C 
ATOM      3  C   LIG d   1       1.956  82.010 109.204  0.00  0.00     0.038 C 
ATOM      4  C   LIG d   1       1.043  80.961 109.021  0.00  0.00     0.028 C 
ATOM      5  C   LIG d   1       0.760  80.175 110.296  0.00  0.00    -0.047 C 
ATOM      6  C   LIG d   1       0.377  81.164 111.421  0.00  0.00     0.091 C 
ENDROOT
BRANCH   1   7
ATOM      7  O   LIG d   1       0.918  83.376 112.326  0.00  0.00    -0.368 OA
BRANCH   7   8
ATOM      8  C   LIG d   1       0.724  84.577 111.540  0.00  0.00     0.119 C 
BRANCH   8   9
ATOM      9  C   LIG d   1       1.189  85.771 112.396  0.00  0.00     0.028 C 
ATOM     10  C   LIG d   1       2.041  86.770 111.596  0.00  0.00     0.006 C 
ENDBRANCH   8   9
BRANCH   8  11
ATOM     11  C   LIG d   1      -0.762  84.829 111.266  0.00  0.00     0.028 C 
ATOM     12  C   LIG d   1      -1.001  85.654 109.992  0.00  0.00     0.006 C 
ENDBRANCH   8  11
ENDBRANCH   7   8
ENDBRANCH   1   7
BRANCH   6  13
ATOM     13  N   LIG d   1       0.166  80.485 112.726  0.00  0.00    -0.311 N 
ATOM     14  C   LIG d   1      -1.023  80.052 113.143  0.00  0.00     0.210 C 
ATOM     15  C   LIG d   1      -1.023  79.397 114.528  0.00  0.00     0.109 C 
ATOM     16  O   LIG d   1      -2.071  80.118 112.483  0.00  0.00    -0.276 OA
ATOM     17  H   LIG d   1       0.969  80.362 113.311  0.00  0.00     0.149 HD
ENDBRANCH   6  13
BRANCH   5  18
ATOM     18  N   LIG d   1      -0.308  79.203 109.994  0.00  0.00     0.381 N 
ATOM     19  H   LIG d   1      -0.788  79.476 109.159  0.00  0.00    -0.090 HD
ATOM     20  H   LIG d   1      -0.969  79.199 110.751  0.00  0.00    -0.090 HD
ATOM     21  H   LIG d   1       0.082  78.293 109.879  0.00  0.00    -0.090 HD
ENDBRANCH   5  18
BRANCH   3  22
ATOM     22  C   LIG d   1       2.761  82.376 108.136  0.00  0.00     0.382 C 
ATOM     23  O   LIG d   1       2.246  82.848 107.094  0.00  0.00    -0.241 OA
ATOM     24  O   LIG d   1       3.993  82.198 108.185  0.00  0.00    -0.241 OA
ENDBRANCH   3  22
TORSDOF 7
ENDMDL
MODEL 3
REMARK VINA RESULT:      -6.0      2.367      5.708
REMARK  7 active torsions:
REMARK  status: ('A' for Active; 'I' for Inactive)
REMARK    1  A    between atoms: C_2  and  C_3 
REMARK    2  A    between atoms: C_3  and  O_6 
REMARK    3  A    between atoms: C_3  and  C_4 
REMARK    4  A    between atoms: C_7  and  O_6 
REMARK    5  A    between atoms: C_9  and  C_10 
REMARK    6  A    between atoms: N_15  and  C_14 
REMARK    7  A    between atoms: N_20  and  C_19 
REMARK       I    between atoms: C_22  and  N_20 
ROOT
ATOM      1  C   LIG d   1       2.782  83.640 110.632  0.00  0.00     0.161 C 
ATOM      2  C   LIG d   1       3.091  84.942 111.060  0.00  0.00     0.016 C 
ATOM      3  C   LIG d   1       2.179  85.770 111.754  0.00  0.00     0.038 C 
ATOM      4  C   LIG d   1       0.938  85.294 112.202  0.00  0.00     0.028 C 
ATOM      5  C   LIG d   1       0.385  84.153 111.354  0.00  0.00    -0.047 C 
ATOM      6  C   LIG d   1       1.472  83.064 111.209  0.00  0.00     0.091 C 
ENDROOT
BRANCH   1   7
ATOM      7  O   LIG d   1       3.886  82.757 110.916  0.00  0.00    -0.368 OA
BRANCH   7   8
ATOM      8  C   LIG d   1       4.614  82.258 109.767  0.00  0.00     0.119 C 
BRANCH   8   9
ATOM      9  C   LIG d   1       4.009  82.918 108.513  0.00  0.00     0.028 C 
ATOM     10  C   LIG d   1       3.206  81.923 107.657  0.00  0.00     0.006 C 
ENDBRANCH   8   9
BRANCH   8  11
ATOM     11  C   LIG d   1       4.396  80.754 109.580  0.00  0.00     0.028 C 
ATOM     12  C   LIG d   1       4.009  80.041 110.885  0.00  0.00     0.006 C 
ENDBRANCH   8  11
ENDBRANCH   7   8
ENDBRANCH   1   7
BRANCH   6  13
ATOM     13  N   LIG d   1       1.043  81.949 110.324  0.00  0.00    -0.311 N 
ATOM     14  C   LIG d   1       0.547  80.801 110.780  0.00  0.00     0.210 C 
ATOM     15  C   LIG d   1       0.186  79.778 109.699  0.00  0.00     0.109 C 
ATOM     16  O   LIG d   1       0.341  80.544 111.976  0.00  0.00    -0.276 OA
ATOM     17  H   LIG d   1       1.146  82.085 109.338  0.00  0.00     0.149 HD
ENDBRANCH   6  13
BRANCH   5  18
ATOM     18  N   LIG d   1      -0.841  83.663 112.012  0.00  0.00     0.381 N 
ATOM     19  H   LIG d   1      -1.594  84.299 111.842  0.00  0.00    -0.090 HD
ATOM     20  H   LIG d   1      -0.682  83.620 113.003  0.00  0.00    -0.090 HD
ATOM     21  H   LIG d   1      -1.075  82.759 111.666  0.00  0.00    -0.090 HD
ENDBRANCH   5  18
BRANCH   3  22
ATOM     22  C   LIG d   1       2.490  87.104 111.971  0.00  0.00     0.382 C 
ATOM     23  O   LIG d   1       1.575  87.961 112.023  0.00  0.00    -0.241 OA
ATOM     24  O   LIG d   1       3.678  87.468 112.071  0.00  0.00    -0.241 OA
ENDBRANCH   3  22
TORSDOF 7
ENDMDL
MODEL 4
REMARK VINA RESULT:      -5.7      1.798      2.440
REMARK  7 active torsions:
REMARK  status: ('A' for Active; 'I' for Inactive)
REMARK    1  A    between atoms: C_2  and  C_3 
REMARK    2  A    between atoms: C_3  and  O_6 
REMARK    3  A    between atoms: C_3  and  C_4 
REMARK    4  A    between atoms: C_7  and  O_6 
REMARK    5  A    between atoms: C_9  and  C_10 
REMARK    6  A    between atoms: N_15  and  C_14 
REMARK    7  A    between atoms: N_20  and  C_19 
REMARK       I    between atoms: C_22  and  N_20 
ROOT
ATOM      1  C   LIG d   1       0.454  82.298 110.869  0.00  0.00     0.161 C 
ATOM      2  C   LIG d   1       0.025  81.522 111.959  0.00  0.00     0.016 C 
ATOM      3  C   LIG d   1      -0.062  80.112 111.924  0.00  0.00     0.038 C 
ATOM      4  C   LIG d   1       0.421  79.366 110.838  0.00  0.00     0.028 C 
ATOM      5  C   LIG d   1       0.394  80.129 109.518  0.00  0.00    -0.047 C 
ATOM      6  C   LIG d   1       1.090  81.495 109.715  0.00  0.00     0.091 C 
ENDROOT
BRANCH   1   7
ATOM      7  O   LIG d   1       1.359  83.323 111.324  0.00  0.00    -0.368 OA
BRANCH   7   8
ATOM      8  C   LIG d   1       1.184  84.635 110.736  0.00  0.00     0.119 C 
BRANCH   8   9
ATOM      9  C   LIG d   1       2.583  85.173 110.379  0.00  0.00     0.028 C 
ATOM     10  C   LIG d   1       3.706  84.201 110.781  0.00  0.00     0.006 C 
ENDBRANCH   8   9
BRANCH   8  11
ATOM     11  C   LIG d   1       0.614  85.630 111.751  0.00  0.00     0.028 C 
ATOM     12  C   LIG d   1       1.363  86.972 111.756  0.00  0.00     0.006 C 
ENDBRANCH   8  11
ENDBRANCH   7   8
ENDBRANCH   1   7
BRANCH   6  13
ATOM     13  N   LIG d   1       1.034  82.341 108.494  0.00  0.00    -0.311 N 
ATOM     14  C   LIG d   1       2.098  82.615 107.742  0.00  0.00     0.210 C 
ATOM     15  C   LIG d   1       1.824  83.523 106.539  0.00  0.00     0.109 C 
ATOM     16  O   LIG d   1       3.238  82.168 107.939  0.00  0.00    -0.276 OA
ATOM     17  H   LIG d   1       0.142  82.720 108.242  0.00  0.00     0.149 HD
ENDBRANCH   6  13
BRANCH   5  18
ATOM     18  N   LIG d   1       1.050  79.286 108.502  0.00  0.00     0.381 N 
ATOM     19  H   LIG d   1       1.541  78.537 108.949  0.00  0.00    -0.090 HD
ATOM     20  H   LIG d   1       1.717  79.843 107.998  0.00  0.00    -0.090 HD
ATOM     21  H   LIG d   1       0.371  78.919 107.873  0.00  0.00    -0.090 HD
ENDBRANCH   5  18
BRANCH   3  22
ATOM     22  C   LIG d   1      -0.675  79.435 112.967  0.00  0.00     0.382 C 
ATOM     23  O   LIG d   1      -0.869  78.198 112.884  0.00  0.00    -0.241 OA
ATOM     24  O   LIG d   1      -1.076  80.053 113.972  0.00  0.00    -0.241 OA
ENDBRANCH   3  22
TORSDOF 7
ENDMDL
MODEL 5
REMARK VINA RESULT:      -5.4      2.423      5.569
REMARK  7 active torsions:
REMARK  status: ('A' for Active; 'I' for Inactive)
REMARK    1  A    between atoms: C_2  and  C_3 
REMARK    2  A    between atoms: C_3  and  O_6 
REMARK    3  A    between atoms: C_3  and  C_4 
REMARK    4  A    between atoms: C_7  and  O_6 
REMARK    5  A    between atoms: C_9  and  C_10 
REMARK    6  A    between atoms: N_15  and  C_14 
REMARK    7  A    between atoms: N_20  and  C_19 
REMARK       I    between atoms: C_22  and  N_20 
ROOT
ATOM      1  C   LIG d   1       1.521  82.705 110.817  0.00  0.00     0.161 C 
ATOM      2  C   LIG d   1       1.939  84.041 110.698  0.00  0.00     0.016 C 
ATOM      3  C   LIG d   1       2.502  84.778 111.766  0.00  0.00     0.038 C 
ATOM      4  C   LIG d   1       2.826  84.178 112.991  0.00  0.00     0.028 C 
ATOM      5  C   LIG d   1       1.959  82.967 113.321  0.00  0.00    -0.047 C 
ATOM      6  C   LIG d   1       1.969  82.000 112.115  0.00  0.00     0.091 C 
ENDROOT
BRANCH   1   7
ATOM      7  O   LIG d   1       1.951  81.954 109.665  0.00  0.00    -0.368 OA
BRANCH   7   8
ATOM      8  C   LIG d   1       3.083  82.493 108.939  0.00  0.00     0.119 C 
BRANCH   8   9
ATOM      9  C   LIG d   1       2.732  82.455 107.439  0.00  0.00     0.028 C 
ATOM     10  C   LIG d   1       1.596  83.427 107.078  0.00  0.00     0.006 C 
ENDBRANCH   8   9
BRANCH   8  11
ATOM     11  C   LIG d   1       4.318  81.599 109.089  0.00  0.00     0.028 C 
ATOM     12  C   LIG d   1       4.003  80.257 109.768  0.00  0.00     0.006 C 
ENDBRANCH   8  11
ENDBRANCH   7   8
ENDBRANCH   1   7
BRANCH   6  13
ATOM     13  N   LIG d   1       1.078  80.829 112.321  0.00  0.00    -0.311 N 
ATOM     14  C   LIG d   1      -0.251  80.897 112.252  0.00  0.00     0.210 C 
ATOM     15  C   LIG d   1      -0.980  79.576 112.517  0.00  0.00     0.109 C 
ATOM     16  O   LIG d   1      -0.893  81.918 111.966  0.00  0.00    -0.276 OA
ATOM     17  H   LIG d   1       1.517  79.953 112.527  0.00  0.00     0.149 HD
ENDBRANCH   6  13
BRANCH   5  18
ATOM     18  N   LIG d   1       2.494  82.359 114.554  0.00  0.00     0.381 N 
ATOM     19  H   LIG d   1       1.861  82.517 115.312  0.00  0.00    -0.090 HD
ATOM     20  H   LIG d   1       3.370  82.796 114.779  0.00  0.00    -0.090 HD
ATOM     21  H   LIG d   1       2.627  81.380 114.421  0.00  0.00    -0.090 HD
ENDBRANCH   5  18
BRANCH   3  22
ATOM     22  C   LIG d   1       2.709  86.142 111.625  0.00  0.00     0.382 C 
ATOM     23  O   LIG d   1       1.979  86.811 110.854  0.00  0.00    -0.241 OA
ATOM     24  O   LIG d   1       3.645  86.704 112.224  0.00  0.00    -0.241 OA
ENDBRANCH   3  22
TORSDOF 7
ENDMDL
MODEL 6
REMARK VINA RESULT:      -4.5      2.618      6.415
REMARK  7 active torsions:
REMARK  status: ('A' for Active; 'I' for Inactive)
REMARK    1  A    between atoms: C_2  and  C_3 
REMARK    2  A    between atoms: C_3  and  O_6 
REMARK    3  A    between atoms: C_3  and  C_4 
REMARK    4  A    between atoms: C_7  and  O_6 
REMARK    5  A    between atoms: C_9  and  C_10 
REMARK    6  A    between atoms: N_15  and  C_14 
REMARK    7  A    between atoms: N_20  and  C_19 
REMARK       I    between atoms: C_22  and  N_20 
ROOT
ATOM      1  C   LIG d   1       0.336  79.774 110.551  0.00  0.00     0.161 C 
ATOM      2  C   LIG d   1       0.980  80.359 109.448  0.00  0.00     0.016 C 
ATOM      3  C   LIG d   1       1.793  81.511 109.544  0.00  0.00     0.038 C 
ATOM      4  C   LIG d   1       2.142  82.073 110.781  0.00  0.00     0.028 C 
ATOM      5  C   LIG d   1       1.108  81.819 111.874  0.00  0.00    -0.047 C 
ATOM      6  C   LIG d   1       0.794  80.306 111.925  0.00  0.00     0.091 C 
ENDROOT
BRANCH   1   7
ATOM      7  O   LIG d   1       0.478  78.341 110.496  0.00  0.00    -0.368 OA
BRANCH   7   8
ATOM      8  C   LIG d   1      -0.469  77.575 111.281  0.00  0.00     0.119 C 
BRANCH   8   9
ATOM      9  C   LIG d   1      -0.135  76.084 111.085  0.00  0.00     0.028 C 
ATOM     10  C   LIG d   1       0.263  75.394 112.401  0.00  0.00     0.006 C 
ENDBRANCH   8   9
BRANCH   8  11
ATOM     11  C   LIG d   1      -1.896  77.744 110.751  0.00  0.00     0.028 C 
ATOM     12  C   LIG d   1      -2.964  77.284 111.757  0.00  0.00     0.006 C 
ENDBRANCH   8  11
ENDBRANCH   7   8
ENDBRANCH   1   7
BRANCH   6  13
ATOM     13  N   LIG d   1      -0.271  79.982 112.910  0.00  0.00    -0.311 N 
ATOM     14  C   LIG d   1      -1.441  80.617 112.961  0.00  0.00     0.210 C 
ATOM     15  C   LIG d   1      -2.387  80.139 114.067  0.00  0.00     0.109 C 
ATOM     16  O   LIG d   1      -1.797  81.508 112.176  0.00  0.00    -0.276 OA
ATOM     17  H   LIG d   1      -0.078  79.250 113.566  0.00  0.00     0.149 HD
ENDBRANCH   6  13
BRANCH   5  18
ATOM     18  N   LIG d   1       1.661  82.338 113.139  0.00  0.00     0.381 N 
ATOM     19  H   LIG d   1       2.556  82.752 112.973  0.00  0.00    -0.090 HD
ATOM     20  H   LIG d   1       1.782  81.572 113.779  0.00  0.00    -0.090 HD
ATOM     21  H   LIG d   1       1.042  83.013 113.531  0.00  0.00    -0.090 HD
ENDBRANCH   5  18
BRANCH   3  22
ATOM     22  C   LIG d   1       2.235  82.138 108.388  0.00  0.00     0.382 C 
ATOM     23  O   LIG d   1       1.529  83.023 107.846  0.00  0.00    -0.241 OA
ATOM     24  O   LIG d   1       3.309  81.800 107.857  0.00  0.00    -0.241 OA
ENDBRANCH   3  22
TORSDOF 7
ENDMDL
MODEL 7
REMARK VINA RESULT:      -4.0     27.456     28.214
REMARK  7 active torsions:
REMARK  status: ('A' for Active; 'I' for Inactive)
REMARK    1  A    between atoms: C_2  and  C_3 
REMARK    2  A    between atoms: C_3  and  O_6 
REMARK    3  A    between atoms: C_3  and  C_4 
REMARK    4  A    between atoms: C_7  and  O_6 
REMARK    5  A    between atoms: C_9  and  C_10 
REMARK    6  A    between atoms: N_15  and  C_14 
REMARK    7  A    between atoms: N_20  and  C_19 
REMARK       I    between atoms: C_22  and  N_20 
ROOT
ATOM      1  C   LIG d   1     -20.424  62.912 108.024  0.00  0.00     0.161 C 
ATOM      2  C   LIG d   1     -19.645  62.065 108.830  0.00  0.00     0.016 C 
ATOM      3  C   LIG d   1     -18.482  61.405 108.370  0.00  0.00     0.038 C 
ATOM      4  C   LIG d   1     -17.932  61.667 107.106  0.00  0.00     0.028 C 
ATOM      5  C   LIG d   1     -18.962  62.127 106.080  0.00  0.00    -0.047 C 
ATOM      6  C   LIG d   1     -19.777  63.297 106.677  0.00  0.00     0.091 C 
ENDROOT
BRANCH   1   7
ATOM      7  O   LIG d   1     -20.785  64.095 108.764  0.00  0.00    -0.368 OA
BRANCH   7   8
ATOM      8  C   LIG d   1     -22.151  64.155 109.243  0.00  0.00     0.119 C 
BRANCH   8   9
ATOM      9  C   LIG d   1     -22.881  65.238 108.424  0.00  0.00     0.028 C 
ATOM     10  C   LIG d   1     -23.432  66.370 109.307  0.00  0.00     0.006 C 
ENDBRANCH   8   9
BRANCH   8  11
ATOM     11  C   LIG d   1     -22.211  64.637 110.695  0.00  0.00     0.028 C 
ATOM     12  C   LIG d   1     -20.927  64.326 111.480  0.00  0.00     0.006 C 
ENDBRANCH   8  11
ENDBRANCH   7   8
ENDBRANCH   1   7
BRANCH   6  13
ATOM     13  N   LIG d   1     -20.864  63.752 105.771  0.00  0.00    -0.311 N 
ATOM     14  C   LIG d   1     -20.923  64.979 105.255  0.00  0.00     0.210 C 
ATOM     15  C   LIG d   1     -22.138  65.246 104.361  0.00  0.00     0.109 C 
ATOM     16  O   LIG d   1     -20.068  65.861 105.428  0.00  0.00    -0.276 OA
ATOM     17  H   LIG d   1     -21.583  63.090 105.553  0.00  0.00     0.149 HD
ENDBRANCH   6  13
BRANCH   5  18
ATOM     18  N   LIG d   1     -18.234  62.497 104.852  0.00  0.00     0.381 N 
ATOM     19  H   LIG d   1     -18.337  61.775 104.167  0.00  0.00    -0.090 HD
ATOM     20  H   LIG d   1     -17.257  62.590 105.069  0.00  0.00    -0.090 HD
ATOM     21  H   LIG d   1     -18.586  63.358 104.493  0.00  0.00    -0.090 HD
ENDBRANCH   5  18
BRANCH   3  22
ATOM     22  C   LIG d   1     -17.880  60.440 109.163  0.00  0.00     0.382 C 
ATOM     23  O   LIG d   1     -16.686  60.116 108.958  0.00  0.00    -0.241 OA
ATOM     24  O   LIG d   1     -18.530  59.857 110.052  0.00  0.00    -0.241 OA
ENDBRANCH   3  22
TORSDOF 7
ENDMDL
MODEL 8
REMARK VINA RESULT:      -3.9     27.788     30.127
REMARK  7 active torsions:
REMARK  status: ('A' for Active; 'I' for Inactive)
REMARK    1  A    between atoms: C_2  and  C_3 
REMARK    2  A    between atoms: C_3  and  O_6 
REMARK    3  A    between atoms: C_3  and  C_4 
REMARK    4  A    between atoms: C_7  and  O_6 
REMARK    5  A    between atoms: C_9  and  C_10 
REMARK    6  A    between atoms: N_15  and  C_14 
REMARK    7  A    between atoms: N_20  and  C_19 
REMARK       I    between atoms: C_22  and  N_20 
ROOT
ATOM      1  C   LIG d   1     -26.506  67.312 109.868  0.00  0.00     0.161 C 
ATOM      2  C   LIG d   1     -25.827  67.914 110.941  0.00  0.00     0.016 C 
ATOM      3  C   LIG d   1     -24.422  67.874 111.093  0.00  0.00     0.038 C 
ATOM      4  C   LIG d   1     -23.582  67.356 110.096  0.00  0.00     0.028 C 
ATOM      5  C   LIG d   1     -24.251  66.290 109.235  0.00  0.00    -0.047 C 
ATOM      6  C   LIG d   1     -25.599  66.838 108.713  0.00  0.00     0.091 C 
ENDROOT
BRANCH   1   7
ATOM      7  O   LIG d   1     -27.524  68.204 109.373  0.00  0.00    -0.368 OA
BRANCH   7   8
ATOM      8  C   LIG d   1     -27.063  69.297 108.541  0.00  0.00     0.119 C 
BRANCH   8   9
ATOM      9  C   LIG d   1     -27.517  70.610 109.208  0.00  0.00     0.028 C 
ATOM     10  C   LIG d   1     -28.636  70.387 110.240  0.00  0.00     0.006 C 
ENDBRANCH   8   9
BRANCH   8  11
ATOM     11  C   LIG d   1     -27.747  69.281 107.171  0.00  0.00     0.028 C 
ATOM     12  C   LIG d   1     -28.918  68.288 107.101  0.00  0.00     0.006 C 
ENDBRANCH   8  11
ENDBRANCH   7   8
ENDBRANCH   1   7
BRANCH   6  13
ATOM     13  N   LIG d   1     -26.358  65.828 107.931  0.00  0.00    -0.311 N 
ATOM     14  C   LIG d   1     -26.237  65.679 106.613  0.00  0.00     0.210 C 
ATOM     15  C   LIG d   1     -27.125  64.592 106.001  0.00  0.00     0.109 C 
ATOM     16  O   LIG d   1     -25.454  66.322 105.898  0.00  0.00    -0.276 OA
ATOM     17  H   LIG d   1     -26.993  65.242 108.437  0.00  0.00     0.149 HD
ENDBRANCH   6  13
BRANCH   5  18
ATOM     18  N   LIG d   1     -23.313  65.937 108.153  0.00  0.00     0.381 N 
ATOM     19  H   LIG d   1     -22.813  65.105 108.396  0.00  0.00    -0.090 HD
ATOM     20  H   LIG d   1     -22.648  66.683 108.043  0.00  0.00    -0.090 HD
ATOM     21  H   LIG d   1     -23.811  65.797 107.302  0.00  0.00    -0.090 HD
ENDBRANCH   5  18
BRANCH   3  22
ATOM     22  C   LIG d   1     -23.845  68.322 112.272  0.00  0.00     0.382 C 
ATOM     23  O   LIG d   1     -24.080  67.725 113.351  0.00  0.00    -0.241 OA
ATOM     24  O   LIG d   1     -23.129  69.341 112.279  0.00  0.00    -0.241 OA
ENDBRANCH   3  22
TORSDOF 7
ENDMDL
MODEL 9
REMARK VINA RESULT:      -3.8     19.398     21.707
REMARK  7 active torsions:
REMARK  status: ('A' for Active; 'I' for Inactive)
REMARK    1  A    between atoms: C_2  and  C_3 
REMARK    2  A    between atoms: C_3  and  O_6 
REMARK    3  A    between atoms: C_3  and  C_4 
REMARK    4  A    between atoms: C_7  and  O_6 
REMARK    5  A    between atoms: C_9  and  C_10 
REMARK    6  A    between atoms: N_15  and  C_14 
REMARK    7  A    between atoms: N_20  and  C_19 
REMARK       I    between atoms: C_22  and  N_20 
ROOT
ATOM      1  C   LIG d   1      11.778  63.382 108.012  0.00  0.00     0.161 C 
ATOM      2  C   LIG d   1      12.041  64.675 107.528  0.00  0.00     0.016 C 
ATOM      3  C   LIG d   1      11.498  65.182 106.326  0.00  0.00     0.038 C 
ATOM      4  C   LIG d   1      10.527  64.479 105.597  0.00  0.00     0.028 C 
ATOM      5  C   LIG d   1      10.611  62.967 105.777  0.00  0.00    -0.047 C 
ATOM      6  C   LIG d   1      10.633  62.642 107.288  0.00  0.00     0.091 C 
ENDROOT
BRANCH   1   7
ATOM      7  O   LIG d   1      11.523  63.434 109.430  0.00  0.00    -0.368 OA
BRANCH   7   8
ATOM      8  C   LIG d   1      11.008  64.688 109.940  0.00  0.00     0.119 C 
BRANCH   8   9
ATOM      9  C   LIG d   1      11.751  64.993 111.255  0.00  0.00     0.028 C 
ATOM     10  C   LIG d   1      13.080  65.731 111.021  0.00  0.00     0.006 C 
ENDBRANCH   8   9
BRANCH   8  11
ATOM     11  C   LIG d   1       9.531  64.567 110.327  0.00  0.00     0.028 C 
ATOM     12  C   LIG d   1       9.165  65.420 111.552  0.00  0.00     0.006 C 
ENDBRANCH   8  11
ENDBRANCH   7   8
ENDBRANCH   1   7
BRANCH   6  13
ATOM     13  N   LIG d   1      10.799  61.189 107.553  0.00  0.00    -0.311 N 
ATOM     14  C   LIG d   1       9.776  60.347 107.684  0.00  0.00     0.210 C 
ATOM     15  C   LIG d   1      10.168  58.894 107.975  0.00  0.00     0.109 C 
ATOM     16  O   LIG d   1       8.583  60.658 107.556  0.00  0.00    -0.276 OA
ATOM     17  H   LIG d   1      11.735  60.846 107.641  0.00  0.00     0.149 HD
ENDBRANCH   6  13
BRANCH   5  18
ATOM     18  N   LIG d   1       9.459  62.370 105.075  0.00  0.00     0.381 N 
ATOM     19  H   LIG d   1       9.600  61.385 104.969  0.00  0.00    -0.090 HD
ATOM     20  H   LIG d   1       9.389  62.779 104.160  0.00  0.00    -0.090 HD
ATOM     21  H   LIG d   1       8.622  62.539 105.587  0.00  0.00    -0.090 HD
ENDBRANCH   5  18
BRANCH   3  22
ATOM     22  C   LIG d   1      11.956  66.388 105.819  0.00  0.00     0.382 C 
ATOM     23  O   LIG d   1      11.158  67.174 105.252  0.00  0.00    -0.241 OA
ATOM     24  O   LIG d   1      13.165  66.682 105.883  0.00  0.00    -0.241 OA
ENDBRANCH   3  22
TORSDOF 7
ENDMDL
