MODEL 1
REMARK VINA RESULT:      -6.7      0.000      0.000
REMARK  7 active torsions:
REMARK  status: ('A' for Active; 'I' for Inactive)
REMARK    1  A    between atoms: C_2  and  C_3 
REMARK    2  A    between atoms: C_3  and  O_6 
REMARK    3  A    between atoms: C_3  and  C_4 
REMARK    4  A    between atoms: C_7  and  O_6 
REMARK    5  A    between atoms: C_9  and  C_10 
REMARK    6  A    between atoms: N_15  and  C_14 
REMARK    7  A    between atoms: N_20  and  C_19 
REMARK       I    between atoms: C_22  and  N_20 
ROOT
ATOM      1  C   LIG d   1       1.347  83.667 109.235  0.00  0.00     0.161 C 
ATOM      2  C   LIG d   1       1.068  84.978 109.656  0.00  0.00     0.016 C 
ATOM      3  C   LIG d   1       0.224  85.282 110.749  0.00  0.00     0.038 C 
ATOM      4  C   LIG d   1      -0.281  84.284 111.595  0.00  0.00     0.028 C 
ATOM      5  C   LIG d   1      -0.437  82.931 110.909  0.00  0.00    -0.047 C 
ATOM      6  C   LIG d   1       0.894  82.564 110.214  0.00  0.00     0.091 C 
ENDROOT
BRANCH   1   7
ATOM      7  O   LIG d   1       2.753  83.535 108.947  0.00  0.00    -0.368 OA
BRANCH   7   8
ATOM      8  C   LIG d   1       3.616  83.294 110.086  0.00  0.00     0.119 C 
BRANCH   8   9
ATOM      9  C   LIG d   1       4.451  84.569 110.312  0.00  0.00     0.028 C 
ATOM     10  C   LIG d   1       4.036  85.324 111.586  0.00  0.00     0.006 C 
ENDBRANCH   8   9
BRANCH   8  11
ATOM     11  C   LIG d   1       4.635  82.190 109.788  0.00  0.00     0.028 C 
ATOM     12  C   LIG d   1       4.306  81.404 108.509  0.00  0.00     0.006 C 
ENDBRANCH   8  11
ENDBRANCH   7   8
ENDBRANCH   1   7
BRANCH   6  13
ATOM     13  N   LIG d   1       0.802  81.294 109.448  0.00  0.00    -0.311 N 
ATOM     14  C   LIG d   1       1.244  80.125 109.910  0.00  0.00     0.210 C 
ATOM     15  C   LIG d   1       1.071  78.943 108.952  0.00  0.00     0.109 C 
ATOM     16  O   LIG d   1       1.735  79.950 111.036  0.00  0.00    -0.276 OA
ATOM     17  H   LIG d   1       0.389  81.339 108.537  0.00  0.00     0.149 HD
ENDBRANCH   6  13
BRANCH   5  18
ATOM     18  N   LIG d   1      -0.841  81.954 111.938  0.00  0.00     0.381 N 
ATOM     19  H   LIG d   1      -0.607  82.302 112.846  0.00  0.00    -0.090 HD
ATOM     20  H   LIG d   1      -0.335  81.098 111.789  0.00  0.00    -0.090 HD
ATOM     21  H   LIG d   1      -1.821  81.784 111.882  0.00  0.00    -0.090 HD
ENDBRANCH   5  18
BRANCH   3  22
ATOM     22  C   LIG d   1      -0.154  86.596 110.981  0.00  0.00     0.382 C 
ATOM     23  O   LIG d   1       0.720  87.480 111.147  0.00  0.00    -0.241 OA
ATOM     24  O   LIG d   1      -1.359  86.900 111.069  0.00  0.00    -0.241 OA
ENDBRANCH   3  22
TORSDOF 7
ENDMDL
MODEL 2
REMARK VINA RESULT:      -6.3      2.373      4.643
REMARK  7 active torsions:
REMARK  status: ('A' for Active; 'I' for Inactive)
REMARK    1  A    between atoms: C_2  and  C_3 
REMARK    2  A    between atoms: C_3  and  O_6 
REMARK    3  A    between atoms: C_3  and  C_4 
REMARK    4  A    between atoms: C_7  and  O_6 
REMARK    5  A    between atoms: C_9  and  C_10 
REMARK    6  A    between atoms: N_15  and  C_14 
REMARK    7  A    between atoms: N_20  and  C_19 
REMARK       I    between atoms: C_22  and  N_20 
ROOT
ATOM      1  C   LIG d   1       1.530  81.927 111.566  0.00  0.00     0.161 C 
ATOM      2  C   LIG d   1       2.275  82.310 110.438  0.00  0.00     0.016 C 
ATOM      3  C   LIG d   1       2.104  81.731 109.159  0.00  0.00     0.038 C 
ATOM      4  C   LIG d   1       1.064  80.830 108.887  0.00  0.00     0.028 C 
ATOM      5  C   LIG d   1       0.612  80.039 110.110  0.00  0.00    -0.047 C 
ATOM      6  C   LIG d   1       0.316  81.024 111.263  0.00  0.00     0.091 C 
ENDROOT
BRANCH   1   7
ATOM      7  O   LIG d   1       1.114  83.097 112.297  0.00  0.00    -0.368 OA
BRANCH   7   8
ATOM      8  C   LIG d   1       1.014  84.324 111.533  0.00  0.00     0.119 C 
BRANCH   8   9
ATOM      9  C   LIG d   1       1.676  85.442 112.362  0.00  0.00     0.028 C 
ATOM     10  C   LIG d   1       2.966  85.969 111.711  0.00  0.00     0.006 C 
ENDBRANCH   8   9
BRANCH   8  11
ATOM     11  C   LIG d   1      -0.446  84.757 111.363  0.00  0.00     0.028 C 
ATOM     12  C   LIG d   1      -0.629  85.813 110.262  0.00  0.00     0.006 C 
ENDBRANCH   8  11
ENDBRANCH   7   8
ENDBRANCH   1   7
BRANCH   6  13
ATOM     13  N   LIG d   1      -0.051  80.328 112.524  0.00  0.00    -0.311 N 
ATOM     14  C   LIG d   1      -1.309  80.079 112.884  0.00  0.00     0.210 C 
ATOM     15  C   LIG d   1      -1.468  79.367 114.231  0.00  0.00     0.109 C 
ATOM     16  O   LIG d   1      -2.308  80.351 112.200  0.00  0.00    -0.276 OA
ATOM     17  H   LIG d   1       0.698  80.044 113.123  0.00  0.00     0.149 HD
ENDBRANCH   6  13
BRANCH   5  18
ATOM     18  N   LIG d   1      -0.564  79.241 109.715  0.00  0.00     0.381 N 
ATOM     19  H   LIG d   1      -0.568  78.374 110.214  0.00  0.00    -0.090 HD
ATOM     20  H   LIG d   1      -0.505  79.039 108.732  0.00  0.00    -0.090 HD
ATOM     21  H   LIG d   1      -1.400  79.747 109.908  0.00  0.00    -0.090 HD
ENDBRANCH   5  18
BRANCH   3  22
ATOM     22  C   LIG d   1       3.004  82.024 108.146  0.00  0.00     0.382 C 
ATOM     23  O   LIG d   1       2.628  82.676 107.142  0.00  0.00    -0.241 OA
ATOM     24  O   LIG d   1       4.176  81.607 108.203  0.00  0.00    -0.241 OA
ENDBRANCH   3  22
TORSDOF 7
ENDMDL
MODEL 3
REMARK VINA RESULT:      -6.1      2.667      4.532
REMARK  7 active torsions:
REMARK  status: ('A' for Active; 'I' for Inactive)
REMARK    1  A    between atoms: C_2  and  C_3 
REMARK    2  A    between atoms: C_3  and  O_6 
REMARK    3  A    between atoms: C_3  and  C_4 
REMARK    4  A    between atoms: C_7  and  O_6 
REMARK    5  A    between atoms: C_9  and  C_10 
REMARK    6  A    between atoms: N_15  and  C_14 
REMARK    7  A    between atoms: N_20  and  C_19 
REMARK       I    between atoms: C_22  and  N_20 
ROOT
ATOM      1  C   LIG d   1       0.282  81.798 111.276  0.00  0.00     0.161 C 
ATOM      2  C   LIG d   1      -0.862  81.608 112.069  0.00  0.00     0.016 C 
ATOM      3  C   LIG d   1      -1.499  80.356 112.229  0.00  0.00     0.038 C 
ATOM      4  C   LIG d   1      -0.942  79.171 111.725  0.00  0.00     0.028 C 
ATOM      5  C   LIG d   1      -0.064  79.389 110.497  0.00  0.00    -0.047 C 
ATOM      6  C   LIG d   1       0.968  80.498 110.808  0.00  0.00     0.091 C 
ENDROOT
BRANCH   1   7
ATOM      7  O   LIG d   1       1.223  82.640 111.971  0.00  0.00    -0.368 OA
BRANCH   7   8
ATOM      8  C   LIG d   1       1.344  83.999 111.484  0.00  0.00     0.119 C 
BRANCH   8   9
ATOM      9  C   LIG d   1       0.489  84.111 110.207  0.00  0.00     0.028 C 
ATOM     10  C   LIG d   1       1.308  84.578 108.992  0.00  0.00     0.006 C 
ENDBRANCH   8   9
BRANCH   8  11
ATOM     11  C   LIG d   1       2.777  84.308 111.041  0.00  0.00     0.028 C 
ATOM     12  C   LIG d   1       3.606  84.991 112.140  0.00  0.00     0.006 C 
ENDBRANCH   8  11
ENDBRANCH   7   8
ENDBRANCH   1   7
BRANCH   6  13
ATOM     13  N   LIG d   1       1.812  80.832 109.632  0.00  0.00    -0.311 N 
ATOM     14  C   LIG d   1       3.129  81.019 109.704  0.00  0.00     0.210 C 
ATOM     15  C   LIG d   1       3.805  81.376 108.376  0.00  0.00     0.109 C 
ATOM     16  O   LIG d   1       3.806  80.892 110.735  0.00  0.00    -0.276 OA
ATOM     17  H   LIG d   1       1.349  80.924 108.749  0.00  0.00     0.149 HD
ENDBRANCH   6  13
BRANCH   5  18
ATOM     18  N   LIG d   1       0.561  78.096 110.161  0.00  0.00     0.381 N 
ATOM     19  H   LIG d   1      -0.043  77.347 110.435  0.00  0.00    -0.090 HD
ATOM     20  H   LIG d   1       1.422  78.009 110.670  0.00  0.00    -0.090 HD
ATOM     21  H   LIG d   1       0.739  78.048 109.182  0.00  0.00    -0.090 HD
ENDBRANCH   5  18
BRANCH   3  22
ATOM     22  C   LIG d   1      -2.728  80.286 112.867  0.00  0.00     0.382 C 
ATOM     23  O   LIG d   1      -3.522  81.256 112.806  0.00  0.00    -0.241 OA
ATOM     24  O   LIG d   1      -3.034  79.284 113.540  0.00  0.00    -0.241 OA
ENDBRANCH   3  22
TORSDOF 7
ENDMDL
MODEL 4
REMARK VINA RESULT:      -5.9      2.432      4.915
REMARK  7 active torsions:
REMARK  status: ('A' for Active; 'I' for Inactive)
REMARK    1  A    between atoms: C_2  and  C_3 
REMARK    2  A    between atoms: C_3  and  O_6 
REMARK    3  A    between atoms: C_3  and  C_4 
REMARK    4  A    between atoms: C_7  and  O_6 
REMARK    5  A    between atoms: C_9  and  C_10 
REMARK    6  A    between atoms: N_15  and  C_14 
REMARK    7  A    between atoms: N_20  and  C_19 
REMARK       I    between atoms: C_22  and  N_20 
ROOT
ATOM      1  C   LIG d   1       2.456  83.248 111.996  0.00  0.00     0.161 C 
ATOM      2  C   LIG d   1       1.662  82.117 111.746  0.00  0.00     0.016 C 
ATOM      3  C   LIG d   1       0.287  82.187 111.422  0.00  0.00     0.038 C 
ATOM      4  C   LIG d   1      -0.355  83.410 111.177  0.00  0.00     0.028 C 
ATOM      5  C   LIG d   1       0.281  84.586 111.910  0.00  0.00    -0.047 C 
ATOM      6  C   LIG d   1       1.800  84.594 111.624  0.00  0.00     0.091 C 
ENDROOT
BRANCH   1   7
ATOM      7  O   LIG d   1       3.727  83.109 111.331  0.00  0.00    -0.368 OA
BRANCH   7   8
ATOM      8  C   LIG d   1       3.771  82.168 110.230  0.00  0.00     0.119 C 
BRANCH   8   9
ATOM      9  C   LIG d   1       5.124  81.434 110.301  0.00  0.00     0.028 C 
ATOM     10  C   LIG d   1       5.050  80.009 109.728  0.00  0.00     0.006 C 
ENDBRANCH   8   9
BRANCH   8  11
ATOM     11  C   LIG d   1       3.772  82.890 108.879  0.00  0.00     0.028 C 
ATOM     12  C   LIG d   1       2.469  82.682 108.092  0.00  0.00     0.006 C 
ENDBRANCH   8  11
ENDBRANCH   7   8
ENDBRANCH   1   7
BRANCH   6  13
ATOM     13  N   LIG d   1       2.512  85.663 112.372  0.00  0.00    -0.311 N 
ATOM     14  C   LIG d   1       2.638  86.911 111.924  0.00  0.00     0.210 C 
ATOM     15  C   LIG d   1       3.427  87.851 112.842  0.00  0.00     0.109 C 
ATOM     16  O   LIG d   1       2.143  87.338 110.870  0.00  0.00    -0.276 OA
ATOM     17  H   LIG d   1       2.917  85.412 113.252  0.00  0.00     0.149 HD
ENDBRANCH   6  13
BRANCH   5  18
ATOM     18  N   LIG d   1      -0.399  85.814 111.458  0.00  0.00     0.381 N 
ATOM     19  H   LIG d   1       0.232  86.589 111.508  0.00  0.00    -0.090 HD
ATOM     20  H   LIG d   1      -1.175  86.000 112.068  0.00  0.00    -0.090 HD
ATOM     21  H   LIG d   1      -0.723  85.700 110.523  0.00  0.00    -0.090 HD
ENDBRANCH   5  18
BRANCH   3  22
ATOM     22  C   LIG d   1      -0.469  81.026 111.380  0.00  0.00     0.382 C 
ATOM     23  O   LIG d   1      -1.310  80.792 112.282  0.00  0.00    -0.241 OA
ATOM     24  O   LIG d   1      -0.291  80.188 110.476  0.00  0.00    -0.241 OA
ENDBRANCH   3  22
TORSDOF 7
ENDMDL
MODEL 5
REMARK VINA RESULT:      -5.5      1.432      2.116
REMARK  7 active torsions:
REMARK  status: ('A' for Active; 'I' for Inactive)
REMARK    1  A    between atoms: C_2  and  C_3 
REMARK    2  A    between atoms: C_3  and  O_6 
REMARK    3  A    between atoms: C_3  and  C_4 
REMARK    4  A    between atoms: C_7  and  O_6 
REMARK    5  A    between atoms: C_9  and  C_10 
REMARK    6  A    between atoms: N_15  and  C_14 
REMARK    7  A    between atoms: N_20  and  C_19 
REMARK       I    between atoms: C_22  and  N_20 
ROOT
ATOM      1  C   LIG d   1       1.519  82.902 109.873  0.00  0.00     0.161 C 
ATOM      2  C   LIG d   1       1.672  84.287 110.054  0.00  0.00     0.016 C 
ATOM      3  C   LIG d   1       0.832  85.060 110.887  0.00  0.00     0.038 C 
ATOM      4  C   LIG d   1      -0.133  84.472 111.719  0.00  0.00     0.028 C 
ATOM      5  C   LIG d   1      -0.657  83.141 111.191  0.00  0.00    -0.047 C 
ATOM      6  C   LIG d   1       0.543  82.225 110.858  0.00  0.00     0.091 C 
ENDROOT
BRANCH   1   7
ATOM      7  O   LIG d   1       2.807  82.257 109.922  0.00  0.00    -0.368 OA
BRANCH   7   8
ATOM      8  C   LIG d   1       3.670  82.468 108.777  0.00  0.00     0.119 C 
BRANCH   8   9
ATOM      9  C   LIG d   1       3.816  81.116 108.052  0.00  0.00     0.028 C 
ATOM     10  C   LIG d   1       3.306  79.938 108.900  0.00  0.00     0.006 C 
ENDBRANCH   8   9
BRANCH   8  11
ATOM     11  C   LIG d   1       5.088  82.851 109.211  0.00  0.00     0.028 C 
ATOM     12  C   LIG d   1       5.397  82.448 110.661  0.00  0.00     0.006 C 
ENDBRANCH   8  11
ENDBRANCH   7   8
ENDBRANCH   1   7
BRANCH   6  13
ATOM     13  N   LIG d   1       0.120  80.934 110.257  0.00  0.00    -0.311 N 
ATOM     14  C   LIG d   1      -0.114  79.834 110.971  0.00  0.00     0.210 C 
ATOM     15  C   LIG d   1      -0.520  78.605 110.151  0.00  0.00     0.109 C 
ATOM     16  O   LIG d   1      -0.057  79.769 112.208  0.00  0.00    -0.276 OA
ATOM     17  H   LIG d   1       0.019  80.906 109.261  0.00  0.00     0.149 HD
ENDBRANCH   6  13
BRANCH   5  18
ATOM     18  N   LIG d   1      -1.550  82.574 112.219  0.00  0.00     0.381 N 
ATOM     19  H   LIG d   1      -2.246  82.002 111.785  0.00  0.00    -0.090 HD
ATOM     20  H   LIG d   1      -2.013  83.326 112.698  0.00  0.00    -0.090 HD
ATOM     21  H   LIG d   1      -1.022  82.033 112.868  0.00  0.00    -0.090 HD
ENDBRANCH   5  18
BRANCH   3  22
ATOM     22  C   LIG d   1       0.925  86.444 110.863  0.00  0.00     0.382 C 
ATOM     23  O   LIG d   1       2.029  86.993 110.629  0.00  0.00    -0.241 OA
ATOM     24  O   LIG d   1      -0.070  87.149 111.115  0.00  0.00    -0.241 OA
ENDBRANCH   3  22
TORSDOF 7
ENDMDL
MODEL 6
REMARK VINA RESULT:      -5.0      2.596      6.118
REMARK  7 active torsions:
REMARK  status: ('A' for Active; 'I' for Inactive)
REMARK    1  A    between atoms: C_2  and  C_3 
REMARK    2  A    between atoms: C_3  and  O_6 
REMARK    3  A    between atoms: C_3  and  C_4 
REMARK    4  A    between atoms: C_7  and  O_6 
REMARK    5  A    between atoms: C_9  and  C_10 
REMARK    6  A    between atoms: N_15  and  C_14 
REMARK    7  A    between atoms: N_20  and  C_19 
REMARK       I    between atoms: C_22  and  N_20 
ROOT
ATOM      1  C   LIG d   1       0.722  81.836 110.408  0.00  0.00     0.161 C 
ATOM      2  C   LIG d   1       1.703  80.893 110.061  0.00  0.00     0.016 C 
ATOM      3  C   LIG d   1       3.066  81.020 110.416  0.00  0.00     0.038 C 
ATOM      4  C   LIG d   1       3.516  82.031 111.278  0.00  0.00     0.028 C 
ATOM      5  C   LIG d   1       2.653  83.288 111.240  0.00  0.00    -0.047 C 
ATOM      6  C   LIG d   1       1.174  82.888 111.443  0.00  0.00     0.091 C 
ENDROOT
BRANCH   1   7
ATOM      7  O   LIG d   1      -0.465  81.160 110.867  0.00  0.00    -0.368 OA
BRANCH   7   8
ATOM      8  C   LIG d   1      -0.269  79.842 111.436  0.00  0.00     0.119 C 
BRANCH   8   9
ATOM      9  C   LIG d   1      -0.836  78.817 110.434  0.00  0.00     0.028 C 
ATOM     10  C   LIG d   1      -2.078  78.091 110.977  0.00  0.00     0.006 C 
ENDBRANCH   8   9
BRANCH   8  11
ATOM     11  C   LIG d   1      -1.093  79.659 112.713  0.00  0.00     0.028 C 
ATOM     12  C   LIG d   1      -0.237  79.241 113.920  0.00  0.00     0.006 C 
ENDBRANCH   8  11
ENDBRANCH   7   8
ENDBRANCH   1   7
BRANCH   6  13
ATOM     13  N   LIG d   1       0.253  84.050 111.335  0.00  0.00    -0.311 N 
ATOM     14  C   LIG d   1       0.197  84.844 110.268  0.00  0.00     0.210 C 
ATOM     15  C   LIG d   1      -0.808  85.996 110.371  0.00  0.00     0.109 C 
ATOM     16  O   LIG d   1       0.861  84.686 109.232  0.00  0.00    -0.276 OA
ATOM     17  H   LIG d   1      -0.344  84.232 112.118  0.00  0.00     0.149 HD
ENDBRANCH   6  13
BRANCH   5  18
ATOM     18  N   LIG d   1       3.153  84.203 112.283  0.00  0.00     0.381 N 
ATOM     19  H   LIG d   1       2.940  85.148 112.035  0.00  0.00    -0.090 HD
ATOM     20  H   LIG d   1       4.152  84.111 112.345  0.00  0.00    -0.090 HD
ATOM     21  H   LIG d   1       2.737  83.980 113.161  0.00  0.00    -0.090 HD
ENDBRANCH   5  18
BRANCH   3  22
ATOM     22  C   LIG d   1       4.001  80.151 109.874  0.00  0.00     0.382 C 
ATOM     23  O   LIG d   1       3.625  79.086 109.328  0.00  0.00    -0.241 OA
ATOM     24  O   LIG d   1       5.219  80.398 109.964  0.00  0.00    -0.241 OA
ENDBRANCH   3  22
TORSDOF 7
ENDMDL
MODEL 7
REMARK VINA RESULT:      -5.0      2.968      4.500
REMARK  7 active torsions:
REMARK  status: ('A' for Active; 'I' for Inactive)
REMARK    1  A    between atoms: C_2  and  C_3 
REMARK    2  A    between atoms: C_3  and  O_6 
REMARK    3  A    between atoms: C_3  and  C_4 
REMARK    4  A    between atoms: C_7  and  O_6 
REMARK    5  A    between atoms: C_9  and  C_10 
REMARK    6  A    between atoms: N_15  and  C_14 
REMARK    7  A    between atoms: N_20  and  C_19 
REMARK       I    between atoms: C_22  and  N_20 
ROOT
ATOM      1  C   LIG d   1       0.502  81.697 111.320  0.00  0.00     0.161 C 
ATOM      2  C   LIG d   1      -0.640  81.479 112.110  0.00  0.00     0.016 C 
ATOM      3  C   LIG d   1      -1.332  80.247 112.154  0.00  0.00     0.038 C 
ATOM      4  C   LIG d   1      -0.838  79.096 111.522  0.00  0.00     0.028 C 
ATOM      5  C   LIG d   1       0.033  79.399 110.307  0.00  0.00    -0.047 C 
ATOM      6  C   LIG d   1       1.119  80.421 110.710  0.00  0.00     0.091 C 
ENDROOT
BRANCH   1   7
ATOM      7  O   LIG d   1       1.491  82.419 112.080  0.00  0.00    -0.368 OA
BRANCH   7   8
ATOM      8  C   LIG d   1       2.758  81.745 112.280  0.00  0.00     0.119 C 
BRANCH   8   9
ATOM      9  C   LIG d   1       2.874  81.416 113.781  0.00  0.00     0.028 C 
ATOM     10  C   LIG d   1       3.732  82.441 114.542  0.00  0.00     0.006 C 
ENDBRANCH   8   9
BRANCH   8  11
ATOM     11  C   LIG d   1       3.937  82.673 111.976  0.00  0.00     0.028 C 
ATOM     12  C   LIG d   1       3.705  83.543 110.730  0.00  0.00     0.006 C 
ENDBRANCH   8  11
ENDBRANCH   7   8
ENDBRANCH   1   7
BRANCH   6  13
ATOM     13  N   LIG d   1       1.963  80.836 109.559  0.00  0.00    -0.311 N 
ATOM     14  C   LIG d   1       3.044  80.166 109.164  0.00  0.00     0.210 C 
ATOM     15  C   LIG d   1       3.781  80.776 107.968  0.00  0.00     0.109 C 
ATOM     16  O   LIG d   1       3.444  79.107 109.669  0.00  0.00    -0.276 OA
ATOM     17  H   LIG d   1       1.693  81.668 109.072  0.00  0.00     0.149 HD
ENDBRANCH   6  13
BRANCH   5  18
ATOM     18  N   LIG d   1       0.591  78.120 109.830  0.00  0.00     0.381 N 
ATOM     19  H   LIG d   1       1.150  77.705 110.548  0.00  0.00    -0.090 HD
ATOM     20  H   LIG d   1       1.180  78.298 109.035  0.00  0.00    -0.090 HD
ATOM     21  H   LIG d   1      -0.146  77.500 109.573  0.00  0.00    -0.090 HD
ENDBRANCH   5  18
BRANCH   3  22
ATOM     22  C   LIG d   1      -2.554  80.169 112.803  0.00  0.00     0.382 C 
ATOM     23  O   LIG d   1      -2.872  79.122 113.417  0.00  0.00    -0.241 OA
ATOM     24  O   LIG d   1      -3.362  81.116 112.747  0.00  0.00    -0.241 OA
ENDBRANCH   3  22
TORSDOF 7
ENDMDL
MODEL 8
REMARK VINA RESULT:      -4.9      2.662      4.273
REMARK  7 active torsions:
REMARK  status: ('A' for Active; 'I' for Inactive)
REMARK    1  A    between atoms: C_2  and  C_3 
REMARK    2  A    between atoms: C_3  and  O_6 
REMARK    3  A    between atoms: C_3  and  C_4 
REMARK    4  A    between atoms: C_7  and  O_6 
REMARK    5  A    between atoms: C_9  and  C_10 
REMARK    6  A    between atoms: N_15  and  C_14 
REMARK    7  A    between atoms: N_20  and  C_19 
REMARK       I    between atoms: C_22  and  N_20 
ROOT
ATOM      1  C   LIG d   1       1.746  82.065 111.376  0.00  0.00     0.161 C 
ATOM      2  C   LIG d   1       2.313  82.573 110.195  0.00  0.00     0.016 C 
ATOM      3  C   LIG d   1       1.997  82.083 108.907  0.00  0.00     0.038 C 
ATOM      4  C   LIG d   1       0.972  81.147 108.701  0.00  0.00     0.028 C 
ATOM      5  C   LIG d   1       0.726  80.243 109.904  0.00  0.00    -0.047 C 
ATOM      6  C   LIG d   1       0.545  81.121 111.163  0.00  0.00     0.091 C 
ENDROOT
BRANCH   1   7
ATOM      7  O   LIG d   1       1.381  83.153 112.248  0.00  0.00    -0.368 OA
BRANCH   7   8
ATOM      8  C   LIG d   1       2.455  83.733 113.028  0.00  0.00     0.119 C 
BRANCH   8   9
ATOM      9  C   LIG d   1       3.218  84.708 112.111  0.00  0.00     0.028 C 
ATOM     10  C   LIG d   1       3.202  86.151 112.645  0.00  0.00     0.006 C 
ENDBRANCH   8   9
BRANCH   8  11
ATOM     11  C   LIG d   1       3.482  82.673 113.437  0.00  0.00     0.028 C 
ATOM     12  C   LIG d   1       4.421  83.154 114.555  0.00  0.00     0.006 C 
ENDBRANCH   8  11
ENDBRANCH   7   8
ENDBRANCH   1   7
BRANCH   6  13
ATOM     13  N   LIG d   1       0.384  80.313 112.400  0.00  0.00    -0.311 N 
ATOM     14  C   LIG d   1      -0.799  79.919 112.869  0.00  0.00     0.210 C 
ATOM     15  C   LIG d   1      -0.742  79.111 114.169  0.00  0.00     0.109 C 
ATOM     16  O   LIG d   1      -1.887  80.135 112.315  0.00  0.00    -0.276 OA
ATOM     17  H   LIG d   1       1.218  80.066 112.895  0.00  0.00     0.149 HD
ENDBRANCH   6  13
BRANCH   5  18
ATOM     18  N   LIG d   1      -0.455  79.412 109.603  0.00  0.00     0.381 N 
ATOM     19  H   LIG d   1      -1.034  79.340 110.416  0.00  0.00    -0.090 HD
ATOM     20  H   LIG d   1      -0.148  78.488 109.353  0.00  0.00    -0.090 HD
ATOM     21  H   LIG d   1      -0.972  79.813 108.852  0.00  0.00    -0.090 HD
ENDBRANCH   5  18
BRANCH   3  22
ATOM     22  C   LIG d   1       2.737  82.500 107.811  0.00  0.00     0.382 C 
ATOM     23  O   LIG d   1       2.165  83.055 106.842  0.00  0.00    -0.241 OA
ATOM     24  O   LIG d   1       3.964  82.289 107.760  0.00  0.00    -0.241 OA
ENDBRANCH   3  22
TORSDOF 7
ENDMDL
MODEL 9
REMARK VINA RESULT:      -4.5      2.812      5.792
REMARK  7 active torsions:
REMARK  status: ('A' for Active; 'I' for Inactive)
REMARK    1  A    between atoms: C_2  and  C_3 
REMARK    2  A    between atoms: C_3  and  O_6 
REMARK    3  A    between atoms: C_3  and  C_4 
REMARK    4  A    between atoms: C_7  and  O_6 
REMARK    5  A    between atoms: C_9  and  C_10 
REMARK    6  A    between atoms: N_15  and  C_14 
REMARK    7  A    between atoms: N_20  and  C_19 
REMARK       I    between atoms: C_22  and  N_20 
ROOT
ATOM      1  C   LIG d   1       2.677  83.606 111.229  0.00  0.00     0.161 C 
ATOM      2  C   LIG d   1       3.196  82.748 110.244  0.00  0.00     0.016 C 
ATOM      3  C   LIG d   1       3.956  81.594 110.540  0.00  0.00     0.038 C 
ATOM      4  C   LIG d   1       4.123  81.132 111.854  0.00  0.00     0.028 C 
ATOM      5  C   LIG d   1       4.046  82.240 112.899  0.00  0.00    -0.047 C 
ATOM      6  C   LIG d   1       2.755  83.058 112.669  0.00  0.00     0.091 C 
ENDROOT
BRANCH   1   7
ATOM      7  O   LIG d   1       1.320  83.963 110.901  0.00  0.00    -0.368 OA
BRANCH   7   8
ATOM      8  C   LIG d   1       1.087  85.357 110.583  0.00  0.00     0.119 C 
BRANCH   8   9
ATOM      9  C   LIG d   1       0.058  85.897 111.595  0.00  0.00     0.028 C 
ATOM     10  C   LIG d   1      -1.033  86.748 110.925  0.00  0.00     0.006 C 
ENDBRANCH   8   9
BRANCH   8  11
ATOM     11  C   LIG d   1       0.425  85.512 109.210  0.00  0.00     0.028 C 
ATOM     12  C   LIG d   1       1.233  84.854 108.081  0.00  0.00     0.006 C 
ENDBRANCH   8  11
ENDBRANCH   7   8
ENDBRANCH   1   7
BRANCH   6  13
ATOM     13  N   LIG d   1       2.644  84.214 113.597  0.00  0.00    -0.311 N 
ATOM     14  C   LIG d   1       3.370  85.324 113.475  0.00  0.00     0.210 C 
ATOM     15  C   LIG d   1       3.113  86.385 114.550  0.00  0.00     0.109 C 
ATOM     16  O   LIG d   1       4.179  85.543 112.561  0.00  0.00    -0.276 OA
ATOM     17  H   LIG d   1       1.988  84.133 114.350  0.00  0.00     0.149 HD
ENDBRANCH   6  13
BRANCH   5  18
ATOM     18  N   LIG d   1       4.098  81.602 114.228  0.00  0.00     0.381 N 
ATOM     19  H   LIG d   1       3.862  82.271 114.934  0.00  0.00    -0.090 HD
ATOM     20  H   LIG d   1       5.035  81.281 114.399  0.00  0.00    -0.090 HD
ATOM     21  H   LIG d   1       3.464  80.835 114.263  0.00  0.00    -0.090 HD
ENDBRANCH   5  18
BRANCH   3  22
ATOM     22  C   LIG d   1       4.593  80.909 109.515  0.00  0.00     0.382 C 
ATOM     23  O   LIG d   1       4.452  81.287 108.327  0.00  0.00    -0.241 OA
ATOM     24  O   LIG d   1       5.270  79.893 109.760  0.00  0.00    -0.241 OA
ENDBRANCH   3  22
TORSDOF 7
ENDMDL
