MODEL 1
REMARK VINA RESULT:      -5.1      0.000      0.000
REMARK  7 active torsions:
REMARK  status: ('A' for Active; 'I' for Inactive)
REMARK    1  A    between atoms: C_2  and  C_3 
REMARK    2  A    between atoms: C_3  and  O_6 
REMARK    3  A    between atoms: C_3  and  C_4 
REMARK    4  A    between atoms: C_7  and  O_6 
REMARK    5  A    between atoms: C_9  and  C_10 
REMARK    6  A    between atoms: N_15  and  C_14 
REMARK    7  A    between atoms: N_20  and  C_19 
REMARK       I    between atoms: C_22  and  N_20 
ROOT
ATOM      1  C   LIG d   1      -1.931  75.590 115.356  0.00  0.00     0.161 C 
ATOM      2  C   LIG d   1      -1.619  74.976 116.581  0.00  0.00     0.016 C 
ATOM      3  C   LIG d   1      -0.948  75.637 117.635  0.00  0.00     0.038 C 
ATOM      4  C   LIG d   1      -0.677  77.013 117.593  0.00  0.00     0.028 C 
ATOM      5  C   LIG d   1      -0.520  77.557 116.177  0.00  0.00    -0.047 C 
ATOM      6  C   LIG d   1      -1.742  77.121 115.335  0.00  0.00     0.091 C 
ENDROOT
BRANCH   1   7
ATOM      7  O   LIG d   1      -3.275  75.246 114.966  0.00  0.00    -0.368 OA
BRANCH   7   8
ATOM      8  C   LIG d   1      -4.212  75.009 116.045  0.00  0.00     0.119 C 
BRANCH   8   9
ATOM      9  C   LIG d   1      -5.312  74.074 115.507  0.00  0.00     0.028 C 
ATOM     10  C   LIG d   1      -6.272  73.600 116.611  0.00  0.00     0.006 C 
ENDBRANCH   8   9
BRANCH   8  11
ATOM     11  C   LIG d   1      -4.937  76.298 116.446  0.00  0.00     0.028 C 
ATOM     12  C   LIG d   1      -4.648  76.717 117.896  0.00  0.00     0.006 C 
ENDBRANCH   8  11
ENDBRANCH   7   8
ENDBRANCH   1   7
BRANCH   6  13
ATOM     13  N   LIG d   1      -1.628  77.540 113.913  0.00  0.00    -0.311 N 
ATOM     14  C   LIG d   1      -2.193  78.645 113.427  0.00  0.00     0.210 C 
ATOM     15  C   LIG d   1      -1.969  78.880 111.930  0.00  0.00     0.109 C 
ATOM     16  O   LIG d   1      -2.830  79.468 114.101  0.00  0.00    -0.276 OA
ATOM     17  H   LIG d   1      -1.102  76.946 113.303  0.00  0.00     0.149 HD
ENDBRANCH   6  13
BRANCH   5  18
ATOM     18  N   LIG d   1      -0.378  79.022 116.275  0.00  0.00     0.381 N 
ATOM     19  H   LIG d   1       0.222  79.353 115.546  0.00  0.00    -0.090 HD
ATOM     20  H   LIG d   1       0.043  79.249 117.158  0.00  0.00    -0.090 HD
ATOM     21  H   LIG d   1      -1.272  79.456 116.203  0.00  0.00    -0.090 HD
ENDBRANCH   5  18
BRANCH   3  22
ATOM     22  C   LIG d   1      -0.507  74.912 118.731  0.00  0.00     0.382 C 
ATOM     23  O   LIG d   1       0.636  75.125 119.205  0.00  0.00    -0.241 OA
ATOM     24  O   LIG d   1      -1.218  74.016 119.224  0.00  0.00    -0.241 OA
ENDBRANCH   3  22
TORSDOF 7
ENDMDL
MODEL 2
REMARK VINA RESULT:      -5.0      2.660      4.866
REMARK  7 active torsions:
REMARK  status: ('A' for Active; 'I' for Inactive)
REMARK    1  A    between atoms: C_2  and  C_3 
REMARK    2  A    between atoms: C_3  and  O_6 
REMARK    3  A    between atoms: C_3  and  C_4 
REMARK    4  A    between atoms: C_7  and  O_6 
REMARK    5  A    between atoms: C_9  and  C_10 
REMARK    6  A    between atoms: N_15  and  C_14 
REMARK    7  A    between atoms: N_20  and  C_19 
REMARK       I    between atoms: C_22  and  N_20 
ROOT
ATOM      1  C   LIG d   1      -4.444  76.372 117.892  0.00  0.00     0.161 C 
ATOM      2  C   LIG d   1      -5.624  77.116 117.727  0.00  0.00     0.016 C 
ATOM      3  C   LIG d   1      -5.640  78.476 117.343  0.00  0.00     0.038 C 
ATOM      4  C   LIG d   1      -4.474  79.148 116.947  0.00  0.00     0.028 C 
ATOM      5  C   LIG d   1      -3.206  78.586 117.582  0.00  0.00    -0.047 C 
ATOM      6  C   LIG d   1      -3.168  77.057 117.358  0.00  0.00     0.091 C 
ENDROOT
BRANCH   1   7
ATOM      7  O   LIG d   1      -4.600  75.069 117.297  0.00  0.00    -0.368 OA
BRANCH   7   8
ATOM      8  C   LIG d   1      -5.819  74.855 116.543  0.00  0.00     0.119 C 
BRANCH   8   9
ATOM      9  C   LIG d   1      -6.485  73.579 117.094  0.00  0.00     0.028 C 
ATOM     10  C   LIG d   1      -6.198  72.344 116.224  0.00  0.00     0.006 C 
ENDBRANCH   8   9
BRANCH   8  11
ATOM     11  C   LIG d   1      -5.519  74.552 115.072  0.00  0.00     0.028 C 
ATOM     12  C   LIG d   1      -5.430  75.821 114.209  0.00  0.00     0.006 C 
ENDBRANCH   8  11
ENDBRANCH   7   8
ENDBRANCH   1   7
BRANCH   6  13
ATOM     13  N   LIG d   1      -2.003  76.416 118.020  0.00  0.00    -0.311 N 
ATOM     14  C   LIG d   1      -0.845  76.184 117.404  0.00  0.00     0.210 C 
ATOM     15  C   LIG d   1       0.219  75.495 118.263  0.00  0.00     0.109 C 
ATOM     16  O   LIG d   1      -0.587  76.514 116.236  0.00  0.00    -0.276 OA
ATOM     17  H   LIG d   1      -2.114  76.145 118.978  0.00  0.00     0.149 HD
ENDBRANCH   6  13
BRANCH   5  18
ATOM     18  N   LIG d   1      -2.057  79.287 116.978  0.00  0.00     0.381 N 
ATOM     19  H   LIG d   1      -1.417  78.620 116.595  0.00  0.00    -0.090 HD
ATOM     20  H   LIG d   1      -1.580  79.807 117.694  0.00  0.00    -0.090 HD
ATOM     21  H   LIG d   1      -2.372  79.905 116.263  0.00  0.00    -0.090 HD
ENDBRANCH   5  18
BRANCH   3  22
ATOM     22  C   LIG d   1      -6.828  79.190 117.389  0.00  0.00     0.382 C 
ATOM     23  O   LIG d   1      -6.811  80.441 117.293  0.00  0.00    -0.241 OA
ATOM     24  O   LIG d   1      -7.911  78.603 117.570  0.00  0.00    -0.241 OA
ENDBRANCH   3  22
TORSDOF 7
ENDMDL
MODEL 3
REMARK VINA RESULT:      -5.0      2.565      5.421
REMARK  7 active torsions:
REMARK  status: ('A' for Active; 'I' for Inactive)
REMARK    1  A    between atoms: C_2  and  C_3 
REMARK    2  A    between atoms: C_3  and  O_6 
REMARK    3  A    between atoms: C_3  and  C_4 
REMARK    4  A    between atoms: C_7  and  O_6 
REMARK    5  A    between atoms: C_9  and  C_10 
REMARK    6  A    between atoms: N_15  and  C_14 
REMARK    7  A    between atoms: N_20  and  C_19 
REMARK       I    between atoms: C_22  and  N_20 
ROOT
ATOM      1  C   LIG d   1      -2.855  74.894 116.093  0.00  0.00     0.161 C 
ATOM      2  C   LIG d   1      -2.163  76.037 115.660  0.00  0.00     0.016 C 
ATOM      3  C   LIG d   1      -2.774  77.092 114.945  0.00  0.00     0.038 C 
ATOM      4  C   LIG d   1      -4.161  77.147 114.744  0.00  0.00     0.028 C 
ATOM      5  C   LIG d   1      -4.824  75.774 114.722  0.00  0.00    -0.047 C 
ATOM      6  C   LIG d   1      -4.391  74.987 115.981  0.00  0.00     0.091 C 
ENDROOT
BRANCH   1   7
ATOM      7  O   LIG d   1      -2.470  74.572 117.444  0.00  0.00    -0.368 OA
BRANCH   7   8
ATOM      8  C   LIG d   1      -1.634  75.545 118.118  0.00  0.00     0.119 C 
BRANCH   8   9
ATOM      9  C   LIG d   1      -0.555  74.768 118.896  0.00  0.00     0.028 C 
ATOM     10  C   LIG d   1      -1.131  74.017 120.108  0.00  0.00     0.006 C 
ENDBRANCH   8   9
BRANCH   8  11
ATOM     11  C   LIG d   1      -2.423  76.317 119.180  0.00  0.00     0.028 C 
ATOM     12  C   LIG d   1      -1.989  77.787 119.293  0.00  0.00     0.006 C 
ENDBRANCH   8  11
ENDBRANCH   7   8
ENDBRANCH   1   7
BRANCH   6  13
ATOM     13  N   LIG d   1      -4.929  73.601 115.996  0.00  0.00    -0.311 N 
ATOM     14  C   LIG d   1      -6.134  73.287 116.467  0.00  0.00     0.210 C 
ATOM     15  C   LIG d   1      -6.484  71.797 116.407  0.00  0.00     0.109 C 
ATOM     16  O   LIG d   1      -6.960  74.106 116.899  0.00  0.00    -0.276 OA
ATOM     17  H   LIG d   1      -4.337  72.879 115.634  0.00  0.00     0.149 HD
ENDBRANCH   6  13
BRANCH   5  18
ATOM     18  N   LIG d   1      -6.282  75.984 114.645  0.00  0.00     0.381 N 
ATOM     19  H   LIG d   1      -6.649  75.519 113.838  0.00  0.00    -0.090 HD
ATOM     20  H   LIG d   1      -6.464  76.968 114.551  0.00  0.00    -0.090 HD
ATOM     21  H   LIG d   1      -6.721  75.634 115.468  0.00  0.00    -0.090 HD
ENDBRANCH   5  18
BRANCH   3  22
ATOM     22  C   LIG d   1      -1.988  78.089 114.387  0.00  0.00     0.382 C 
ATOM     23  O   LIG d   1      -1.768  78.096 113.152  0.00  0.00    -0.241 OA
ATOM     24  O   LIG d   1      -1.460  78.956 115.109  0.00  0.00    -0.241 OA
ENDBRANCH   3  22
TORSDOF 7
ENDMDL
MODEL 4
REMARK VINA RESULT:      -5.0     15.291     17.368
REMARK  7 active torsions:
REMARK  status: ('A' for Active; 'I' for Inactive)
REMARK    1  A    between atoms: C_2  and  C_3 
REMARK    2  A    between atoms: C_3  and  O_6 
REMARK    3  A    between atoms: C_3  and  C_4 
REMARK    4  A    between atoms: C_7  and  O_6 
REMARK    5  A    between atoms: C_9  and  C_10 
REMARK    6  A    between atoms: N_15  and  C_14 
REMARK    7  A    between atoms: N_20  and  C_19 
REMARK       I    between atoms: C_22  and  N_20 
ROOT
ATOM      1  C   LIG d   1      -6.077  92.650 118.111  0.00  0.00     0.161 C 
ATOM      2  C   LIG d   1      -4.897  93.368 118.366  0.00  0.00     0.016 C 
ATOM      3  C   LIG d   1      -3.618  92.938 117.944  0.00  0.00     0.038 C 
ATOM      4  C   LIG d   1      -3.449  91.829 117.101  0.00  0.00     0.028 C 
ATOM      5  C   LIG d   1      -4.558  90.791 117.237  0.00  0.00    -0.047 C 
ATOM      6  C   LIG d   1      -5.926  91.496 117.098  0.00  0.00     0.091 C 
ENDROOT
BRANCH   1   7
ATOM      7  O   LIG d   1      -7.117  93.555 117.689  0.00  0.00    -0.368 OA
BRANCH   7   8
ATOM      8  C   LIG d   1      -7.211  94.802 118.419  0.00  0.00     0.119 C 
BRANCH   8   9
ATOM      9  C   LIG d   1      -8.035  94.532 119.694  0.00  0.00     0.028 C 
ATOM     10  C   LIG d   1      -7.245  94.834 120.978  0.00  0.00     0.006 C 
ENDBRANCH   8   9
BRANCH   8  11
ATOM     11  C   LIG d   1      -8.009  95.848 117.635  0.00  0.00     0.028 C 
ATOM     12  C   LIG d   1      -7.373  97.246 117.688  0.00  0.00     0.006 C 
ENDBRANCH   8  11
ENDBRANCH   7   8
ENDBRANCH   1   7
BRANCH   6  13
ATOM     13  N   LIG d   1      -7.067  90.566 117.303  0.00  0.00    -0.311 N 
ATOM     14  C   LIG d   1      -7.605  89.839 116.325  0.00  0.00     0.210 C 
ATOM     15  C   LIG d   1      -8.786  88.960 116.747  0.00  0.00     0.109 C 
ATOM     16  O   LIG d   1      -7.194  89.814 115.155  0.00  0.00    -0.276 OA
ATOM     17  H   LIG d   1      -7.442  90.501 118.229  0.00  0.00     0.149 HD
ENDBRANCH   6  13
BRANCH   5  18
ATOM     18  N   LIG d   1      -4.332  89.759 116.207  0.00  0.00     0.381 N 
ATOM     19  H   LIG d   1      -5.076  89.779 115.539  0.00  0.00    -0.090 HD
ATOM     20  H   LIG d   1      -4.327  88.856 116.648  0.00  0.00    -0.090 HD
ATOM     21  H   LIG d   1      -3.461  89.919 115.750  0.00  0.00    -0.090 HD
ENDBRANCH   5  18
BRANCH   3  22
ATOM     22  C   LIG d   1      -2.486  93.597 118.399  0.00  0.00     0.382 C 
ATOM     23  O   LIG d   1      -1.546  93.847 117.607  0.00  0.00    -0.241 OA
ATOM     24  O   LIG d   1      -2.374  93.905 119.600  0.00  0.00    -0.241 OA
ENDBRANCH   3  22
TORSDOF 7
ENDMDL
MODEL 5
REMARK VINA RESULT:      -5.0     14.500     16.811
REMARK  7 active torsions:
REMARK  status: ('A' for Active; 'I' for Inactive)
REMARK    1  A    between atoms: C_2  and  C_3 
REMARK    2  A    between atoms: C_3  and  O_6 
REMARK    3  A    between atoms: C_3  and  C_4 
REMARK    4  A    between atoms: C_7  and  O_6 
REMARK    5  A    between atoms: C_9  and  C_10 
REMARK    6  A    between atoms: N_15  and  C_14 
REMARK    7  A    between atoms: N_20  and  C_19 
REMARK       I    between atoms: C_22  and  N_20 
ROOT
ATOM      1  C   LIG d   1      -5.258  92.819 116.948  0.00  0.00     0.161 C 
ATOM      2  C   LIG d   1      -6.436  92.186 116.515  0.00  0.00     0.016 C 
ATOM      3  C   LIG d   1      -6.527  90.797 116.269  0.00  0.00     0.038 C 
ATOM      4  C   LIG d   1      -5.481  89.917 116.586  0.00  0.00     0.028 C 
ATOM      5  C   LIG d   1      -4.105  90.573 116.549  0.00  0.00    -0.047 C 
ATOM      6  C   LIG d   1      -4.140  91.859 117.406  0.00  0.00     0.091 C 
ENDROOT
BRANCH   1   7
ATOM      7  O   LIG d   1      -5.567  93.763 117.992  0.00  0.00    -0.368 OA
BRANCH   7   8
ATOM      8  C   LIG d   1      -6.565  93.345 118.956  0.00  0.00     0.119 C 
BRANCH   8   9
ATOM      9  C   LIG d   1      -7.486  94.551 119.222  0.00  0.00     0.028 C 
ATOM     10  C   LIG d   1      -7.572  95.501 118.016  0.00  0.00     0.006 C 
ENDBRANCH   8   9
BRANCH   8  11
ATOM     11  C   LIG d   1      -5.928  93.014 120.309  0.00  0.00     0.028 C 
ATOM     12  C   LIG d   1      -4.645  93.815 120.576  0.00  0.00     0.006 C 
ENDBRANCH   8  11
ENDBRANCH   7   8
ENDBRANCH   1   7
BRANCH   6  13
ATOM     13  N   LIG d   1      -2.857  92.608 117.357  0.00  0.00    -0.311 N 
ATOM     14  C   LIG d   1      -1.905  92.493 118.281  0.00  0.00     0.210 C 
ATOM     15  C   LIG d   1      -0.670  93.369 118.049  0.00  0.00     0.109 C 
ATOM     16  O   LIG d   1      -1.951  91.724 119.253  0.00  0.00    -0.276 OA
ATOM     17  H   LIG d   1      -2.722  93.232 116.585  0.00  0.00     0.149 HD
ENDBRANCH   6  13
BRANCH   5  18
ATOM     18  N   LIG d   1      -3.126  89.582 117.033  0.00  0.00     0.381 N 
ATOM     19  H   LIG d   1      -2.316  89.591 116.445  0.00  0.00    -0.090 HD
ATOM     20  H   LIG d   1      -3.539  88.668 116.987  0.00  0.00    -0.090 HD
ATOM     21  H   LIG d   1      -2.865  89.790 117.972  0.00  0.00    -0.090 HD
ENDBRANCH   5  18
BRANCH   3  22
ATOM     22  C   LIG d   1      -7.661  90.280 115.661  0.00  0.00     0.382 C 
ATOM     23  O   LIG d   1      -8.230  90.922 114.745  0.00  0.00    -0.241 OA
ATOM     24  O   LIG d   1      -8.148  89.200 116.047  0.00  0.00    -0.241 OA
ENDBRANCH   3  22
TORSDOF 7
ENDMDL
MODEL 6
REMARK VINA RESULT:      -4.9     15.674     17.901
REMARK  7 active torsions:
REMARK  status: ('A' for Active; 'I' for Inactive)
REMARK    1  A    between atoms: C_2  and  C_3 
REMARK    2  A    between atoms: C_3  and  O_6 
REMARK    3  A    between atoms: C_3  and  C_4 
REMARK    4  A    between atoms: C_7  and  O_6 
REMARK    5  A    between atoms: C_9  and  C_10 
REMARK    6  A    between atoms: N_15  and  C_14 
REMARK    7  A    between atoms: N_20  and  C_19 
REMARK       I    between atoms: C_22  and  N_20 
ROOT
ATOM      1  C   LIG d   1      -5.831  92.527 118.586  0.00  0.00     0.161 C 
ATOM      2  C   LIG d   1      -5.109  91.464 118.019  0.00  0.00     0.016 C 
ATOM      3  C   LIG d   1      -5.212  91.092 116.658  0.00  0.00     0.038 C 
ATOM      4  C   LIG d   1      -5.935  91.859 115.733  0.00  0.00     0.028 C 
ATOM      5  C   LIG d   1      -7.081  92.644 116.361  0.00  0.00    -0.047 C 
ATOM      6  C   LIG d   1      -6.540  93.444 117.568  0.00  0.00     0.091 C 
ENDROOT
BRANCH   1   7
ATOM      7  O   LIG d   1      -4.968  93.302 119.442  0.00  0.00    -0.368 OA
BRANCH   7   8
ATOM      8  C   LIG d   1      -4.230  94.372 118.803  0.00  0.00     0.119 C 
BRANCH   8   9
ATOM      9  C   LIG d   1      -2.729  94.078 118.993  0.00  0.00     0.028 C 
ATOM     10  C   LIG d   1      -2.072  93.532 117.715  0.00  0.00     0.006 C 
ENDBRANCH   8   9
BRANCH   8  11
ATOM     11  C   LIG d   1      -4.473  95.712 119.504  0.00  0.00     0.028 C 
ATOM     12  C   LIG d   1      -3.261  96.654 119.424  0.00  0.00     0.006 C 
ENDBRANCH   8  11
ENDBRANCH   7   8
ENDBRANCH   1   7
BRANCH   6  13
ATOM     13  N   LIG d   1      -7.613  94.175 118.291  0.00  0.00    -0.311 N 
ATOM     14  C   LIG d   1      -7.903  95.456 118.072  0.00  0.00     0.210 C 
ATOM     15  C   LIG d   1      -9.032  96.021 118.940  0.00  0.00     0.109 C 
ATOM     16  O   LIG d   1      -7.355  96.170 117.218  0.00  0.00    -0.276 OA
ATOM     17  H   LIG d   1      -8.129  93.663 118.979  0.00  0.00     0.149 HD
ENDBRANCH   6  13
BRANCH   5  18
ATOM     18  N   LIG d   1      -7.661  93.503 115.311  0.00  0.00     0.381 N 
ATOM     19  H   LIG d   1      -7.130  93.412 114.468  0.00  0.00    -0.090 HD
ATOM     20  H   LIG d   1      -7.614  94.461 115.612  0.00  0.00    -0.090 HD
ATOM     21  H   LIG d   1      -8.609  93.246 115.145  0.00  0.00    -0.090 HD
ENDBRANCH   5  18
BRANCH   3  22
ATOM     22  C   LIG d   1      -4.618  89.918 116.220  0.00  0.00     0.382 C 
ATOM     23  O   LIG d   1      -4.981  89.398 115.138  0.00  0.00    -0.241 OA
ATOM     24  O   LIG d   1      -3.756  89.348 116.916  0.00  0.00    -0.241 OA
ENDBRANCH   3  22
TORSDOF 7
ENDMDL
MODEL 7
REMARK VINA RESULT:      -4.9     15.890     17.979
REMARK  7 active torsions:
REMARK  status: ('A' for Active; 'I' for Inactive)
REMARK    1  A    between atoms: C_2  and  C_3 
REMARK    2  A    between atoms: C_3  and  O_6 
REMARK    3  A    between atoms: C_3  and  C_4 
REMARK    4  A    between atoms: C_7  and  O_6 
REMARK    5  A    between atoms: C_9  and  C_10 
REMARK    6  A    between atoms: N_15  and  C_14 
REMARK    7  A    between atoms: N_20  and  C_19 
REMARK       I    between atoms: C_22  and  N_20 
ROOT
ATOM      1  C   LIG d   1      -6.199  93.255 117.893  0.00  0.00     0.161 C 
ATOM      2  C   LIG d   1      -6.563  92.029 117.313  0.00  0.00     0.016 C 
ATOM      3  C   LIG d   1      -5.625  91.081 116.842  0.00  0.00     0.038 C 
ATOM      4  C   LIG d   1      -4.247  91.231 117.059  0.00  0.00     0.028 C 
ATOM      5  C   LIG d   1      -3.809  92.686 117.189  0.00  0.00    -0.047 C 
ATOM      6  C   LIG d   1      -4.701  93.387 118.239  0.00  0.00     0.091 C 
ENDROOT
BRANCH   1   7
ATOM      7  O   LIG d   1      -7.007  93.501 119.061  0.00  0.00    -0.368 OA
BRANCH   7   8
ATOM      8  C   LIG d   1      -7.879  94.657 119.001  0.00  0.00     0.119 C 
BRANCH   8   9
ATOM      9  C   LIG d   1      -7.699  95.300 117.612  0.00  0.00     0.028 C 
ATOM     10  C   LIG d   1      -7.466  96.818 117.694  0.00  0.00     0.006 C 
ENDBRANCH   8   9
BRANCH   8  11
ATOM     11  C   LIG d   1      -7.451  95.732 120.004  0.00  0.00     0.028 C 
ATOM     12  C   LIG d   1      -6.728  95.149 121.229  0.00  0.00     0.006 C 
ENDBRANCH   8  11
ENDBRANCH   7   8
ENDBRANCH   1   7
BRANCH   6  13
ATOM     13  N   LIG d   1      -4.395  94.835 118.367  0.00  0.00    -0.311 N 
ATOM     14  C   LIG d   1      -3.577  95.333 119.294  0.00  0.00     0.210 C 
ATOM     15  C   LIG d   1      -3.416  96.856 119.262  0.00  0.00     0.109 C 
ATOM     16  O   LIG d   1      -2.946  94.655 120.117  0.00  0.00    -0.276 OA
ATOM     17  H   LIG d   1      -4.840  95.455 117.719  0.00  0.00     0.149 HD
ENDBRANCH   6  13
BRANCH   5  18
ATOM     18  N   LIG d   1      -2.379  92.691 117.549  0.00  0.00     0.381 N 
ATOM     19  H   LIG d   1      -2.257  93.115 118.447  0.00  0.00    -0.090 HD
ATOM     20  H   LIG d   1      -1.875  93.236 116.872  0.00  0.00    -0.090 HD
ATOM     21  H   LIG d   1      -2.028  91.758 117.564  0.00  0.00    -0.090 HD
ENDBRANCH   5  18
BRANCH   3  22
ATOM     22  C   LIG d   1      -6.061  89.988 116.110  0.00  0.00     0.382 C 
ATOM     23  O   LIG d   1      -5.406  89.598 115.113  0.00  0.00    -0.241 OA
ATOM     24  O   LIG d   1      -7.126  89.412 116.406  0.00  0.00    -0.241 OA
ENDBRANCH   3  22
TORSDOF 7
ENDMDL
MODEL 8
REMARK VINA RESULT:      -4.9      2.193      4.717
REMARK  7 active torsions:
REMARK  status: ('A' for Active; 'I' for Inactive)
REMARK    1  A    between atoms: C_2  and  C_3 
REMARK    2  A    between atoms: C_3  and  O_6 
REMARK    3  A    between atoms: C_3  and  C_4 
REMARK    4  A    between atoms: C_7  and  O_6 
REMARK    5  A    between atoms: C_9  and  C_10 
REMARK    6  A    between atoms: N_15  and  C_14 
REMARK    7  A    between atoms: N_20  and  C_19 
REMARK       I    between atoms: C_22  and  N_20 
ROOT
ATOM      1  C   LIG d   1      -3.204  77.223 117.107  0.00  0.00     0.161 C 
ATOM      2  C   LIG d   1      -4.027  76.398 116.321  0.00  0.00     0.016 C 
ATOM      3  C   LIG d   1      -4.026  76.419 114.907  0.00  0.00     0.038 C 
ATOM      4  C   LIG d   1      -3.087  77.162 114.177  0.00  0.00     0.028 C 
ATOM      5  C   LIG d   1      -2.575  78.390 114.923  0.00  0.00    -0.047 C 
ATOM      6  C   LIG d   1      -2.095  77.960 116.328  0.00  0.00     0.091 C 
ENDROOT
BRANCH   1   7
ATOM      7  O   LIG d   1      -2.634  76.457 118.186  0.00  0.00    -0.368 OA
BRANCH   7   8
ATOM      8  C   LIG d   1      -1.369  75.808 117.909  0.00  0.00     0.119 C 
BRANCH   8   9
ATOM      9  C   LIG d   1      -1.678  74.376 117.431  0.00  0.00     0.028 C 
ATOM     10  C   LIG d   1      -1.178  74.114 116.000  0.00  0.00     0.006 C 
ENDBRANCH   8   9
BRANCH   8  11
ATOM     11  C   LIG d   1      -0.537  75.639 119.184  0.00  0.00     0.028 C 
ATOM     12  C   LIG d   1      -0.723  74.261 119.839  0.00  0.00     0.006 C 
ENDBRANCH   8  11
ENDBRANCH   7   8
ENDBRANCH   1   7
BRANCH   6  13
ATOM     13  N   LIG d   1      -1.656  79.114 117.155  0.00  0.00    -0.311 N 
ATOM     14  C   LIG d   1      -0.387  79.332 117.495  0.00  0.00     0.210 C 
ATOM     15  C   LIG d   1      -0.154  80.568 118.369  0.00  0.00     0.109 C 
ATOM     16  O   LIG d   1       0.573  78.636 117.129  0.00  0.00    -0.276 OA
ATOM     17  H   LIG d   1      -2.366  79.746 117.469  0.00  0.00     0.149 HD
ENDBRANCH   6  13
BRANCH   5  18
ATOM     18  N   LIG d   1      -1.505  78.993 114.106  0.00  0.00     0.381 N 
ATOM     19  H   LIG d   1      -1.221  78.352 113.392  0.00  0.00    -0.090 HD
ATOM     20  H   LIG d   1      -0.712  79.179 114.695  0.00  0.00    -0.090 HD
ATOM     21  H   LIG d   1      -1.827  79.841 113.693  0.00  0.00    -0.090 HD
ENDBRANCH   5  18
BRANCH   3  22
ATOM     22  C   LIG d   1      -4.999  75.719 114.209  0.00  0.00     0.382 C 
ATOM     23  O   LIG d   1      -5.050  74.468 114.289  0.00  0.00    -0.241 OA
ATOM     24  O   LIG d   1      -5.797  76.320 113.466  0.00  0.00    -0.241 OA
ENDBRANCH   3  22
TORSDOF 7
ENDMDL
MODEL 9
REMARK VINA RESULT:      -4.9     15.719     18.075
REMARK  7 active torsions:
REMARK  status: ('A' for Active; 'I' for Inactive)
REMARK    1  A    between atoms: C_2  and  C_3 
REMARK    2  A    between atoms: C_3  and  O_6 
REMARK    3  A    between atoms: C_3  and  C_4 
REMARK    4  A    between atoms: C_7  and  O_6 
REMARK    5  A    between atoms: C_9  and  C_10 
REMARK    6  A    between atoms: N_15  and  C_14 
REMARK    7  A    between atoms: N_20  and  C_19 
REMARK       I    between atoms: C_22  and  N_20 
ROOT
ATOM      1  C   LIG d   1     -16.708  67.952 118.293  0.00  0.00     0.161 C 
ATOM      2  C   LIG d   1     -17.559  67.735 119.390  0.00  0.00     0.016 C 
ATOM      3  C   LIG d   1     -18.791  67.049 119.295  0.00  0.00     0.038 C 
ATOM      4  C   LIG d   1     -19.188  66.397 118.117  0.00  0.00     0.028 C 
ATOM      5  C   LIG d   1     -18.602  67.018 116.854  0.00  0.00    -0.047 C 
ATOM      6  C   LIG d   1     -17.071  67.152 117.025  0.00  0.00     0.091 C 
ENDROOT
BRANCH   1   7
ATOM      7  O   LIG d   1     -15.343  67.693 118.676  0.00  0.00    -0.368 OA
BRANCH   7   8
ATOM      8  C   LIG d   1     -15.152  66.754 119.762  0.00  0.00     0.119 C 
BRANCH   8   9
ATOM      9  C   LIG d   1     -13.979  67.268 120.618  0.00  0.00     0.028 C 
ATOM     10  C   LIG d   1     -13.248  66.133 121.356  0.00  0.00     0.006 C 
ENDBRANCH   8   9
BRANCH   8  11
ATOM     11  C   LIG d   1     -14.706  65.384 119.243  0.00  0.00     0.028 C 
ATOM     12  C   LIG d   1     -15.843  64.350 119.235  0.00  0.00     0.006 C 
ENDBRANCH   8  11
ENDBRANCH   7   8
ENDBRANCH   1   7
BRANCH   6  13
ATOM     13  N   LIG d   1     -16.429  67.829 115.868  0.00  0.00    -0.311 N 
ATOM     14  C   LIG d   1     -15.695  67.188 114.959  0.00  0.00     0.210 C 
ATOM     15  C   LIG d   1     -15.108  68.078 113.859  0.00  0.00     0.109 C 
ATOM     16  O   LIG d   1     -15.502  65.963 114.942  0.00  0.00    -0.276 OA
ATOM     17  H   LIG d   1     -16.560  68.818 115.787  0.00  0.00     0.149 HD
ENDBRANCH   6  13
BRANCH   5  18
ATOM     18  N   LIG d   1     -18.984  66.160 115.717  0.00  0.00     0.381 N 
ATOM     19  H   LIG d   1     -18.352  66.307 114.955  0.00  0.00    -0.090 HD
ATOM     20  H   LIG d   1     -19.908  66.414 115.414  0.00  0.00    -0.090 HD
ATOM     21  H   LIG d   1     -18.967  65.202 115.992  0.00  0.00    -0.090 HD
ENDBRANCH   5  18
BRANCH   3  22
ATOM     22  C   LIG d   1     -19.660  67.044 120.375  0.00  0.00     0.382 C 
ATOM     23  O   LIG d   1     -19.569  67.931 121.258  0.00  0.00    -0.241 OA
ATOM     24  O   LIG d   1     -20.506  66.138 120.501  0.00  0.00    -0.241 OA
ENDBRANCH   3  22
TORSDOF 7
ENDMDL
