MODEL 1
REMARK VINA RESULT:      -6.6      0.000      0.000
REMARK  7 active torsions:
REMARK  status: ('A' for Active; 'I' for Inactive)
REMARK    1  A    between atoms: C_2  and  C_3 
REMARK    2  A    between atoms: C_3  and  O_6 
REMARK    3  A    between atoms: C_3  and  C_4 
REMARK    4  A    between atoms: C_7  and  O_6 
REMARK    5  A    between atoms: C_9  and  C_10 
REMARK    6  A    between atoms: N_15  and  C_14 
REMARK    7  A    between atoms: N_20  and  C_19 
REMARK       I    between atoms: C_22  and  N_20 
ROOT
ATOM      1  C   LIG d   1       1.629  83.407 111.476  0.00  0.00     0.161 C 
ATOM      2  C   LIG d   1       2.591  83.383 110.452  0.00  0.00     0.016 C 
ATOM      3  C   LIG d   1       2.677  82.351 109.489  0.00  0.00     0.038 C 
ATOM      4  C   LIG d   1       1.706  81.344 109.393  0.00  0.00     0.028 C 
ATOM      5  C   LIG d   1       1.008  81.048 110.716  0.00  0.00    -0.047 C 
ATOM      6  C   LIG d   1       0.493  82.374 111.320  0.00  0.00     0.091 C 
ENDROOT
BRANCH   1   7
ATOM      7  O   LIG d   1       1.085  84.735 111.604  0.00  0.00    -0.368 OA
BRANCH   7   8
ATOM      8  C   LIG d   1       1.293  85.621 110.476  0.00  0.00     0.119 C 
BRANCH   8   9
ATOM      9  C   LIG d   1       1.577  87.027 111.039  0.00  0.00     0.028 C 
ATOM     10  C   LIG d   1       2.821  87.058 111.942  0.00  0.00     0.006 C 
ENDBRANCH   8   9
BRANCH   8  11
ATOM     11  C   LIG d   1       0.017  85.768 109.641  0.00  0.00     0.028 C 
ATOM     12  C   LIG d   1      -1.056  86.620 110.337  0.00  0.00     0.006 C 
ENDBRANCH   8  11
ENDBRANCH   7   8
ENDBRANCH   1   7
BRANCH   6  13
ATOM     13  N   LIG d   1      -0.129  82.185 112.656  0.00  0.00    -0.311 N 
ATOM     14  C   LIG d   1      -1.438  82.023 112.839  0.00  0.00     0.210 C 
ATOM     15  C   LIG d   1      -1.873  81.864 114.299  0.00  0.00     0.109 C 
ATOM     16  O   LIG d   1      -2.278  81.963 111.928  0.00  0.00    -0.276 OA
ATOM     17  H   LIG d   1       0.483  82.189 113.449  0.00  0.00     0.149 HD
ENDBRANCH   6  13
BRANCH   5  18
ATOM     18  N   LIG d   1      -0.072  80.079 110.444  0.00  0.00     0.381 N 
ATOM     19  H   LIG d   1      -0.822  80.535 109.964  0.00  0.00    -0.090 HD
ATOM     20  H   LIG d   1      -0.423  79.730 111.318  0.00  0.00    -0.090 HD
ATOM     21  H   LIG d   1       0.277  79.327 109.892  0.00  0.00    -0.090 HD
ENDBRANCH   5  18
BRANCH   3  22
ATOM     22  C   LIG d   1       3.767  82.299 108.633  0.00  0.00     0.382 C 
ATOM     23  O   LIG d   1       4.916  82.559 109.065  0.00  0.00    -0.241 OA
ATOM     24  O   LIG d   1       3.610  82.039 107.425  0.00  0.00    -0.241 OA
ENDBRANCH   3  22
TORSDOF 7
ENDMDL
MODEL 2
REMARK VINA RESULT:      -6.2      1.724      4.936
REMARK  7 active torsions:
REMARK  status: ('A' for Active; 'I' for Inactive)
REMARK    1  A    between atoms: C_2  and  C_3 
REMARK    2  A    between atoms: C_3  and  O_6 
REMARK    3  A    between atoms: C_3  and  C_4 
REMARK    4  A    between atoms: C_7  and  O_6 
REMARK    5  A    between atoms: C_9  and  C_10 
REMARK    6  A    between atoms: N_15  and  C_14 
REMARK    7  A    between atoms: N_20  and  C_19 
REMARK       I    between atoms: C_22  and  N_20 
ROOT
ATOM      1  C   LIG d   1       0.518  83.096 111.776  0.00  0.00     0.161 C 
ATOM      2  C   LIG d   1      -0.703  82.760 112.385  0.00  0.00     0.016 C 
ATOM      3  C   LIG d   1      -1.317  81.494 112.251  0.00  0.00     0.038 C 
ATOM      4  C   LIG d   1      -0.673  80.420 111.618  0.00  0.00     0.028 C 
ATOM      5  C   LIG d   1       0.332  80.857 110.558  0.00  0.00    -0.047 C 
ATOM      6  C   LIG d   1       1.290  81.903 111.174  0.00  0.00     0.091 C 
ENDROOT
BRANCH   1   7
ATOM      7  O   LIG d   1       1.350  83.810 112.711  0.00  0.00    -0.368 OA
BRANCH   7   8
ATOM      8  C   LIG d   1       1.511  85.229 112.467  0.00  0.00     0.119 C 
BRANCH   8   9
ATOM      9  C   LIG d   1       1.165  85.486 110.988  0.00  0.00     0.028 C 
ATOM     10  C   LIG d   1       0.105  86.587 110.815  0.00  0.00     0.006 C 
ENDBRANCH   8   9
BRANCH   8  11
ATOM     11  C   LIG d   1       2.972  85.659 112.623  0.00  0.00     0.028 C 
ATOM     12  C   LIG d   1       3.734  85.675 111.288  0.00  0.00     0.006 C 
ENDBRANCH   8  11
ENDBRANCH   7   8
ENDBRANCH   1   7
BRANCH   6  13
ATOM     13  N   LIG d   1       2.252  82.445 110.180  0.00  0.00    -0.311 N 
ATOM     14  C   LIG d   1       3.504  82.008 110.058  0.00  0.00     0.210 C 
ATOM     15  C   LIG d   1       4.335  82.718 108.984  0.00  0.00     0.109 C 
ATOM     16  O   LIG d   1       3.996  81.079 110.715  0.00  0.00    -0.276 OA
ATOM     17  H   LIG d   1       1.926  83.181 109.584  0.00  0.00     0.149 HD
ENDBRANCH   6  13
BRANCH   5  18
ATOM     18  N   LIG d   1       1.027  79.648 110.078  0.00  0.00     0.381 N 
ATOM     19  H   LIG d   1       1.835  79.910 109.549  0.00  0.00    -0.090 HD
ATOM     20  H   LIG d   1       0.409  79.135 109.475  0.00  0.00    -0.090 HD
ATOM     21  H   LIG d   1       1.297  79.080 110.850  0.00  0.00    -0.090 HD
ENDBRANCH   5  18
BRANCH   3  22
ATOM     22  C   LIG d   1      -2.608  81.303 112.720  0.00  0.00     0.382 C 
ATOM     23  O   LIG d   1      -3.239  82.262 113.225  0.00  0.00    -0.241 OA
ATOM     24  O   LIG d   1      -3.133  80.174 112.684  0.00  0.00    -0.241 OA
ENDBRANCH   3  22
TORSDOF 7
ENDMDL
MODEL 3
REMARK VINA RESULT:      -6.0      2.455      5.166
REMARK  7 active torsions:
REMARK  status: ('A' for Active; 'I' for Inactive)
REMARK    1  A    between atoms: C_2  and  C_3 
REMARK    2  A    between atoms: C_3  and  O_6 
REMARK    3  A    between atoms: C_3  and  C_4 
REMARK    4  A    between atoms: C_7  and  O_6 
REMARK    5  A    between atoms: C_9  and  C_10 
REMARK    6  A    between atoms: N_15  and  C_14 
REMARK    7  A    between atoms: N_20  and  C_19 
REMARK       I    between atoms: C_22  and  N_20 
ROOT
ATOM      1  C   LIG d   1       1.631  83.918 111.687  0.00  0.00     0.161 C 
ATOM      2  C   LIG d   1       0.729  82.842 111.645  0.00  0.00     0.016 C 
ATOM      3  C   LIG d   1      -0.418  82.756 112.468  0.00  0.00     0.038 C 
ATOM      4  C   LIG d   1      -0.825  83.820 113.286  0.00  0.00     0.028 C 
ATOM      5  C   LIG d   1       0.326  84.714 113.735  0.00  0.00    -0.047 C 
ATOM      6  C   LIG d   1       1.143  85.140 112.494  0.00  0.00     0.091 C 
ENDROOT
BRANCH   1   7
ATOM      7  O   LIG d   1       1.984  84.312 110.346  0.00  0.00    -0.368 OA
BRANCH   7   8
ATOM      8  C   LIG d   1       0.960  84.127 109.337  0.00  0.00     0.119 C 
BRANCH   8   9
ATOM      9  C   LIG d   1       1.623  83.442 108.126  0.00  0.00     0.028 C 
ATOM     10  C   LIG d   1       2.840  82.591 108.526  0.00  0.00     0.006 C 
ENDBRANCH   8   9
BRANCH   8  11
ATOM     11  C   LIG d   1       0.445  85.470 108.812  0.00  0.00     0.028 C 
ATOM     12  C   LIG d   1      -0.794  85.971 109.571  0.00  0.00     0.006 C 
ENDBRANCH   8  11
ENDBRANCH   7   8
ENDBRANCH   1   7
BRANCH   6  13
ATOM     13  N   LIG d   1       2.338  85.948 112.852  0.00  0.00    -0.311 N 
ATOM     14  C   LIG d   1       2.687  87.063 112.213  0.00  0.00     0.210 C 
ATOM     15  C   LIG d   1       3.965  87.732 112.730  0.00  0.00     0.109 C 
ATOM     16  O   LIG d   1       2.042  87.580 111.289  0.00  0.00    -0.276 OA
ATOM     17  H   LIG d   1       2.901  85.618 113.611  0.00  0.00     0.149 HD
ENDBRANCH   6  13
BRANCH   5  18
ATOM     18  N   LIG d   1      -0.255  85.857 114.464  0.00  0.00     0.381 N 
ATOM     19  H   LIG d   1      -0.561  86.553 113.815  0.00  0.00    -0.090 HD
ATOM     20  H   LIG d   1       0.453  86.262 115.051  0.00  0.00    -0.090 HD
ATOM     21  H   LIG d   1      -1.023  85.551 115.021  0.00  0.00    -0.090 HD
ENDBRANCH   5  18
BRANCH   3  22
ATOM     22  C   LIG d   1      -1.150  81.579 112.506  0.00  0.00     0.382 C 
ATOM     23  O   LIG d   1      -2.293  81.534 111.991  0.00  0.00    -0.241 OA
ATOM     24  O   LIG d   1      -0.699  80.574 113.087  0.00  0.00    -0.241 OA
ENDBRANCH   3  22
TORSDOF 7
ENDMDL
MODEL 4
REMARK VINA RESULT:      -5.9      1.980      4.465
REMARK  7 active torsions:
REMARK  status: ('A' for Active; 'I' for Inactive)
REMARK    1  A    between atoms: C_2  and  C_3 
REMARK    2  A    between atoms: C_3  and  O_6 
REMARK    3  A    between atoms: C_3  and  C_4 
REMARK    4  A    between atoms: C_7  and  O_6 
REMARK    5  A    between atoms: C_9  and  C_10 
REMARK    6  A    between atoms: N_15  and  C_14 
REMARK    7  A    between atoms: N_20  and  C_19 
REMARK       I    between atoms: C_22  and  N_20 
ROOT
ATOM      1  C   LIG d   1       0.535  84.096 110.620  0.00  0.00     0.161 C 
ATOM      2  C   LIG d   1       1.337  85.249 110.571  0.00  0.00     0.016 C 
ATOM      3  C   LIG d   1       1.759  85.953 111.722  0.00  0.00     0.038 C 
ATOM      4  C   LIG d   1       1.531  85.463 113.017  0.00  0.00     0.028 C 
ATOM      5  C   LIG d   1       0.295  84.575 113.119  0.00  0.00    -0.047 C 
ATOM      6  C   LIG d   1       0.369  83.483 112.027  0.00  0.00     0.091 C 
ENDROOT
BRANCH   1   7
ATOM      7  O   LIG d   1       1.041  83.109 109.700  0.00  0.00    -0.368 OA
BRANCH   7   8
ATOM      8  C   LIG d   1       2.351  82.567 110.003  0.00  0.00     0.119 C 
BRANCH   8   9
ATOM      9  C   LIG d   1       3.184  82.619 108.708  0.00  0.00     0.028 C 
ATOM     10  C   LIG d   1       4.651  82.217 108.937  0.00  0.00     0.006 C 
ENDBRANCH   8   9
BRANCH   8  11
ATOM     11  C   LIG d   1       2.268  81.083 110.373  0.00  0.00     0.028 C 
ATOM     12  C   LIG d   1       1.096  80.363 109.687  0.00  0.00     0.006 C 
ENDBRANCH   8  11
ENDBRANCH   7   8
ENDBRANCH   1   7
BRANCH   6  13
ATOM     13  N   LIG d   1      -0.842  82.622 112.002  0.00  0.00    -0.311 N 
ATOM     14  C   LIG d   1      -0.918  81.447 112.624  0.00  0.00     0.210 C 
ATOM     15  C   LIG d   1      -2.252  80.712 112.454  0.00  0.00     0.109 C 
ATOM     16  O   LIG d   1      -0.021  80.959 113.327  0.00  0.00    -0.276 OA
ATOM     17  H   LIG d   1      -1.629  82.957 111.481  0.00  0.00     0.149 HD
ENDBRANCH   6  13
BRANCH   5  18
ATOM     18  N   LIG d   1       0.255  84.023 114.486  0.00  0.00     0.381 N 
ATOM     19  H   LIG d   1       1.174  84.032 114.882  0.00  0.00    -0.090 HD
ATOM     20  H   LIG d   1      -0.061  83.070 114.443  0.00  0.00    -0.090 HD
ATOM     21  H   LIG d   1      -0.364  84.560 115.053  0.00  0.00    -0.090 HD
ENDBRANCH   5  18
BRANCH   3  22
ATOM     22  C   LIG d   1       2.383  87.184 111.585  0.00  0.00     0.382 C 
ATOM     23  O   LIG d   1       3.635  87.252 111.552  0.00  0.00    -0.241 OA
ATOM     24  O   LIG d   1       1.710  88.231 111.537  0.00  0.00    -0.241 OA
ENDBRANCH   3  22
TORSDOF 7
ENDMDL
MODEL 5
REMARK VINA RESULT:      -5.9      2.462      5.561
REMARK  7 active torsions:
REMARK  status: ('A' for Active; 'I' for Inactive)
REMARK    1  A    between atoms: C_2  and  C_3 
REMARK    2  A    between atoms: C_3  and  O_6 
REMARK    3  A    between atoms: C_3  and  C_4 
REMARK    4  A    between atoms: C_7  and  O_6 
REMARK    5  A    between atoms: C_9  and  C_10 
REMARK    6  A    between atoms: N_15  and  C_14 
REMARK    7  A    between atoms: N_20  and  C_19 
REMARK       I    between atoms: C_22  and  N_20 
ROOT
ATOM      1  C   LIG d   1       2.157  82.485 112.291  0.00  0.00     0.161 C 
ATOM      2  C   LIG d   1       1.193  81.467 112.376  0.00  0.00     0.016 C 
ATOM      3  C   LIG d   1      -0.199  81.706 112.310  0.00  0.00     0.038 C 
ATOM      4  C   LIG d   1      -0.720  82.971 112.001  0.00  0.00     0.028 C 
ATOM      5  C   LIG d   1       0.196  84.120 112.408  0.00  0.00    -0.047 C 
ATOM      6  C   LIG d   1       1.611  83.857 111.843  0.00  0.00     0.091 C 
ENDROOT
BRANCH   1   7
ATOM      7  O   LIG d   1       3.234  82.069 111.428  0.00  0.00    -0.368 OA
BRANCH   7   8
ATOM      8  C   LIG d   1       2.934  82.023 110.012  0.00  0.00     0.119 C 
BRANCH   8   9
ATOM      9  C   LIG d   1       3.222  80.590 109.523  0.00  0.00     0.028 C 
ATOM     10  C   LIG d   1       1.937  79.821 109.172  0.00  0.00     0.006 C 
ENDBRANCH   8   9
BRANCH   8  11
ATOM     11  C   LIG d   1       3.882  82.922 109.212  0.00  0.00     0.028 C 
ATOM     12  C   LIG d   1       4.622  82.165 108.098  0.00  0.00     0.006 C 
ENDBRANCH   8  11
ENDBRANCH   7   8
ENDBRANCH   1   7
BRANCH   6  13
ATOM     13  N   LIG d   1       2.591  84.891 112.265  0.00  0.00    -0.311 N 
ATOM     14  C   LIG d   1       2.859  85.983 111.550  0.00  0.00     0.210 C 
ATOM     15  C   LIG d   1       3.917  86.910 112.158  0.00  0.00     0.109 C 
ATOM     16  O   LIG d   1       2.298  86.287 110.487  0.00  0.00    -0.276 OA
ATOM     17  H   LIG d   1       3.069  84.740 113.132  0.00  0.00     0.149 HD
ENDBRANCH   6  13
BRANCH   5  18
ATOM     18  N   LIG d   1      -0.405  85.369 111.904  0.00  0.00     0.381 N 
ATOM     19  H   LIG d   1      -0.753  85.910 112.670  0.00  0.00    -0.090 HD
ATOM     20  H   LIG d   1      -1.177  85.139 111.303  0.00  0.00    -0.090 HD
ATOM     21  H   LIG d   1       0.274  85.895 111.399  0.00  0.00    -0.090 HD
ENDBRANCH   5  18
BRANCH   3  22
ATOM     22  C   LIG d   1      -1.086  80.679 112.594  0.00  0.00     0.382 C 
ATOM     23  O   LIG d   1      -0.805  79.833 113.477  0.00  0.00    -0.241 OA
ATOM     24  O   LIG d   1      -2.145  80.562 111.948  0.00  0.00    -0.241 OA
ENDBRANCH   3  22
TORSDOF 7
ENDMDL
MODEL 6
REMARK VINA RESULT:      -5.5      2.126      4.638
REMARK  7 active torsions:
REMARK  status: ('A' for Active; 'I' for Inactive)
REMARK    1  A    between atoms: C_2  and  C_3 
REMARK    2  A    between atoms: C_3  and  O_6 
REMARK    3  A    between atoms: C_3  and  C_4 
REMARK    4  A    between atoms: C_7  and  O_6 
REMARK    5  A    between atoms: C_9  and  C_10 
REMARK    6  A    between atoms: N_15  and  C_14 
REMARK    7  A    between atoms: N_20  and  C_19 
REMARK       I    between atoms: C_22  and  N_20 
ROOT
ATOM      1  C   LIG d   1       0.129  82.274 110.081  0.00  0.00     0.161 C 
ATOM      2  C   LIG d   1       0.950  81.154 109.868  0.00  0.00     0.016 C 
ATOM      3  C   LIG d   1       2.359  81.227 109.781  0.00  0.00     0.038 C 
ATOM      4  C   LIG d   1       3.058  82.412 110.053  0.00  0.00     0.028 C 
ATOM      5  C   LIG d   1       2.246  83.672 109.774  0.00  0.00    -0.047 C 
ATOM      6  C   LIG d   1       0.881  83.558 110.490  0.00  0.00     0.091 C 
ENDROOT
BRANCH   1   7
ATOM      7  O   LIG d   1      -0.888  81.958 111.051  0.00  0.00    -0.368 OA
BRANCH   7   8
ATOM      8  C   LIG d   1      -0.585  80.872 111.962  0.00  0.00     0.119 C 
BRANCH   8   9
ATOM      9  C   LIG d   1      -1.892  80.094 112.206  0.00  0.00     0.028 C 
ATOM     10  C   LIG d   1      -1.707  78.932 113.197  0.00  0.00     0.006 C 
ENDBRANCH   8   9
BRANCH   8  11
ATOM     11  C   LIG d   1      -0.164  81.400 113.337  0.00  0.00     0.028 C 
ATOM     12  C   LIG d   1      -0.849  82.726 113.702  0.00  0.00     0.006 C 
ENDBRANCH   8  11
ENDBRANCH   7   8
ENDBRANCH   1   7
BRANCH   6  13
ATOM     13  N   LIG d   1      -0.010  84.712 110.201  0.00  0.00    -0.311 N 
ATOM     14  C   LIG d   1      -0.126  85.768 111.004  0.00  0.00     0.210 C 
ATOM     15  C   LIG d   1      -1.114  86.837 110.528  0.00  0.00     0.109 C 
ATOM     16  O   LIG d   1       0.520  85.936 112.050  0.00  0.00    -0.276 OA
ATOM     17  H   LIG d   1      -0.547  84.673 109.356  0.00  0.00     0.149 HD
ENDBRANCH   6  13
BRANCH   5  18
ATOM     18  N   LIG d   1       3.043  84.826 110.230  0.00  0.00     0.381 N 
ATOM     19  H   LIG d   1       3.102  84.824 111.229  0.00  0.00    -0.090 HD
ATOM     20  H   LIG d   1       2.584  85.673 109.943  0.00  0.00    -0.090 HD
ATOM     21  H   LIG d   1       3.957  84.786 109.836  0.00  0.00    -0.090 HD
ENDBRANCH   5  18
BRANCH   3  22
ATOM     22  C   LIG d   1       3.081  80.113 109.379  0.00  0.00     0.382 C 
ATOM     23  O   LIG d   1       4.335  80.141 109.393  0.00  0.00    -0.241 OA
ATOM     24  O   LIG d   1       2.495  79.097 108.962  0.00  0.00    -0.241 OA
ENDBRANCH   3  22
TORSDOF 7
ENDMDL
MODEL 7
REMARK VINA RESULT:      -4.9      2.626      5.364
REMARK  7 active torsions:
REMARK  status: ('A' for Active; 'I' for Inactive)
REMARK    1  A    between atoms: C_2  and  C_3 
REMARK    2  A    between atoms: C_3  and  O_6 
REMARK    3  A    between atoms: C_3  and  C_4 
REMARK    4  A    between atoms: C_7  and  O_6 
REMARK    5  A    between atoms: C_9  and  C_10 
REMARK    6  A    between atoms: N_15  and  C_14 
REMARK    7  A    between atoms: N_20  and  C_19 
REMARK       I    between atoms: C_22  and  N_20 
ROOT
ATOM      1  C   LIG d   1       1.027  82.753 112.477  0.00  0.00     0.161 C 
ATOM      2  C   LIG d   1      -0.105  81.945 112.282  0.00  0.00     0.016 C 
ATOM      3  C   LIG d   1      -1.385  82.262 112.792  0.00  0.00     0.038 C 
ATOM      4  C   LIG d   1      -1.653  83.493 113.409  0.00  0.00     0.028 C 
ATOM      5  C   LIG d   1      -0.430  84.118 114.072  0.00  0.00    -0.047 C 
ATOM      6  C   LIG d   1       0.730  84.154 113.052  0.00  0.00     0.091 C 
ENDROOT
BRANCH   1   7
ATOM      7  O   LIG d   1       1.768  82.864 111.246  0.00  0.00    -0.368 OA
BRANCH   7   8
ATOM      8  C   LIG d   1       1.818  84.182 110.648  0.00  0.00     0.119 C 
BRANCH   8   9
ATOM      9  C   LIG d   1       0.874  84.175 109.430  0.00  0.00     0.028 C 
ATOM     10  C   LIG d   1      -0.284  85.175 109.579  0.00  0.00     0.006 C 
ENDBRANCH   8   9
BRANCH   8  11
ATOM     11  C   LIG d   1       3.208  84.485 110.082  0.00  0.00     0.028 C 
ATOM     12  C   LIG d   1       4.343  83.970 110.982  0.00  0.00     0.006 C 
ENDBRANCH   8  11
ENDBRANCH   7   8
ENDBRANCH   1   7
BRANCH   6  13
ATOM     13  N   LIG d   1       1.990  84.674 113.645  0.00  0.00    -0.311 N 
ATOM     14  C   LIG d   1       2.345  85.957 113.606  0.00  0.00     0.210 C 
ATOM     15  C   LIG d   1       3.693  86.276 114.260  0.00  0.00     0.109 C 
ATOM     16  O   LIG d   1       1.656  86.866 113.119  0.00  0.00    -0.276 OA
ATOM     17  H   LIG d   1       2.594  84.009 114.087  0.00  0.00     0.149 HD
ENDBRANCH   6  13
BRANCH   5  18
ATOM     18  N   LIG d   1      -0.820  85.457 114.554  0.00  0.00     0.381 N 
ATOM     19  H   LIG d   1      -0.810  86.106 113.793  0.00  0.00    -0.090 HD
ATOM     20  H   LIG d   1      -0.151  85.763 115.238  0.00  0.00    -0.090 HD
ATOM     21  H   LIG d   1      -1.729  85.422 114.959  0.00  0.00    -0.090 HD
ENDBRANCH   5  18
BRANCH   3  22
ATOM     22  C   LIG d   1      -2.404  81.324 112.723  0.00  0.00     0.382 C 
ATOM     23  O   LIG d   1      -3.587  81.697 112.535  0.00  0.00    -0.241 OA
ATOM     24  O   LIG d   1      -2.161  80.114 112.890  0.00  0.00    -0.241 OA
ENDBRANCH   3  22
TORSDOF 7
ENDMDL
MODEL 8
REMARK VINA RESULT:      -4.9      2.591      5.618
REMARK  7 active torsions:
REMARK  status: ('A' for Active; 'I' for Inactive)
REMARK    1  A    between atoms: C_2  and  C_3 
REMARK    2  A    between atoms: C_3  and  O_6 
REMARK    3  A    between atoms: C_3  and  C_4 
REMARK    4  A    between atoms: C_7  and  O_6 
REMARK    5  A    between atoms: C_9  and  C_10 
REMARK    6  A    between atoms: N_15  and  C_14 
REMARK    7  A    between atoms: N_20  and  C_19 
REMARK       I    between atoms: C_22  and  N_20 
ROOT
ATOM      1  C   LIG d   1       1.127  81.917 111.542  0.00  0.00     0.161 C 
ATOM      2  C   LIG d   1       0.181  80.936 111.882  0.00  0.00     0.016 C 
ATOM      3  C   LIG d   1      -1.019  81.219 112.574  0.00  0.00     0.038 C 
ATOM      4  C   LIG d   1      -1.429  82.534 112.841  0.00  0.00     0.028 C 
ATOM      5  C   LIG d   1      -0.269  83.516 112.964  0.00  0.00    -0.047 C 
ATOM      6  C   LIG d   1       0.645  83.371 111.726  0.00  0.00     0.091 C 
ENDROOT
BRANCH   1   7
ATOM      7  O   LIG d   1       1.583  81.708 110.190  0.00  0.00    -0.368 OA
BRANCH   7   8
ATOM      8  C   LIG d   1       2.954  81.265 110.042  0.00  0.00     0.119 C 
BRANCH   8   9
ATOM      9  C   LIG d   1       3.738  82.405 109.363  0.00  0.00     0.028 C 
ATOM     10  C   LIG d   1       4.361  81.973 108.025  0.00  0.00     0.006 C 
ENDBRANCH   8   9
BRANCH   8  11
ATOM     11  C   LIG d   1       3.056  80.076 109.082  0.00  0.00     0.028 C 
ATOM     12  C   LIG d   1       1.710  79.363 108.873  0.00  0.00     0.006 C 
ENDBRANCH   8  11
ENDBRANCH   7   8
ENDBRANCH   1   7
BRANCH   6  13
ATOM     13  N   LIG d   1       1.850  84.237 111.806  0.00  0.00    -0.311 N 
ATOM     14  C   LIG d   1       2.856  84.017 112.651  0.00  0.00     0.210 C 
ATOM     15  C   LIG d   1       3.993  85.042 112.585  0.00  0.00     0.109 C 
ATOM     16  O   LIG d   1       2.931  83.052 113.426  0.00  0.00    -0.276 OA
ATOM     17  H   LIG d   1       1.887  85.026 111.191  0.00  0.00     0.149 HD
ENDBRANCH   6  13
BRANCH   5  18
ATOM     18  N   LIG d   1      -0.843  84.868 113.104  0.00  0.00     0.381 N 
ATOM     19  H   LIG d   1      -1.102  85.221 112.204  0.00  0.00    -0.090 HD
ATOM     20  H   LIG d   1      -0.146  85.479 113.493  0.00  0.00    -0.090 HD
ATOM     21  H   LIG d   1      -1.640  84.840 113.700  0.00  0.00    -0.090 HD
ENDBRANCH   5  18
BRANCH   3  22
ATOM     22  C   LIG d   1      -1.805  80.177 113.042  0.00  0.00     0.382 C 
ATOM     23  O   LIG d   1      -1.271  79.094 113.385  0.00  0.00    -0.241 OA
ATOM     24  O   LIG d   1      -3.045  80.290 113.084  0.00  0.00    -0.241 OA
ENDBRANCH   3  22
TORSDOF 7
ENDMDL
MODEL 9
REMARK VINA RESULT:      -4.6      2.536      5.567
REMARK  7 active torsions:
REMARK  status: ('A' for Active; 'I' for Inactive)
REMARK    1  A    between atoms: C_2  and  C_3 
REMARK    2  A    between atoms: C_3  and  O_6 
REMARK    3  A    between atoms: C_3  and  C_4 
REMARK    4  A    between atoms: C_7  and  O_6 
REMARK    5  A    between atoms: C_9  and  C_10 
REMARK    6  A    between atoms: N_15  and  C_14 
REMARK    7  A    between atoms: N_20  and  C_19 
REMARK       I    between atoms: C_22  and  N_20 
ROOT
ATOM      1  C   LIG d   1       0.124  81.550 112.398  0.00  0.00     0.161 C 
ATOM      2  C   LIG d   1      -0.535  80.309 112.427  0.00  0.00     0.016 C 
ATOM      3  C   LIG d   1      -1.757  80.094 113.104  0.00  0.00     0.038 C 
ATOM      4  C   LIG d   1      -2.485  81.148 113.675  0.00  0.00     0.028 C 
ATOM      5  C   LIG d   1      -1.612  82.323 114.105  0.00  0.00    -0.047 C 
ATOM      6  C   LIG d   1      -0.710  82.738 112.921  0.00  0.00     0.091 C 
ENDROOT
BRANCH   1   7
ATOM      7  O   LIG d   1       0.599  81.819 111.064  0.00  0.00    -0.368 OA
BRANCH   7   8
ATOM      8  C   LIG d   1       2.027  82.020 110.924  0.00  0.00     0.119 C 
BRANCH   8   9
ATOM      9  C   LIG d   1       2.235  83.215 109.973  0.00  0.00     0.028 C 
ATOM     10  C   LIG d   1       0.913  83.906 109.600  0.00  0.00     0.006 C 
ENDBRANCH   8   9
BRANCH   8  11
ATOM     11  C   LIG d   1       2.691  80.828 110.228  0.00  0.00     0.028 C 
ATOM     12  C   LIG d   1       4.090  81.160 109.684  0.00  0.00     0.006 C 
ENDBRANCH   8  11
ENDBRANCH   7   8
ENDBRANCH   1   7
BRANCH   6  13
ATOM     13  N   LIG d   1       0.235  83.826 113.283  0.00  0.00    -0.311 N 
ATOM     14  C   LIG d   1       0.098  85.084 112.868  0.00  0.00     0.210 C 
ATOM     15  C   LIG d   1       1.195  86.044 113.340  0.00  0.00     0.109 C 
ATOM     16  O   LIG d   1      -0.845  85.503 112.180  0.00  0.00    -0.276 OA
ATOM     17  H   LIG d   1       1.013  83.581 113.864  0.00  0.00     0.149 HD
ENDBRANCH   6  13
BRANCH   5  18
ATOM     18  N   LIG d   1      -2.510  83.404 114.554  0.00  0.00     0.381 N 
ATOM     19  H   LIG d   1      -3.237  83.024 115.128  0.00  0.00    -0.090 HD
ATOM     20  H   LIG d   1      -2.934  83.830 113.749  0.00  0.00    -0.090 HD
ATOM     21  H   LIG d   1      -1.994  84.085 115.067  0.00  0.00    -0.090 HD
ENDBRANCH   5  18
BRANCH   3  22
ATOM     22  C   LIG d   1      -2.244  78.803 113.249  0.00  0.00     0.382 C 
ATOM     23  O   LIG d   1      -2.920  78.281 112.330  0.00  0.00    -0.241 OA
ATOM     24  O   LIG d   1      -2.053  78.171 114.305  0.00  0.00    -0.241 OA
ENDBRANCH   3  22
TORSDOF 7
ENDMDL
