MODEL 1
REMARK VINA RESULT:      -5.7      0.000      0.000
REMARK  7 active torsions:
REMARK  status: ('A' for Active; 'I' for Inactive)
REMARK    1  A    between atoms: C_2  and  C_3 
REMARK    2  A    between atoms: C_3  and  O_6 
REMARK    3  A    between atoms: C_3  and  C_4 
REMARK    4  A    between atoms: C_7  and  O_6 
REMARK    5  A    between atoms: C_9  and  C_10 
REMARK    6  A    between atoms: N_15  and  C_14 
REMARK    7  A    between atoms: N_20  and  C_19 
REMARK       I    between atoms: C_22  and  N_20 
ROOT
ATOM      1  C   LIG d   1      -5.066  91.810 118.136  0.00  0.00     0.161 C 
ATOM      2  C   LIG d   1      -5.230  90.908 117.072  0.00  0.00     0.016 C 
ATOM      3  C   LIG d   1      -6.376  90.882 116.244  0.00  0.00     0.038 C 
ATOM      4  C   LIG d   1      -7.376  91.862 116.330  0.00  0.00     0.028 C 
ATOM      5  C   LIG d   1      -7.495  92.485 117.717  0.00  0.00    -0.047 C 
ATOM      6  C   LIG d   1      -6.096  92.958 118.175  0.00  0.00     0.091 C 
ENDROOT
BRANCH   1   7
ATOM      7  O   LIG d   1      -3.726  92.340 118.125  0.00  0.00    -0.368 OA
BRANCH   7   8
ATOM      8  C   LIG d   1      -2.833  91.835 119.148  0.00  0.00     0.119 C 
BRANCH   8   9
ATOM      9  C   LIG d   1      -2.182  93.051 119.836  0.00  0.00     0.028 C 
ATOM     10  C   LIG d   1      -2.524  94.375 119.133  0.00  0.00     0.006 C 
ENDBRANCH   8   9
BRANCH   8  11
ATOM     11  C   LIG d   1      -1.672  91.046 118.535  0.00  0.00     0.028 C 
ATOM     12  C   LIG d   1      -1.959  89.539 118.441  0.00  0.00     0.006 C 
ENDBRANCH   8  11
ENDBRANCH   7   8
ENDBRANCH   1   7
BRANCH   6  13
ATOM     13  N   LIG d   1      -6.108  93.505 119.557  0.00  0.00    -0.311 N 
ATOM     14  C   LIG d   1      -6.308  94.792 119.835  0.00  0.00     0.210 C 
ATOM     15  C   LIG d   1      -6.260  95.148 121.324  0.00  0.00     0.109 C 
ATOM     16  O   LIG d   1      -6.552  95.668 118.991  0.00  0.00    -0.276 OA
ATOM     17  H   LIG d   1      -5.949  92.859 120.305  0.00  0.00     0.149 HD
ENDBRANCH   6  13
BRANCH   5  18
ATOM     18  N   LIG d   1      -8.476  93.583 117.629  0.00  0.00     0.381 N 
ATOM     19  H   LIG d   1      -8.001  94.452 117.487  0.00  0.00    -0.090 HD
ATOM     20  H   LIG d   1      -8.981  93.637 118.496  0.00  0.00    -0.090 HD
ATOM     21  H   LIG d   1      -9.109  93.416 116.878  0.00  0.00    -0.090 HD
ENDBRANCH   5  18
BRANCH   3  22
ATOM     22  C   LIG d   1      -6.549  89.842 115.343  0.00  0.00     0.382 C 
ATOM     23  O   LIG d   1      -7.681  89.623 114.847  0.00  0.00    -0.241 OA
ATOM     24  O   LIG d   1      -5.597  89.092 115.053  0.00  0.00    -0.241 OA
ENDBRANCH   3  22
TORSDOF 7
ENDMDL
MODEL 2
REMARK VINA RESULT:      -5.6     14.521     17.224
REMARK  7 active torsions:
REMARK  status: ('A' for Active; 'I' for Inactive)
REMARK    1  A    between atoms: C_2  and  C_3 
REMARK    2  A    between atoms: C_3  and  O_6 
REMARK    3  A    between atoms: C_3  and  C_4 
REMARK    4  A    between atoms: C_7  and  O_6 
REMARK    5  A    between atoms: C_9  and  C_10 
REMARK    6  A    between atoms: N_15  and  C_14 
REMARK    7  A    between atoms: N_20  and  C_19 
REMARK       I    between atoms: C_22  and  N_20 
ROOT
ATOM      1  C   LIG d   1      -9.721  76.337 117.673  0.00  0.00     0.161 C 
ATOM      2  C   LIG d   1     -10.520  77.345 118.237  0.00  0.00     0.016 C 
ATOM      3  C   LIG d   1     -10.045  78.645 118.525  0.00  0.00     0.038 C 
ATOM      4  C   LIG d   1      -8.771  79.074 118.125  0.00  0.00     0.028 C 
ATOM      5  C   LIG d   1      -7.759  77.939 118.007  0.00  0.00    -0.047 C 
ATOM      6  C   LIG d   1      -8.361  76.820 117.128  0.00  0.00     0.091 C 
ENDROOT
BRANCH   1   7
ATOM      7  O   LIG d   1     -10.458  75.649 116.643  0.00  0.00    -0.368 OA
BRANCH   7   8
ATOM      8  C   LIG d   1     -11.006  74.358 117.006  0.00  0.00     0.119 C 
BRANCH   8   9
ATOM      9  C   LIG d   1     -12.378  74.605 117.662  0.00  0.00     0.028 C 
ATOM     10  C   LIG d   1     -12.441  74.081 119.107  0.00  0.00     0.006 C 
ENDBRANCH   8   9
BRANCH   8  11
ATOM     11  C   LIG d   1     -10.158  73.675 118.083  0.00  0.00     0.028 C 
ATOM     12  C   LIG d   1      -9.294  72.533 117.526  0.00  0.00     0.006 C 
ENDBRANCH   8  11
ENDBRANCH   7   8
ENDBRANCH   1   7
BRANCH   6  13
ATOM     13  N   LIG d   1      -7.469  75.635 117.030  0.00  0.00    -0.311 N 
ATOM     14  C   LIG d   1      -6.993  75.168 115.877  0.00  0.00     0.210 C 
ATOM     15  C   LIG d   1      -6.108  73.924 115.999  0.00  0.00     0.109 C 
ATOM     16  O   LIG d   1      -7.194  75.685 114.768  0.00  0.00    -0.276 OA
ATOM     17  H   LIG d   1      -7.230  75.172 117.886  0.00  0.00     0.149 HD
ENDBRANCH   6  13
BRANCH   5  18
ATOM     18  N   LIG d   1      -6.516  78.507 117.452  0.00  0.00     0.381 N 
ATOM     19  H   LIG d   1      -6.593  79.503 117.397  0.00  0.00    -0.090 HD
ATOM     20  H   LIG d   1      -6.383  78.149 116.522  0.00  0.00    -0.090 HD
ATOM     21  H   LIG d   1      -5.741  78.257 118.026  0.00  0.00    -0.090 HD
ENDBRANCH   5  18
BRANCH   3  22
ATOM     22  C   LIG d   1     -10.835  79.520 119.255  0.00  0.00     0.382 C 
ATOM     23  O   LIG d   1     -10.888  80.732 118.937  0.00  0.00    -0.241 OA
ATOM     24  O   LIG d   1     -11.461  79.120 120.256  0.00  0.00    -0.241 OA
ENDBRANCH   3  22
TORSDOF 7
ENDMDL
MODEL 3
REMARK VINA RESULT:      -5.6      2.266      4.451
REMARK  7 active torsions:
REMARK  status: ('A' for Active; 'I' for Inactive)
REMARK    1  A    between atoms: C_2  and  C_3 
REMARK    2  A    between atoms: C_3  and  O_6 
REMARK    3  A    between atoms: C_3  and  C_4 
REMARK    4  A    between atoms: C_7  and  O_6 
REMARK    5  A    between atoms: C_9  and  C_10 
REMARK    6  A    between atoms: N_15  and  C_14 
REMARK    7  A    between atoms: N_20  and  C_19 
REMARK       I    between atoms: C_22  and  N_20 
ROOT
ATOM      1  C   LIG d   1      -6.878  93.387 118.102  0.00  0.00     0.161 C 
ATOM      2  C   LIG d   1      -7.615  92.502 117.297  0.00  0.00     0.016 C 
ATOM      3  C   LIG d   1      -7.071  91.324 116.735  0.00  0.00     0.038 C 
ATOM      4  C   LIG d   1      -5.786  90.869 117.067  0.00  0.00     0.028 C 
ATOM      5  C   LIG d   1      -4.833  91.988 117.474  0.00  0.00    -0.047 C 
ATOM      6  C   LIG d   1      -5.508  92.849 118.566  0.00  0.00     0.091 C 
ENDROOT
BRANCH   1   7
ATOM      7  O   LIG d   1      -7.669  93.788 119.238  0.00  0.00    -0.368 OA
BRANCH   7   8
ATOM      8  C   LIG d   1      -8.439  95.005 119.081  0.00  0.00     0.119 C 
BRANCH   8   9
ATOM      9  C   LIG d   1      -7.454  96.130 118.705  0.00  0.00     0.028 C 
ATOM     10  C   LIG d   1      -7.166  97.076 119.883  0.00  0.00     0.006 C 
ENDBRANCH   8   9
BRANCH   8  11
ATOM     11  C   LIG d   1      -9.067  95.443 120.407  0.00  0.00     0.028 C 
ATOM     12  C   LIG d   1      -9.866  94.320 121.087  0.00  0.00     0.006 C 
ENDBRANCH   8  11
ENDBRANCH   7   8
ENDBRANCH   1   7
BRANCH   6  13
ATOM     13  N   LIG d   1      -4.677  94.017 118.961  0.00  0.00    -0.311 N 
ATOM     14  C   LIG d   1      -4.459  94.367 120.227  0.00  0.00     0.210 C 
ATOM     15  C   LIG d   1      -3.590  95.615 120.413  0.00  0.00     0.109 C 
ATOM     16  O   LIG d   1      -4.876  93.744 121.215  0.00  0.00    -0.276 OA
ATOM     17  H   LIG d   1      -4.274  94.560 118.223  0.00  0.00     0.149 HD
ENDBRANCH   6  13
BRANCH   5  18
ATOM     18  N   LIG d   1      -3.577  91.362 117.925  0.00  0.00     0.381 N 
ATOM     19  H   LIG d   1      -2.900  92.070 118.130  0.00  0.00    -0.090 HD
ATOM     20  H   LIG d   1      -3.216  90.786 117.185  0.00  0.00    -0.090 HD
ATOM     21  H   LIG d   1      -3.744  90.807 118.736  0.00  0.00    -0.090 HD
ENDBRANCH   5  18
BRANCH   3  22
ATOM     22  C   LIG d   1      -7.802  90.609 115.799  0.00  0.00     0.382 C 
ATOM     23  O   LIG d   1      -7.774  89.355 115.807  0.00  0.00    -0.241 OA
ATOM     24  O   LIG d   1      -8.453  91.202 114.918  0.00  0.00    -0.241 OA
ENDBRANCH   3  22
TORSDOF 7
ENDMDL
MODEL 4
REMARK VINA RESULT:      -5.6     18.669     19.506
REMARK  7 active torsions:
REMARK  status: ('A' for Active; 'I' for Inactive)
REMARK    1  A    between atoms: C_2  and  C_3 
REMARK    2  A    between atoms: C_3  and  O_6 
REMARK    3  A    between atoms: C_3  and  C_4 
REMARK    4  A    between atoms: C_7  and  O_6 
REMARK    5  A    between atoms: C_9  and  C_10 
REMARK    6  A    between atoms: N_15  and  C_14 
REMARK    7  A    between atoms: N_20  and  C_19 
REMARK       I    between atoms: C_22  and  N_20 
ROOT
ATOM      1  C   LIG d   1     -11.413  72.971 119.900  0.00  0.00     0.161 C 
ATOM      2  C   LIG d   1     -10.256  72.564 119.216  0.00  0.00     0.016 C 
ATOM      3  C   LIG d   1      -9.874  73.083 117.957  0.00  0.00     0.038 C 
ATOM      4  C   LIG d   1     -10.549  74.160 117.363  0.00  0.00     0.028 C 
ATOM      5  C   LIG d   1     -12.013  74.260 117.777  0.00  0.00    -0.047 C 
ATOM      6  C   LIG d   1     -12.102  74.224 119.320  0.00  0.00     0.091 C 
ENDROOT
BRANCH   1   7
ATOM      7  O   LIG d   1     -11.113  73.166 121.296  0.00  0.00    -0.368 OA
BRANCH   7   8
ATOM      8  C   LIG d   1     -10.544  74.450 121.653  0.00  0.00     0.119 C 
BRANCH   8   9
ATOM      9  C   LIG d   1      -9.028  74.248 121.842  0.00  0.00     0.028 C 
ATOM     10  C   LIG d   1      -8.631  74.143 123.324  0.00  0.00     0.006 C 
ENDBRANCH   8   9
BRANCH   8  11
ATOM     11  C   LIG d   1     -11.062  74.931 123.011  0.00  0.00     0.028 C 
ATOM     12  C   LIG d   1     -12.289  74.143 123.494  0.00  0.00     0.006 C 
ENDBRANCH   8  11
ENDBRANCH   7   8
ENDBRANCH   1   7
BRANCH   6  13
ATOM     13  N   LIG d   1     -13.506  74.232 119.807  0.00  0.00    -0.311 N 
ATOM     14  C   LIG d   1     -14.048  75.256 120.464  0.00  0.00     0.210 C 
ATOM     15  C   LIG d   1     -15.503  75.051 120.895  0.00  0.00     0.109 C 
ATOM     16  O   LIG d   1     -13.471  76.328 120.703  0.00  0.00    -0.276 OA
ATOM     17  H   LIG d   1     -14.055  73.414 119.629  0.00  0.00     0.149 HD
ENDBRANCH   6  13
BRANCH   5  18
ATOM     18  N   LIG d   1     -12.557  75.501 117.196  0.00  0.00     0.381 N 
ATOM     19  H   LIG d   1     -12.060  75.729 116.357  0.00  0.00    -0.090 HD
ATOM     20  H   LIG d   1     -12.427  76.252 117.852  0.00  0.00    -0.090 HD
ATOM     21  H   LIG d   1     -13.526  75.388 116.996  0.00  0.00    -0.090 HD
ENDBRANCH   5  18
BRANCH   3  22
ATOM     22  C   LIG d   1      -8.829  72.495 117.261  0.00  0.00     0.382 C 
ATOM     23  O   LIG d   1      -8.813  71.253 117.084  0.00  0.00    -0.241 OA
ATOM     24  O   LIG d   1      -7.879  73.186 116.845  0.00  0.00    -0.241 OA
ENDBRANCH   3  22
TORSDOF 7
ENDMDL
MODEL 5
REMARK VINA RESULT:      -5.3     15.787     17.921
REMARK  7 active torsions:
REMARK  status: ('A' for Active; 'I' for Inactive)
REMARK    1  A    between atoms: C_2  and  C_3 
REMARK    2  A    between atoms: C_3  and  O_6 
REMARK    3  A    between atoms: C_3  and  C_4 
REMARK    4  A    between atoms: C_7  and  O_6 
REMARK    5  A    between atoms: C_9  and  C_10 
REMARK    6  A    between atoms: N_15  and  C_14 
REMARK    7  A    between atoms: N_20  and  C_19 
REMARK       I    between atoms: C_22  and  N_20 
ROOT
ATOM      1  C   LIG d   1      -8.739  74.964 117.378  0.00  0.00     0.161 C 
ATOM      2  C   LIG d   1      -8.578  73.572 117.267  0.00  0.00     0.016 C 
ATOM      3  C   LIG d   1      -9.369  72.638 117.974  0.00  0.00     0.038 C 
ATOM      4  C   LIG d   1     -10.484  73.032 118.729  0.00  0.00     0.028 C 
ATOM      5  C   LIG d   1     -10.376  74.453 119.272  0.00  0.00    -0.047 C 
ATOM      6  C   LIG d   1     -10.022  75.409 118.111  0.00  0.00     0.091 C 
ENDROOT
BRANCH   1   7
ATOM      7  O   LIG d   1      -8.673  75.569 116.071  0.00  0.00    -0.368 OA
BRANCH   7   8
ATOM      8  C   LIG d   1      -7.465  76.310 115.773  0.00  0.00     0.119 C 
BRANCH   8   9
ATOM      9  C   LIG d   1      -6.623  75.455 114.806  0.00  0.00     0.028 C 
ATOM     10  C   LIG d   1      -5.462  74.738 115.515  0.00  0.00     0.006 C 
ENDBRANCH   8   9
BRANCH   8  11
ATOM     11  C   LIG d   1      -6.595  76.484 117.022  0.00  0.00     0.028 C 
ATOM     12  C   LIG d   1      -6.534  77.941 117.507  0.00  0.00     0.006 C 
ENDBRANCH   8  11
ENDBRANCH   7   8
ENDBRANCH   1   7
BRANCH   6  13
ATOM     13  N   LIG d   1      -9.815  76.807 118.570  0.00  0.00    -0.311 N 
ATOM     14  C   LIG d   1     -10.785  77.720 118.602  0.00  0.00     0.210 C 
ATOM     15  C   LIG d   1     -10.353  79.106 119.091  0.00  0.00     0.109 C 
ATOM     16  O   LIG d   1     -11.969  77.504 118.302  0.00  0.00    -0.276 OA
ATOM     17  H   LIG d   1      -8.891  77.059 118.861  0.00  0.00     0.149 HD
ENDBRANCH   6  13
BRANCH   5  18
ATOM     18  N   LIG d   1     -11.660  74.781 119.921  0.00  0.00     0.381 N 
ATOM     19  H   LIG d   1     -12.250  75.269 119.276  0.00  0.00    -0.090 HD
ATOM     20  H   LIG d   1     -11.484  75.383 120.705  0.00  0.00    -0.090 HD
ATOM     21  H   LIG d   1     -12.110  73.946 120.227  0.00  0.00    -0.090 HD
ENDBRANCH   5  18
BRANCH   3  22
ATOM     22  C   LIG d   1      -9.024  71.295 117.961  0.00  0.00     0.382 C 
ATOM     23  O   LIG d   1      -9.570  70.500 118.762  0.00  0.00    -0.241 OA
ATOM     24  O   LIG d   1      -8.140  70.878 117.188  0.00  0.00    -0.241 OA
ENDBRANCH   3  22
TORSDOF 7
ENDMDL
MODEL 6
REMARK VINA RESULT:      -5.3     16.761     18.959
REMARK  7 active torsions:
REMARK  status: ('A' for Active; 'I' for Inactive)
REMARK    1  A    between atoms: C_2  and  C_3 
REMARK    2  A    between atoms: C_3  and  O_6 
REMARK    3  A    between atoms: C_3  and  C_4 
REMARK    4  A    between atoms: C_7  and  O_6 
REMARK    5  A    between atoms: C_9  and  C_10 
REMARK    6  A    between atoms: N_15  and  C_14 
REMARK    7  A    between atoms: N_20  and  C_19 
REMARK       I    between atoms: C_22  and  N_20 
ROOT
ATOM      1  C   LIG d   1     -10.479  74.074 118.569  0.00  0.00     0.161 C 
ATOM      2  C   LIG d   1      -9.965  72.834 118.154  0.00  0.00     0.016 C 
ATOM      3  C   LIG d   1      -8.764  72.696 117.420  0.00  0.00     0.038 C 
ATOM      4  C   LIG d   1      -7.912  73.784 117.180  0.00  0.00     0.028 C 
ATOM      5  C   LIG d   1      -8.639  75.125 117.141  0.00  0.00    -0.047 C 
ATOM      6  C   LIG d   1      -9.507  75.262 118.412  0.00  0.00     0.091 C 
ENDROOT
BRANCH   1   7
ATOM      7  O   LIG d   1     -10.941  73.980 119.931  0.00  0.00    -0.368 OA
BRANCH   7   8
ATOM      8  C   LIG d   1     -12.266  73.427 120.118  0.00  0.00     0.119 C 
BRANCH   8   9
ATOM      9  C   LIG d   1     -13.273  74.416 119.499  0.00  0.00     0.028 C 
ATOM     10  C   LIG d   1     -14.486  74.666 120.411  0.00  0.00     0.006 C 
ENDBRANCH   8   9
BRANCH   8  11
ATOM     11  C   LIG d   1     -12.634  73.350 121.603  0.00  0.00     0.028 C 
ATOM     12  C   LIG d   1     -11.548  73.940 122.516  0.00  0.00     0.006 C 
ENDBRANCH   8  11
ENDBRANCH   7   8
ENDBRANCH   1   7
BRANCH   6  13
ATOM     13  N   LIG d   1     -10.317  76.508 118.414  0.00  0.00    -0.311 N 
ATOM     14  C   LIG d   1      -9.920  77.639 118.995  0.00  0.00     0.210 C 
ATOM     15  C   LIG d   1     -10.915  78.800 118.897  0.00  0.00     0.109 C 
ATOM     16  O   LIG d   1      -8.825  77.801 119.554  0.00  0.00    -0.276 OA
ATOM     17  H   LIG d   1     -11.206  76.475 117.955  0.00  0.00     0.149 HD
ENDBRANCH   6  13
BRANCH   5  18
ATOM     18  N   LIG d   1      -7.617  76.182 117.021  0.00  0.00     0.381 N 
ATOM     19  H   LIG d   1      -6.740  75.778 116.758  0.00  0.00    -0.090 HD
ATOM     20  H   LIG d   1      -7.504  76.627 117.915  0.00  0.00    -0.090 HD
ATOM     21  H   LIG d   1      -7.899  76.853 116.341  0.00  0.00    -0.090 HD
ENDBRANCH   5  18
BRANCH   3  22
ATOM     22  C   LIG d   1      -8.425  71.463 116.883  0.00  0.00     0.382 C 
ATOM     23  O   LIG d   1      -7.543  71.388 115.993  0.00  0.00    -0.241 OA
ATOM     24  O   LIG d   1      -9.020  70.431 117.245  0.00  0.00    -0.241 OA
ENDBRANCH   3  22
TORSDOF 7
ENDMDL
MODEL 7
REMARK VINA RESULT:      -5.3     14.851     17.193
REMARK  7 active torsions:
REMARK  status: ('A' for Active; 'I' for Inactive)
REMARK    1  A    between atoms: C_2  and  C_3 
REMARK    2  A    between atoms: C_3  and  O_6 
REMARK    3  A    between atoms: C_3  and  C_4 
REMARK    4  A    between atoms: C_7  and  O_6 
REMARK    5  A    between atoms: C_9  and  C_10 
REMARK    6  A    between atoms: N_15  and  C_14 
REMARK    7  A    between atoms: N_20  and  C_19 
REMARK       I    between atoms: C_22  and  N_20 
ROOT
ATOM      1  C   LIG d   1      -9.266  75.870 117.243  0.00  0.00     0.161 C 
ATOM      2  C   LIG d   1      -8.451  74.867 116.694  0.00  0.00     0.016 C 
ATOM      3  C   LIG d   1      -7.067  75.032 116.456  0.00  0.00     0.038 C 
ATOM      4  C   LIG d   1      -6.370  76.168 116.895  0.00  0.00     0.028 C 
ATOM      5  C   LIG d   1      -7.244  77.413 116.999  0.00  0.00    -0.047 C 
ATOM      6  C   LIG d   1      -8.502  77.075 117.831  0.00  0.00     0.091 C 
ENDROOT
BRANCH   1   7
ATOM      7  O   LIG d   1     -10.141  75.299 118.236  0.00  0.00    -0.368 OA
BRANCH   7   8
ATOM      8  C   LIG d   1     -10.948  74.176 117.804  0.00  0.00     0.119 C 
BRANCH   8   9
ATOM      9  C   LIG d   1     -12.376  74.700 117.555  0.00  0.00     0.028 C 
ATOM     10  C   LIG d   1     -12.669  75.996 118.328  0.00  0.00     0.006 C 
ENDBRANCH   8   9
BRANCH   8  11
ATOM     11  C   LIG d   1     -11.088  73.131 118.915  0.00  0.00     0.028 C 
ATOM     12  C   LIG d   1      -9.844  72.239 119.054  0.00  0.00     0.006 C 
ENDBRANCH   8  11
ENDBRANCH   7   8
ENDBRANCH   1   7
BRANCH   6  13
ATOM     13  N   LIG d   1      -9.452  78.215 117.910  0.00  0.00    -0.311 N 
ATOM     14  C   LIG d   1      -9.478  79.079 118.923  0.00  0.00     0.210 C 
ATOM     15  C   LIG d   1     -10.549  80.169 118.817  0.00  0.00     0.109 C 
ATOM     16  O   LIG d   1      -8.693  79.066 119.884  0.00  0.00    -0.276 OA
ATOM     17  H   LIG d   1     -10.104  78.319 117.157  0.00  0.00     0.149 HD
ENDBRANCH   6  13
BRANCH   5  18
ATOM     18  N   LIG d   1      -6.425  78.484 117.597  0.00  0.00     0.381 N 
ATOM     19  H   LIG d   1      -6.545  78.487 118.591  0.00  0.00    -0.090 HD
ATOM     20  H   LIG d   1      -6.736  79.370 117.239  0.00  0.00    -0.090 HD
ATOM     21  H   LIG d   1      -5.465  78.345 117.372  0.00  0.00    -0.090 HD
ENDBRANCH   5  18
BRANCH   3  22
ATOM     22  C   LIG d   1      -6.373  74.071 115.737  0.00  0.00     0.382 C 
ATOM     23  O   LIG d   1      -6.465  72.861 116.056  0.00  0.00    -0.241 OA
ATOM     24  O   LIG d   1      -5.622  74.403 114.800  0.00  0.00    -0.241 OA
ENDBRANCH   3  22
TORSDOF 7
ENDMDL
MODEL 8
REMARK VINA RESULT:      -5.2     13.969     16.358
REMARK  7 active torsions:
REMARK  status: ('A' for Active; 'I' for Inactive)
REMARK    1  A    between atoms: C_2  and  C_3 
REMARK    2  A    between atoms: C_3  and  O_6 
REMARK    3  A    between atoms: C_3  and  C_4 
REMARK    4  A    between atoms: C_7  and  O_6 
REMARK    5  A    between atoms: C_9  and  C_10 
REMARK    6  A    between atoms: N_15  and  C_14 
REMARK    7  A    between atoms: N_20  and  C_19 
REMARK       I    between atoms: C_22  and  N_20 
ROOT
ATOM      1  C   LIG d   1      -9.920  77.337 118.142  0.00  0.00     0.161 C 
ATOM      2  C   LIG d   1      -8.844  78.192 117.849  0.00  0.00     0.016 C 
ATOM      3  C   LIG d   1      -8.668  79.457 118.456  0.00  0.00     0.038 C 
ATOM      4  C   LIG d   1      -9.479  79.891 119.514  0.00  0.00     0.028 C 
ATOM      5  C   LIG d   1     -10.877  79.282 119.495  0.00  0.00    -0.047 C 
ATOM      6  C   LIG d   1     -10.753  77.746 119.375  0.00  0.00     0.091 C 
ENDROOT
BRANCH   1   7
ATOM      7  O   LIG d   1      -9.444  75.984 118.285  0.00  0.00    -0.368 OA
BRANCH   7   8
ATOM      8  C   LIG d   1      -9.464  75.172 117.086  0.00  0.00     0.119 C 
BRANCH   8   9
ATOM      9  C   LIG d   1     -10.787  74.382 117.084  0.00  0.00     0.028 C 
ATOM     10  C   LIG d   1     -10.890  73.405 118.267  0.00  0.00     0.006 C 
ENDBRANCH   8   9
BRANCH   8  11
ATOM     11  C   LIG d   1      -8.359  74.111 117.113  0.00  0.00     0.028 C 
ATOM     12  C   LIG d   1      -7.077  74.568 116.401  0.00  0.00     0.006 C 
ENDBRANCH   8  11
ENDBRANCH   7   8
ENDBRANCH   1   7
BRANCH   6  13
ATOM     13  N   LIG d   1     -12.076  77.078 119.265  0.00  0.00    -0.311 N 
ATOM     14  C   LIG d   1     -12.480  76.112 120.088  0.00  0.00     0.210 C 
ATOM     15  C   LIG d   1     -13.871  75.545 119.786  0.00  0.00     0.109 C 
ATOM     16  O   LIG d   1     -11.832  75.693 121.059  0.00  0.00    -0.276 OA
ATOM     17  H   LIG d   1     -12.679  77.378 118.523  0.00  0.00     0.149 HD
ENDBRANCH   6  13
BRANCH   5  18
ATOM     18  N   LIG d   1     -11.567  79.712 120.726  0.00  0.00     0.381 N 
ATOM     19  H   LIG d   1     -11.678  80.706 120.723  0.00  0.00    -0.090 HD
ATOM     20  H   LIG d   1     -11.004  79.459 121.519  0.00  0.00    -0.090 HD
ATOM     21  H   LIG d   1     -12.459  79.272 120.789  0.00  0.00    -0.090 HD
ENDBRANCH   5  18
BRANCH   3  22
ATOM     22  C   LIG d   1      -7.694  80.320 117.975  0.00  0.00     0.382 C 
ATOM     23  O   LIG d   1      -7.790  81.553 118.186  0.00  0.00    -0.241 OA
ATOM     24  O   LIG d   1      -6.745  79.885 117.296  0.00  0.00    -0.241 OA
ENDBRANCH   3  22
TORSDOF 7
ENDMDL
MODEL 9
REMARK VINA RESULT:      -5.2     13.444     16.118
REMARK  7 active torsions:
REMARK  status: ('A' for Active; 'I' for Inactive)
REMARK    1  A    between atoms: C_2  and  C_3 
REMARK    2  A    between atoms: C_3  and  O_6 
REMARK    3  A    between atoms: C_3  and  C_4 
REMARK    4  A    between atoms: C_7  and  O_6 
REMARK    5  A    between atoms: C_9  and  C_10 
REMARK    6  A    between atoms: N_15  and  C_14 
REMARK    7  A    between atoms: N_20  and  C_19 
REMARK       I    between atoms: C_22  and  N_20 
ROOT
ATOM      1  C   LIG d   1      -8.805  77.313 118.015  0.00  0.00     0.161 C 
ATOM      2  C   LIG d   1      -9.865  78.199 118.269  0.00  0.00     0.016 C 
ATOM      3  C   LIG d   1      -9.703  79.600 118.364  0.00  0.00     0.038 C 
ATOM      4  C   LIG d   1      -8.486  80.227 118.059  0.00  0.00     0.028 C 
ATOM      5  C   LIG d   1      -7.270  79.337 118.291  0.00  0.00    -0.047 C 
ATOM      6  C   LIG d   1      -7.491  77.988 117.569  0.00  0.00     0.091 C 
ENDROOT
BRANCH   1   7
ATOM      7  O   LIG d   1      -9.214  76.326 117.047  0.00  0.00    -0.368 OA
BRANCH   7   8
ATOM      8  C   LIG d   1      -9.738  75.086 117.583  0.00  0.00     0.119 C 
BRANCH   8   9
ATOM      9  C   LIG d   1      -8.696  73.985 117.306  0.00  0.00     0.028 C 
ATOM     10  C   LIG d   1      -9.274  72.571 117.489  0.00  0.00     0.006 C 
ENDBRANCH   8   9
BRANCH   8  11
ATOM     11  C   LIG d   1     -11.001  74.646 116.838  0.00  0.00     0.028 C 
ATOM     12  C   LIG d   1     -12.276  74.800 117.683  0.00  0.00     0.006 C 
ENDBRANCH   8  11
ENDBRANCH   7   8
ENDBRANCH   1   7
BRANCH   6  13
ATOM     13  N   LIG d   1      -6.385  77.026 117.815  0.00  0.00    -0.311 N 
ATOM     14  C   LIG d   1      -5.329  76.903 117.014  0.00  0.00     0.210 C 
ATOM     15  C   LIG d   1      -4.314  75.837 117.440  0.00  0.00     0.109 C 
ATOM     16  O   LIG d   1      -5.119  77.598 116.008  0.00  0.00    -0.276 OA
ATOM     17  H   LIG d   1      -6.459  76.444 118.627  0.00  0.00     0.149 HD
ENDBRANCH   6  13
BRANCH   5  18
ATOM     18  N   LIG d   1      -6.084  80.066 117.804  0.00  0.00     0.381 N 
ATOM     19  H   LIG d   1      -5.651  80.553 118.563  0.00  0.00    -0.090 HD
ATOM     20  H   LIG d   1      -6.376  80.742 117.121  0.00  0.00    -0.090 HD
ATOM     21  H   LIG d   1      -5.436  79.429 117.396  0.00  0.00    -0.090 HD
ENDBRANCH   5  18
BRANCH   3  22
ATOM     22  C   LIG d   1     -10.756  80.385 118.806  0.00  0.00     0.382 C 
ATOM     23  O   LIG d   1     -11.044  81.447 118.203  0.00  0.00    -0.241 OA
ATOM     24  O   LIG d   1     -11.395  80.069 119.828  0.00  0.00    -0.241 OA
ENDBRANCH   3  22
TORSDOF 7
ENDMDL
