MODEL 1
REMARK VINA RESULT:      -5.3      0.000      0.000
REMARK  7 active torsions:
REMARK  status: ('A' for Active; 'I' for Inactive)
REMARK    1  A    between atoms: C_2  and  C_3 
REMARK    2  A    between atoms: C_3  and  O_6 
REMARK    3  A    between atoms: C_3  and  C_4 
REMARK    4  A    between atoms: C_7  and  O_6 
REMARK    5  A    between atoms: C_9  and  C_10 
REMARK    6  A    between atoms: N_15  and  C_14 
REMARK    7  A    between atoms: N_20  and  C_19 
REMARK       I    between atoms: C_22  and  N_20 
ROOT
ATOM      1  C   LIG d   1      -1.790  75.880 114.822  0.00  0.00     0.161 C 
ATOM      2  C   LIG d   1      -1.589  74.991 115.891  0.00  0.00     0.016 C 
ATOM      3  C   LIG d   1      -0.814  75.307 117.030  0.00  0.00     0.038 C 
ATOM      4  C   LIG d   1      -0.309  76.597 117.249  0.00  0.00     0.028 C 
ATOM      5  C   LIG d   1      -0.062  77.377 115.962  0.00  0.00    -0.047 C 
ATOM      6  C   LIG d   1      -1.340  77.330 115.093  0.00  0.00     0.091 C 
ENDROOT
BRANCH   1   7
ATOM      7  O   LIG d   1      -3.174  75.852 114.417  0.00  0.00    -0.368 OA
BRANCH   7   8
ATOM      8  C   LIG d   1      -4.139  75.595 115.466  0.00  0.00     0.119 C 
BRANCH   8   9
ATOM      9  C   LIG d   1      -5.282  74.766 114.849  0.00  0.00     0.028 C 
ATOM     10  C   LIG d   1      -5.760  73.639 115.782  0.00  0.00     0.006 C 
ENDBRANCH   8   9
BRANCH   8  11
ATOM     11  C   LIG d   1      -4.795  76.891 115.951  0.00  0.00     0.028 C 
ATOM     12  C   LIG d   1      -4.496  77.193 117.428  0.00  0.00     0.006 C 
ENDBRANCH   8  11
ENDBRANCH   7   8
ENDBRANCH   1   7
BRANCH   6  13
ATOM     13  N   LIG d   1      -1.156  77.998 113.778  0.00  0.00    -0.311 N 
ATOM     14  C   LIG d   1      -1.968  78.948 113.318  0.00  0.00     0.210 C 
ATOM     15  C   LIG d   1      -1.610  79.489 111.931  0.00  0.00     0.109 C 
ATOM     16  O   LIG d   1      -2.932  79.417 113.942  0.00  0.00    -0.276 OA
ATOM     17  H   LIG d   1      -0.380  77.700 113.220  0.00  0.00     0.149 HD
ENDBRANCH   6  13
BRANCH   5  18
ATOM     18  N   LIG d   1       0.331  78.748 116.339  0.00  0.00     0.381 N 
ATOM     19  H   LIG d   1       0.569  78.776 117.310  0.00  0.00    -0.090 HD
ATOM     20  H   LIG d   1      -0.449  79.363 116.187  0.00  0.00    -0.090 HD
ATOM     21  H   LIG d   1       1.108  79.043 115.790  0.00  0.00    -0.090 HD
ENDBRANCH   5  18
BRANCH   3  22
ATOM     22  C   LIG d   1      -0.504  74.314 117.947  0.00  0.00     0.382 C 
ATOM     23  O   LIG d   1      -0.668  73.108 117.645  0.00  0.00    -0.241 OA
ATOM     24  O   LIG d   1      -0.104  74.612 119.089  0.00  0.00    -0.241 OA
ENDBRANCH   3  22
TORSDOF 7
ENDMDL
MODEL 2
REMARK VINA RESULT:      -5.3     14.201     16.647
REMARK  7 active torsions:
REMARK  status: ('A' for Active; 'I' for Inactive)
REMARK    1  A    between atoms: C_2  and  C_3 
REMARK    2  A    between atoms: C_3  and  O_6 
REMARK    3  A    between atoms: C_3  and  C_4 
REMARK    4  A    between atoms: C_7  and  O_6 
REMARK    5  A    between atoms: C_9  and  C_10 
REMARK    6  A    between atoms: N_15  and  C_14 
REMARK    7  A    between atoms: N_20  and  C_19 
REMARK       I    between atoms: C_22  and  N_20 
ROOT
ATOM      1  C   LIG d   1      -4.239  91.684 118.016  0.00  0.00     0.161 C 
ATOM      2  C   LIG d   1      -5.002  90.810 117.223  0.00  0.00     0.016 C 
ATOM      3  C   LIG d   1      -6.250  91.161 116.658  0.00  0.00     0.038 C 
ATOM      4  C   LIG d   1      -6.751  92.470 116.723  0.00  0.00     0.028 C 
ATOM      5  C   LIG d   1      -6.259  93.248 117.938  0.00  0.00    -0.047 C 
ATOM      6  C   LIG d   1      -4.717  93.151 118.005  0.00  0.00     0.091 C 
ENDROOT
BRANCH   1   7
ATOM      7  O   LIG d   1      -2.852  91.606 117.633  0.00  0.00    -0.368 OA
BRANCH   7   8
ATOM      8  C   LIG d   1      -1.944  91.080 118.631  0.00  0.00     0.119 C 
BRANCH   8   9
ATOM      9  C   LIG d   1      -0.581  91.770 118.427  0.00  0.00     0.028 C 
ATOM     10  C   LIG d   1       0.252  91.108 117.317  0.00  0.00     0.006 C 
ENDBRANCH   8   9
BRANCH   8  11
ATOM     11  C   LIG d   1      -1.679  89.588 118.413  0.00  0.00     0.028 C 
ATOM     12  C   LIG d   1      -2.486  88.693 119.367  0.00  0.00     0.006 C 
ENDBRANCH   8  11
ENDBRANCH   7   8
ENDBRANCH   1   7
BRANCH   6  13
ATOM     13  N   LIG d   1      -4.160  93.815 119.213  0.00  0.00    -0.311 N 
ATOM     14  C   LIG d   1      -3.111  94.635 119.180  0.00  0.00     0.210 C 
ATOM     15  C   LIG d   1      -2.686  95.196 120.540  0.00  0.00     0.109 C 
ATOM     16  O   LIG d   1      -2.512  94.976 118.149  0.00  0.00    -0.276 OA
ATOM     17  H   LIG d   1      -4.605  93.618 120.088  0.00  0.00     0.149 HD
ENDBRANCH   6  13
BRANCH   5  18
ATOM     18  N   LIG d   1      -6.746  94.634 117.808  0.00  0.00     0.381 N 
ATOM     19  H   LIG d   1      -6.843  95.046 118.714  0.00  0.00    -0.090 HD
ATOM     20  H   LIG d   1      -7.650  94.621 117.369  0.00  0.00    -0.090 HD
ATOM     21  H   LIG d   1      -6.110  95.169 117.258  0.00  0.00    -0.090 HD
ENDBRANCH   5  18
BRANCH   3  22
ATOM     22  C   LIG d   1      -7.028  90.187 116.053  0.00  0.00     0.382 C 
ATOM     23  O   LIG d   1      -7.973  89.656 116.686  0.00  0.00    -0.241 OA
ATOM     24  O   LIG d   1      -6.771  89.799 114.897  0.00  0.00    -0.241 OA
ENDBRANCH   3  22
TORSDOF 7
ENDMDL
MODEL 3
REMARK VINA RESULT:      -5.3      2.088      5.324
REMARK  7 active torsions:
REMARK  status: ('A' for Active; 'I' for Inactive)
REMARK    1  A    between atoms: C_2  and  C_3 
REMARK    2  A    between atoms: C_3  and  O_6 
REMARK    3  A    between atoms: C_3  and  C_4 
REMARK    4  A    between atoms: C_7  and  O_6 
REMARK    5  A    between atoms: C_9  and  C_10 
REMARK    6  A    between atoms: N_15  and  C_14 
REMARK    7  A    between atoms: N_20  and  C_19 
REMARK       I    between atoms: C_22  and  N_20 
ROOT
ATOM      1  C   LIG d   1      -2.194  78.459 115.090  0.00  0.00     0.161 C 
ATOM      2  C   LIG d   1      -2.532  79.325 114.037  0.00  0.00     0.016 C 
ATOM      3  C   LIG d   1      -1.723  80.411 113.632  0.00  0.00     0.038 C 
ATOM      4  C   LIG d   1      -0.438  80.615 114.157  0.00  0.00     0.028 C 
ATOM      5  C   LIG d   1      -0.268  80.069 115.571  0.00  0.00    -0.047 C 
ATOM      6  C   LIG d   1      -0.744  78.598 115.601  0.00  0.00     0.091 C 
ENDROOT
BRANCH   1   7
ATOM      7  O   LIG d   1      -2.461  77.096 114.707  0.00  0.00    -0.368 OA
BRANCH   7   8
ATOM      8  C   LIG d   1      -3.540  76.435 115.412  0.00  0.00     0.119 C 
BRANCH   8   9
ATOM      9  C   LIG d   1      -2.932  75.240 116.173  0.00  0.00     0.028 C 
ATOM     10  C   LIG d   1      -1.601  74.771 115.562  0.00  0.00     0.006 C 
ENDBRANCH   8   9
BRANCH   8  11
ATOM     11  C   LIG d   1      -4.551  75.823 114.438  0.00  0.00     0.028 C 
ATOM     12  C   LIG d   1      -5.314  74.633 115.041  0.00  0.00     0.006 C 
ENDBRANCH   8  11
ENDBRANCH   7   8
ENDBRANCH   1   7
BRANCH   6  13
ATOM     13  N   LIG d   1      -0.691  78.013 116.967  0.00  0.00    -0.311 N 
ATOM     14  C   LIG d   1       0.334  77.291 117.415  0.00  0.00     0.210 C 
ATOM     15  C   LIG d   1       0.178  76.766 118.845  0.00  0.00     0.109 C 
ATOM     16  O   LIG d   1       1.372  77.063 116.776  0.00  0.00    -0.276 OA
ATOM     17  H   LIG d   1      -1.478  78.176 117.564  0.00  0.00     0.149 HD
ENDBRANCH   6  13
BRANCH   5  18
ATOM     18  N   LIG d   1       1.151  80.224 115.941  0.00  0.00     0.381 N 
ATOM     19  H   LIG d   1       1.229  80.814 116.746  0.00  0.00    -0.090 HD
ATOM     20  H   LIG d   1       1.639  80.663 115.180  0.00  0.00    -0.090 HD
ATOM     21  H   LIG d   1       1.553  79.333 116.133  0.00  0.00    -0.090 HD
ENDBRANCH   5  18
BRANCH   3  22
ATOM     22  C   LIG d   1      -2.214  81.331 112.718  0.00  0.00     0.382 C 
ATOM     23  O   LIG d   1      -3.441  81.364 112.460  0.00  0.00    -0.241 OA
ATOM     24  O   LIG d   1      -1.440  82.098 112.115  0.00  0.00    -0.241 OA
ENDBRANCH   3  22
TORSDOF 7
ENDMDL
MODEL 4
REMARK VINA RESULT:      -5.2      2.260      4.922
REMARK  7 active torsions:
REMARK  status: ('A' for Active; 'I' for Inactive)
REMARK    1  A    between atoms: C_2  and  C_3 
REMARK    2  A    between atoms: C_3  and  O_6 
REMARK    3  A    between atoms: C_3  and  C_4 
REMARK    4  A    between atoms: C_7  and  O_6 
REMARK    5  A    between atoms: C_9  and  C_10 
REMARK    6  A    between atoms: N_15  and  C_14 
REMARK    7  A    between atoms: N_20  and  C_19 
REMARK       I    between atoms: C_22  and  N_20 
ROOT
ATOM      1  C   LIG d   1      -1.421  77.310 114.954  0.00  0.00     0.161 C 
ATOM      2  C   LIG d   1      -2.727  77.010 114.532  0.00  0.00     0.016 C 
ATOM      3  C   LIG d   1      -3.394  75.807 114.860  0.00  0.00     0.038 C 
ATOM      4  C   LIG d   1      -2.852  74.881 115.764  0.00  0.00     0.028 C 
ATOM      5  C   LIG d   1      -1.328  74.905 115.814  0.00  0.00    -0.047 C 
ATOM      6  C   LIG d   1      -0.856  76.361 116.032  0.00  0.00     0.091 C 
ENDROOT
BRANCH   1   7
ATOM      7  O   LIG d   1      -1.355  78.677 115.405  0.00  0.00    -0.368 OA
BRANCH   7   8
ATOM      8  C   LIG d   1      -2.468  79.526 115.031  0.00  0.00     0.119 C 
BRANCH   8   9
ATOM      9  C   LIG d   1      -1.933  80.587 114.051  0.00  0.00     0.028 C 
ATOM     10  C   LIG d   1      -2.494  80.411 112.630  0.00  0.00     0.006 C 
ENDBRANCH   8   9
BRANCH   8  11
ATOM     11  C   LIG d   1      -2.996  80.314 116.234  0.00  0.00     0.028 C 
ATOM     12  C   LIG d   1      -4.371  79.822 116.712  0.00  0.00     0.006 C 
ENDBRANCH   8  11
ENDBRANCH   7   8
ENDBRANCH   1   7
BRANCH   6  13
ATOM     13  N   LIG d   1       0.625  76.487 116.009  0.00  0.00    -0.311 N 
ATOM     14  C   LIG d   1       1.342  76.890 117.056  0.00  0.00     0.210 C 
ATOM     15  C   LIG d   1       2.853  76.968 116.813  0.00  0.00     0.109 C 
ATOM     16  O   LIG d   1       0.875  77.160 118.172  0.00  0.00    -0.276 OA
ATOM     17  H   LIG d   1       1.089  76.258 115.152  0.00  0.00     0.149 HD
ENDBRANCH   6  13
BRANCH   5  18
ATOM     18  N   LIG d   1      -0.903  73.993 116.892  0.00  0.00     0.381 N 
ATOM     19  H   LIG d   1      -1.679  73.791 117.491  0.00  0.00    -0.090 HD
ATOM     20  H   LIG d   1      -0.191  74.445 117.439  0.00  0.00    -0.090 HD
ATOM     21  H   LIG d   1      -0.546  73.148 116.503  0.00  0.00    -0.090 HD
ENDBRANCH   5  18
BRANCH   3  22
ATOM     22  C   LIG d   1      -4.601  75.502 114.249  0.00  0.00     0.382 C 
ATOM     23  O   LIG d   1      -5.400  74.708 114.802  0.00  0.00    -0.241 OA
ATOM     24  O   LIG d   1      -4.881  75.975 113.132  0.00  0.00    -0.241 OA
ENDBRANCH   3  22
TORSDOF 7
ENDMDL
MODEL 5
REMARK VINA RESULT:      -5.0     14.296     16.596
REMARK  7 active torsions:
REMARK  status: ('A' for Active; 'I' for Inactive)
REMARK    1  A    between atoms: C_2  and  C_3 
REMARK    2  A    between atoms: C_3  and  O_6 
REMARK    3  A    between atoms: C_3  and  C_4 
REMARK    4  A    between atoms: C_7  and  O_6 
REMARK    5  A    between atoms: C_9  and  C_10 
REMARK    6  A    between atoms: N_15  and  C_14 
REMARK    7  A    between atoms: N_20  and  C_19 
REMARK       I    between atoms: C_22  and  N_20 
ROOT
ATOM      1  C   LIG d   1      -4.511  91.603 117.539  0.00  0.00     0.161 C 
ATOM      2  C   LIG d   1      -3.622  92.621 117.921  0.00  0.00     0.016 C 
ATOM      3  C   LIG d   1      -4.037  93.833 118.519  0.00  0.00     0.038 C 
ATOM      4  C   LIG d   1      -5.365  94.047 118.917  0.00  0.00     0.028 C 
ATOM      5  C   LIG d   1      -6.378  93.257 118.095  0.00  0.00    -0.047 C 
ATOM      6  C   LIG d   1      -5.952  91.771 118.066  0.00  0.00     0.091 C 
ENDROOT
BRANCH   1   7
ATOM      7  O   LIG d   1      -3.982  90.320 117.929  0.00  0.00    -0.368 OA
BRANCH   7   8
ATOM      8  C   LIG d   1      -2.846  90.346 118.828  0.00  0.00     0.119 C 
BRANCH   8   9
ATOM      9  C   LIG d   1      -1.698  89.576 118.146  0.00  0.00     0.028 C 
ATOM     10  C   LIG d   1      -0.491  90.477 117.835  0.00  0.00     0.006 C 
ENDBRANCH   8   9
BRANCH   8  11
ATOM     11  C   LIG d   1      -3.140  89.576 120.119  0.00  0.00     0.028 C 
ATOM     12  C   LIG d   1      -2.680  88.111 120.056  0.00  0.00     0.006 C 
ENDBRANCH   8  11
ENDBRANCH   7   8
ENDBRANCH   1   7
BRANCH   6  13
ATOM     13  N   LIG d   1      -6.843  90.942 117.213  0.00  0.00    -0.311 N 
ATOM     14  C   LIG d   1      -6.952  91.101 115.895  0.00  0.00     0.210 C 
ATOM     15  C   LIG d   1      -7.942  90.155 115.210  0.00  0.00     0.109 C 
ATOM     16  O   LIG d   1      -6.299  91.915 115.225  0.00  0.00    -0.276 OA
ATOM     17  H   LIG d   1      -7.386  90.237 117.671  0.00  0.00     0.149 HD
ENDBRANCH   6  13
BRANCH   5  18
ATOM     18  N   LIG d   1      -7.706  93.466 118.703  0.00  0.00     0.381 N 
ATOM     19  H   LIG d   1      -8.405  93.001 118.159  0.00  0.00    -0.090 HD
ATOM     20  H   LIG d   1      -7.911  94.449 118.706  0.00  0.00    -0.090 HD
ATOM     21  H   LIG d   1      -7.713  93.114 119.636  0.00  0.00    -0.090 HD
ENDBRANCH   5  18
BRANCH   3  22
ATOM     22  C   LIG d   1      -3.125  94.863 118.688  0.00  0.00     0.382 C 
ATOM     23  O   LIG d   1      -3.524  96.005 119.023  0.00  0.00    -0.241 OA
ATOM     24  O   LIG d   1      -1.913  94.677 118.468  0.00  0.00    -0.241 OA
ENDBRANCH   3  22
TORSDOF 7
ENDMDL
MODEL 6
REMARK VINA RESULT:      -5.0     14.838     17.207
REMARK  7 active torsions:
REMARK  status: ('A' for Active; 'I' for Inactive)
REMARK    1  A    between atoms: C_2  and  C_3 
REMARK    2  A    between atoms: C_3  and  O_6 
REMARK    3  A    between atoms: C_3  and  C_4 
REMARK    4  A    between atoms: C_7  and  O_6 
REMARK    5  A    between atoms: C_9  and  C_10 
REMARK    6  A    between atoms: N_15  and  C_14 
REMARK    7  A    between atoms: N_20  and  C_19 
REMARK       I    between atoms: C_22  and  N_20 
ROOT
ATOM      1  C   LIG d   1      -5.200  93.208 117.584  0.00  0.00     0.161 C 
ATOM      2  C   LIG d   1      -6.236  92.715 116.774  0.00  0.00     0.016 C 
ATOM      3  C   LIG d   1      -6.289  91.383 116.302  0.00  0.00     0.038 C 
ATOM      4  C   LIG d   1      -5.380  90.406 116.737  0.00  0.00     0.028 C 
ATOM      5  C   LIG d   1      -4.029  90.978 117.152  0.00  0.00    -0.047 C 
ATOM      6  C   LIG d   1      -4.259  92.128 118.159  0.00  0.00     0.091 C 
ENDROOT
BRANCH   1   7
ATOM      7  O   LIG d   1      -5.751  94.010 118.647  0.00  0.00    -0.368 OA
BRANCH   7   8
ATOM      8  C   LIG d   1      -7.196  94.038 118.742  0.00  0.00     0.119 C 
BRANCH   8   9
ATOM      9  C   LIG d   1      -7.652  95.479 118.445  0.00  0.00     0.028 C 
ATOM     10  C   LIG d   1      -8.575  95.562 117.218  0.00  0.00     0.006 C 
ENDBRANCH   8   9
BRANCH   8  11
ATOM     11  C   LIG d   1      -7.666  93.749 120.171  0.00  0.00     0.028 C 
ATOM     12  C   LIG d   1      -6.697  92.842 120.946  0.00  0.00     0.006 C 
ENDBRANCH   8  11
ENDBRANCH   7   8
ENDBRANCH   1   7
BRANCH   6  13
ATOM     13  N   LIG d   1      -2.993  92.799 118.553  0.00  0.00    -0.311 N 
ATOM     14  C   LIG d   1      -2.292  92.466 119.635  0.00  0.00     0.210 C 
ATOM     15  C   LIG d   1      -1.027  93.297 119.868  0.00  0.00     0.109 C 
ATOM     16  O   LIG d   1      -2.582  91.539 120.407  0.00  0.00    -0.276 OA
ATOM     17  H   LIG d   1      -2.668  93.542 117.965  0.00  0.00     0.149 HD
ENDBRANCH   6  13
BRANCH   5  18
ATOM     18  N   LIG d   1      -3.229  89.872 117.711  0.00  0.00     0.381 N 
ATOM     19  H   LIG d   1      -2.406  90.236 118.148  0.00  0.00    -0.090 HD
ATOM     20  H   LIG d   1      -2.947  89.264 116.962  0.00  0.00    -0.090 HD
ATOM     21  H   LIG d   1      -3.770  89.363 118.376  0.00  0.00    -0.090 HD
ENDBRANCH   5  18
BRANCH   3  22
ATOM     22  C   LIG d   1      -7.236  91.026 115.354  0.00  0.00     0.382 C 
ATOM     23  O   LIG d   1      -7.999  91.897 114.873  0.00  0.00    -0.241 OA
ATOM     24  O   LIG d   1      -7.366  89.837 115.008  0.00  0.00    -0.241 OA
ENDBRANCH   3  22
TORSDOF 7
ENDMDL
MODEL 7
REMARK VINA RESULT:      -5.0      2.506      4.926
REMARK  7 active torsions:
REMARK  status: ('A' for Active; 'I' for Inactive)
REMARK    1  A    between atoms: C_2  and  C_3 
REMARK    2  A    between atoms: C_3  and  O_6 
REMARK    3  A    between atoms: C_3  and  C_4 
REMARK    4  A    between atoms: C_7  and  O_6 
REMARK    5  A    between atoms: C_9  and  C_10 
REMARK    6  A    between atoms: N_15  and  C_14 
REMARK    7  A    between atoms: N_20  and  C_19 
REMARK       I    between atoms: C_22  and  N_20 
ROOT
ATOM      1  C   LIG d   1      -1.486  77.506 115.378  0.00  0.00     0.161 C 
ATOM      2  C   LIG d   1      -2.810  77.287 114.961  0.00  0.00     0.016 C 
ATOM      3  C   LIG d   1      -3.460  76.036 115.060  0.00  0.00     0.038 C 
ATOM      4  C   LIG d   1      -2.877  74.947 115.726  0.00  0.00     0.028 C 
ATOM      5  C   LIG d   1      -1.352  74.976 115.713  0.00  0.00    -0.047 C 
ATOM      6  C   LIG d   1      -0.872  76.359 116.208  0.00  0.00     0.091 C 
ENDROOT
BRANCH   1   7
ATOM      7  O   LIG d   1      -1.400  78.750 116.101  0.00  0.00    -0.368 OA
BRANCH   7   8
ATOM      8  C   LIG d   1      -2.452  79.000 117.065  0.00  0.00     0.119 C 
BRANCH   8   9
ATOM      9  C   LIG d   1      -2.882  80.472 116.909  0.00  0.00     0.028 C 
ATOM     10  C   LIG d   1      -4.403  80.656 117.042  0.00  0.00     0.006 C 
ENDBRANCH   8   9
BRANCH   8  11
ATOM     11  C   LIG d   1      -1.932  78.880 118.500  0.00  0.00     0.028 C 
ATOM     12  C   LIG d   1      -2.573  77.714 119.270  0.00  0.00     0.006 C 
ENDBRANCH   8  11
ENDBRANCH   7   8
ENDBRANCH   1   7
BRANCH   6  13
ATOM     13  N   LIG d   1       0.606  76.501 116.147  0.00  0.00    -0.311 N 
ATOM     14  C   LIG d   1       1.365  76.740 117.215  0.00  0.00     0.210 C 
ATOM     15  C   LIG d   1       2.864  76.871 116.928  0.00  0.00     0.109 C 
ATOM     16  O   LIG d   1       0.942  76.824 118.378  0.00  0.00    -0.276 OA
ATOM     17  H   LIG d   1       1.036  76.416 115.246  0.00  0.00     0.149 HD
ENDBRANCH   6  13
BRANCH   5  18
ATOM     18  N   LIG d   1      -0.878  73.863 116.557  0.00  0.00     0.381 N 
ATOM     19  H   LIG d   1      -0.346  73.221 116.004  0.00  0.00    -0.090 HD
ATOM     20  H   LIG d   1      -1.674  73.375 116.928  0.00  0.00    -0.090 HD
ATOM     21  H   LIG d   1      -0.318  74.215 117.302  0.00  0.00    -0.090 HD
ENDBRANCH   5  18
BRANCH   3  22
ATOM     22  C   LIG d   1      -4.694  75.852 114.453  0.00  0.00     0.382 C 
ATOM     23  O   LIG d   1      -5.715  75.657 115.156  0.00  0.00    -0.241 OA
ATOM     24  O   LIG d   1      -4.790  75.835 113.212  0.00  0.00    -0.241 OA
ENDBRANCH   3  22
TORSDOF 7
ENDMDL
MODEL 8
REMARK VINA RESULT:      -5.0     15.976     18.088
REMARK  7 active torsions:
REMARK  status: ('A' for Active; 'I' for Inactive)
REMARK    1  A    between atoms: C_2  and  C_3 
REMARK    2  A    between atoms: C_3  and  O_6 
REMARK    3  A    between atoms: C_3  and  C_4 
REMARK    4  A    between atoms: C_7  and  O_6 
REMARK    5  A    between atoms: C_9  and  C_10 
REMARK    6  A    between atoms: N_15  and  C_14 
REMARK    7  A    between atoms: N_20  and  C_19 
REMARK       I    between atoms: C_22  and  N_20 
ROOT
ATOM      1  C   LIG d   1      -6.304  93.513 118.140  0.00  0.00     0.161 C 
ATOM      2  C   LIG d   1      -6.825  92.355 117.539  0.00  0.00     0.016 C 
ATOM      3  C   LIG d   1      -6.019  91.292 117.071  0.00  0.00     0.038 C 
ATOM      4  C   LIG d   1      -4.637  91.248 117.310  0.00  0.00     0.028 C 
ATOM      5  C   LIG d   1      -4.005  92.627 117.464  0.00  0.00    -0.047 C 
ATOM      6  C   LIG d   1      -4.808  93.434 118.510  0.00  0.00     0.091 C 
ENDROOT
BRANCH   1   7
ATOM      7  O   LIG d   1      -7.089  93.857 119.299  0.00  0.00    -0.368 OA
BRANCH   7   8
ATOM      8  C   LIG d   1      -8.379  94.465 119.038  0.00  0.00     0.119 C 
BRANCH   8   9
ATOM      9  C   LIG d   1      -8.179  95.993 119.038  0.00  0.00     0.028 C 
ATOM     10  C   LIG d   1      -8.276  96.596 117.626  0.00  0.00     0.006 C 
ENDBRANCH   8   9
BRANCH   8  11
ATOM     11  C   LIG d   1      -9.366  94.186 120.175  0.00  0.00     0.028 C 
ATOM     12  C   LIG d   1     -10.248  95.399 120.509  0.00  0.00     0.006 C 
ENDBRANCH   8  11
ENDBRANCH   7   8
ENDBRANCH   1   7
BRANCH   6  13
ATOM     13  N   LIG d   1      -4.308  94.825 118.660  0.00  0.00    -0.311 N 
ATOM     14  C   LIG d   1      -3.409  95.186 119.574  0.00  0.00     0.210 C 
ATOM     15  C   LIG d   1      -3.045  96.674 119.571  0.00  0.00     0.109 C 
ATOM     16  O   LIG d   1      -2.855  94.410 120.367  0.00  0.00    -0.276 OA
ATOM     17  H   LIG d   1      -4.681  95.514 118.036  0.00  0.00     0.149 HD
ENDBRANCH   6  13
BRANCH   5  18
ATOM     18  N   LIG d   1      -2.594  92.431 117.845  0.00  0.00     0.381 N 
ATOM     19  H   LIG d   1      -2.000  92.647 117.069  0.00  0.00    -0.090 HD
ATOM     20  H   LIG d   1      -2.454  91.466 118.089  0.00  0.00    -0.090 HD
ATOM     21  H   LIG d   1      -2.366  93.013 118.620  0.00  0.00    -0.090 HD
ENDBRANCH   5  18
BRANCH   3  22
ATOM     22  C   LIG d   1      -6.590  90.276 116.319  0.00  0.00     0.382 C 
ATOM     23  O   LIG d   1      -7.708  89.809 116.644  0.00  0.00    -0.241 OA
ATOM     24  O   LIG d   1      -5.981  89.791 115.347  0.00  0.00    -0.241 OA
ENDBRANCH   3  22
TORSDOF 7
ENDMDL
MODEL 9
REMARK VINA RESULT:      -4.9     15.278     17.609
REMARK  7 active torsions:
REMARK  status: ('A' for Active; 'I' for Inactive)
REMARK    1  A    between atoms: C_2  and  C_3 
REMARK    2  A    between atoms: C_3  and  O_6 
REMARK    3  A    between atoms: C_3  and  C_4 
REMARK    4  A    between atoms: C_7  and  O_6 
REMARK    5  A    between atoms: C_9  and  C_10 
REMARK    6  A    between atoms: N_15  and  C_14 
REMARK    7  A    between atoms: N_20  and  C_19 
REMARK       I    between atoms: C_22  and  N_20 
ROOT
ATOM      1  C   LIG d   1      -4.812  92.278 119.172  0.00  0.00     0.161 C 
ATOM      2  C   LIG d   1      -5.060  91.256 118.240  0.00  0.00     0.016 C 
ATOM      3  C   LIG d   1      -5.972  91.384 117.168  0.00  0.00     0.038 C 
ATOM      4  C   LIG d   1      -6.591  92.606 116.863  0.00  0.00     0.028 C 
ATOM      5  C   LIG d   1      -6.757  93.519 118.073  0.00  0.00    -0.047 C 
ATOM      6  C   LIG d   1      -5.394  93.655 118.790  0.00  0.00     0.091 C 
ENDROOT
BRANCH   1   7
ATOM      7  O   LIG d   1      -3.396  92.383 119.416  0.00  0.00    -0.368 OA
BRANCH   7   8
ATOM      8  C   LIG d   1      -2.545  92.383 118.244  0.00  0.00     0.119 C 
BRANCH   8   9
ATOM      9  C   LIG d   1      -1.449  91.322 118.466  0.00  0.00     0.028 C 
ATOM     10  C   LIG d   1      -0.250  91.510 117.523  0.00  0.00     0.006 C 
ENDBRANCH   8   9
BRANCH   8  11
ATOM     11  C   LIG d   1      -1.798  93.712 118.098  0.00  0.00     0.028 C 
ATOM     12  C   LIG d   1      -1.726  94.503 119.414  0.00  0.00     0.006 C 
ENDBRANCH   8  11
ENDBRANCH   7   8
ENDBRANCH   1   7
BRANCH   6  13
ATOM     13  N   LIG d   1      -5.486  94.464 120.033  0.00  0.00    -0.311 N 
ATOM     14  C   LIG d   1      -5.198  95.764 120.085  0.00  0.00     0.210 C 
ATOM     15  C   LIG d   1      -5.339  96.403 121.470  0.00  0.00     0.109 C 
ATOM     16  O   LIG d   1      -4.871  96.455 119.109  0.00  0.00    -0.276 OA
ATOM     17  H   LIG d   1      -5.774  93.990 120.866  0.00  0.00     0.149 HD
ENDBRANCH   6  13
BRANCH   5  18
ATOM     18  N   LIG d   1      -7.286  94.808 117.590  0.00  0.00     0.381 N 
ATOM     19  H   LIG d   1      -8.286  94.800 117.629  0.00  0.00    -0.090 HD
ATOM     20  H   LIG d   1      -7.009  94.935 116.632  0.00  0.00    -0.090 HD
ATOM     21  H   LIG d   1      -6.931  95.554 118.147  0.00  0.00    -0.090 HD
ENDBRANCH   5  18
BRANCH   3  22
ATOM     22  C   LIG d   1      -6.305  90.271 116.411  0.00  0.00     0.382 C 
ATOM     23  O   LIG d   1      -7.464  89.796 116.470  0.00  0.00    -0.241 OA
ATOM     24  O   LIG d   1      -5.447  89.710 115.703  0.00  0.00    -0.241 OA
ENDBRANCH   3  22
TORSDOF 7
ENDMDL
