MODEL 1
REMARK VINA RESULT:      -5.7      0.000      0.000
REMARK  7 active torsions:
REMARK  status: ('A' for Active; 'I' for Inactive)
REMARK    1  A    between atoms: C_2  and  C_3 
REMARK    2  A    between atoms: C_3  and  O_6 
REMARK    3  A    between atoms: C_3  and  C_4 
REMARK    4  A    between atoms: C_7  and  O_6 
REMARK    5  A    between atoms: C_9  and  C_10 
REMARK    6  A    between atoms: N_15  and  C_14 
REMARK    7  A    between atoms: N_20  and  C_19 
REMARK       I    between atoms: C_22  and  N_20 
ROOT
ATOM      1  C   LIG d   1       0.981  83.012 112.225  0.00  0.00     0.161 C 
ATOM      2  C   LIG d   1       0.307  83.842 111.313  0.00  0.00     0.016 C 
ATOM      3  C   LIG d   1       0.232  85.248 111.449  0.00  0.00     0.038 C 
ATOM      4  C   LIG d   1       0.960  85.937 112.431  0.00  0.00     0.028 C 
ATOM      5  C   LIG d   1       1.245  85.100 113.673  0.00  0.00    -0.047 C 
ATOM      6  C   LIG d   1       1.874  83.756 113.239  0.00  0.00     0.091 C 
ENDROOT
BRANCH   1   7
ATOM      7  O   LIG d   1       1.751  82.025 111.509  0.00  0.00    -0.368 OA
BRANCH   7   8
ATOM      8  C   LIG d   1       2.093  82.354 110.140  0.00  0.00     0.119 C 
BRANCH   8   9
ATOM      9  C   LIG d   1       1.950  81.066 109.306  0.00  0.00     0.028 C 
ATOM     10  C   LIG d   1       0.549  80.441 109.426  0.00  0.00     0.006 C 
ENDBRANCH   8   9
BRANCH   8  11
ATOM     11  C   LIG d   1       3.565  82.757 110.015  0.00  0.00     0.028 C 
ATOM     12  C   LIG d   1       3.787  84.267 110.194  0.00  0.00     0.006 C 
ENDBRANCH   8  11
ENDBRANCH   7   8
ENDBRANCH   1   7
BRANCH   6  13
ATOM     13  N   LIG d   1       2.107  82.843 114.388  0.00  0.00    -0.311 N 
ATOM     14  C   LIG d   1       3.248  82.805 115.075  0.00  0.00     0.210 C 
ATOM     15  C   LIG d   1       3.286  81.776 116.209  0.00  0.00     0.109 C 
ATOM     16  O   LIG d   1       4.220  83.548 114.873  0.00  0.00    -0.276 OA
ATOM     17  H   LIG d   1       1.359  82.227 114.640  0.00  0.00     0.149 HD
ENDBRANCH   6  13
BRANCH   5  18
ATOM     18  N   LIG d   1       2.126  85.893 114.552  0.00  0.00     0.381 N 
ATOM     19  H   LIG d   1       3.075  85.804 114.250  0.00  0.00    -0.090 HD
ATOM     20  H   LIG d   1       2.057  85.536 115.489  0.00  0.00    -0.090 HD
ATOM     21  H   LIG d   1       1.852  86.851 114.534  0.00  0.00    -0.090 HD
ENDBRANCH   5  18
BRANCH   3  22
ATOM     22  C   LIG d   1      -0.609  85.974 110.621  0.00  0.00     0.382 C 
ATOM     23  O   LIG d   1      -0.689  85.689 109.402  0.00  0.00    -0.241 OA
ATOM     24  O   LIG d   1      -1.257  86.940 111.069  0.00  0.00    -0.241 OA
ENDBRANCH   3  22
TORSDOF 7
ENDMDL
MODEL 2
REMARK VINA RESULT:      -5.5      2.754      4.125
REMARK  7 active torsions:
REMARK  status: ('A' for Active; 'I' for Inactive)
REMARK    1  A    between atoms: C_2  and  C_3 
REMARK    2  A    between atoms: C_3  and  O_6 
REMARK    3  A    between atoms: C_3  and  C_4 
REMARK    4  A    between atoms: C_7  and  O_6 
REMARK    5  A    between atoms: C_9  and  C_10 
REMARK    6  A    between atoms: N_15  and  C_14 
REMARK    7  A    between atoms: N_20  and  C_19 
REMARK       I    between atoms: C_22  and  N_20 
ROOT
ATOM      1  C   LIG d   1       2.332  85.853 112.293  0.00  0.00     0.161 C 
ATOM      2  C   LIG d   1       2.910  87.075 112.676  0.00  0.00     0.016 C 
ATOM      3  C   LIG d   1       3.318  87.361 114.000  0.00  0.00     0.038 C 
ATOM      4  C   LIG d   1       3.313  86.383 115.005  0.00  0.00     0.028 C 
ATOM      5  C   LIG d   1       2.269  85.294 114.786  0.00  0.00    -0.047 C 
ATOM      6  C   LIG d   1       2.421  84.735 113.353  0.00  0.00     0.091 C 
ENDROOT
BRANCH   1   7
ATOM      7  O   LIG d   1       2.906  85.410 111.047  0.00  0.00    -0.368 OA
BRANCH   7   8
ATOM      8  C   LIG d   1       2.027  85.436 109.896  0.00  0.00     0.119 C 
BRANCH   8   9
ATOM      9  C   LIG d   1       0.691  86.057 110.347  0.00  0.00     0.028 C 
ATOM     10  C   LIG d   1      -0.522  85.396 109.669  0.00  0.00     0.006 C 
ENDBRANCH   8   9
BRANCH   8  11
ATOM     11  C   LIG d   1       1.679  84.020 109.428  0.00  0.00     0.028 C 
ATOM     12  C   LIG d   1       2.914  83.113 109.305  0.00  0.00     0.006 C 
ENDBRANCH   8  11
ENDBRANCH   7   8
ENDBRANCH   1   7
BRANCH   6  13
ATOM     13  N   LIG d   1       1.383  83.722 113.026  0.00  0.00    -0.311 N 
ATOM     14  C   LIG d   1       1.667  82.481 112.636  0.00  0.00     0.210 C 
ATOM     15  C   LIG d   1       0.449  81.605 112.330  0.00  0.00     0.109 C 
ATOM     16  O   LIG d   1       2.812  82.013 112.545  0.00  0.00    -0.276 OA
ATOM     17  H   LIG d   1       0.427  84.008 113.103  0.00  0.00     0.149 HD
ENDBRANCH   6  13
BRANCH   5  18
ATOM     18  N   LIG d   1       2.467  84.270 115.829  0.00  0.00     0.381 N 
ATOM     19  H   LIG d   1       2.314  84.673 116.732  0.00  0.00    -0.090 HD
ATOM     20  H   LIG d   1       3.415  83.942 115.787  0.00  0.00    -0.090 HD
ATOM     21  H   LIG d   1       1.838  83.511 115.686  0.00  0.00    -0.090 HD
ENDBRANCH   5  18
BRANCH   3  22
ATOM     22  C   LIG d   1       3.699  88.651 114.337  0.00  0.00     0.382 C 
ATOM     23  O   LIG d   1       4.089  89.443 113.445  0.00  0.00    -0.241 OA
ATOM     24  O   LIG d   1       3.700  89.019 115.527  0.00  0.00    -0.241 OA
ENDBRANCH   3  22
TORSDOF 7
ENDMDL
MODEL 3
REMARK VINA RESULT:      -5.4      9.648     12.354
REMARK  7 active torsions:
REMARK  status: ('A' for Active; 'I' for Inactive)
REMARK    1  A    between atoms: C_2  and  C_3 
REMARK    2  A    between atoms: C_3  and  O_6 
REMARK    3  A    between atoms: C_3  and  C_4 
REMARK    4  A    between atoms: C_7  and  O_6 
REMARK    5  A    between atoms: C_9  and  C_10 
REMARK    6  A    between atoms: N_15  and  C_14 
REMARK    7  A    between atoms: N_20  and  C_19 
REMARK       I    between atoms: C_22  and  N_20 
ROOT
ATOM      1  C   LIG d   1      -5.053  91.064 116.727  0.00  0.00     0.161 C 
ATOM      2  C   LIG d   1      -4.058  90.085 116.884  0.00  0.00     0.016 C 
ATOM      3  C   LIG d   1      -3.066  90.138 117.890  0.00  0.00     0.038 C 
ATOM      4  C   LIG d   1      -3.093  91.102 118.908  0.00  0.00     0.028 C 
ATOM      5  C   LIG d   1      -3.781  92.400 118.495  0.00  0.00    -0.047 C 
ATOM      6  C   LIG d   1      -5.166  92.065 117.896  0.00  0.00     0.091 C 
ENDROOT
BRANCH   1   7
ATOM      7  O   LIG d   1      -6.326  90.433 116.483  0.00  0.00    -0.368 OA
BRANCH   7   8
ATOM      8  C   LIG d   1      -6.647  90.161 115.097  0.00  0.00     0.119 C 
BRANCH   8   9
ATOM      9  C   LIG d   1      -6.268  91.411 114.280  0.00  0.00     0.028 C 
ATOM     10  C   LIG d   1      -7.458  92.364 114.079  0.00  0.00     0.006 C 
ENDBRANCH   8   9
BRANCH   8  11
ATOM     11  C   LIG d   1      -8.156  89.988 114.898  0.00  0.00     0.028 C 
ATOM     12  C   LIG d   1      -8.776  88.986 115.884  0.00  0.00     0.006 C 
ENDBRANCH   8  11
ENDBRANCH   7   8
ENDBRANCH   1   7
BRANCH   6  13
ATOM     13  N   LIG d   1      -5.870  93.271 117.389  0.00  0.00    -0.311 N 
ATOM     14  C   LIG d   1      -7.136  93.560 117.685  0.00  0.00     0.210 C 
ATOM     15  C   LIG d   1      -7.675  94.841 117.041  0.00  0.00     0.109 C 
ATOM     16  O   LIG d   1      -7.854  92.894 118.446  0.00  0.00    -0.276 OA
ATOM     17  H   LIG d   1      -5.352  93.884 116.789  0.00  0.00     0.149 HD
ENDBRANCH   6  13
BRANCH   5  18
ATOM     18  N   LIG d   1      -3.860  93.262 119.689  0.00  0.00     0.381 N 
ATOM     19  H   LIG d   1      -2.943  93.562 119.952  0.00  0.00    -0.090 HD
ATOM     20  H   LIG d   1      -4.248  92.730 120.449  0.00  0.00    -0.090 HD
ATOM     21  H   LIG d   1      -4.435  94.053 119.501  0.00  0.00    -0.090 HD
ENDBRANCH   5  18
BRANCH   3  22
ATOM     22  C   LIG d   1      -2.009  89.241 117.861  0.00  0.00     0.382 C 
ATOM     23  O   LIG d   1      -1.028  89.453 117.108  0.00  0.00    -0.241 OA
ATOM     24  O   LIG d   1      -2.044  88.200 118.544  0.00  0.00    -0.241 OA
ENDBRANCH   3  22
TORSDOF 7
ENDMDL
MODEL 4
REMARK VINA RESULT:      -5.3      2.734      5.025
REMARK  7 active torsions:
REMARK  status: ('A' for Active; 'I' for Inactive)
REMARK    1  A    between atoms: C_2  and  C_3 
REMARK    2  A    between atoms: C_3  and  O_6 
REMARK    3  A    between atoms: C_3  and  C_4 
REMARK    4  A    between atoms: C_7  and  O_6 
REMARK    5  A    between atoms: C_9  and  C_10 
REMARK    6  A    between atoms: N_15  and  C_14 
REMARK    7  A    between atoms: N_20  and  C_19 
REMARK       I    between atoms: C_22  and  N_20 
ROOT
ATOM      1  C   LIG d   1       2.410  84.348 112.985  0.00  0.00     0.161 C 
ATOM      2  C   LIG d   1       2.892  85.579 113.461  0.00  0.00     0.016 C 
ATOM      3  C   LIG d   1       2.747  86.796 112.757  0.00  0.00     0.038 C 
ATOM      4  C   LIG d   1       1.972  86.891 111.591  0.00  0.00     0.028 C 
ATOM      5  C   LIG d   1       1.892  85.584 110.809  0.00  0.00    -0.047 C 
ATOM      6  C   LIG d   1       1.465  84.450 111.769  0.00  0.00     0.091 C 
ENDROOT
BRANCH   1   7
ATOM      7  O   LIG d   1       1.771  83.627 114.057  0.00  0.00    -0.368 OA
BRANCH   7   8
ATOM      8  C   LIG d   1       2.654  83.031 115.039  0.00  0.00     0.119 C 
BRANCH   8   9
ATOM      9  C   LIG d   1       2.574  81.502 114.866  0.00  0.00     0.028 C 
ATOM     10  C   LIG d   1       3.536  80.754 115.805  0.00  0.00     0.006 C 
ENDBRANCH   8   9
BRANCH   8  11
ATOM     11  C   LIG d   1       2.166  83.304 116.465  0.00  0.00     0.028 C 
ATOM     12  C   LIG d   1       2.706  84.624 117.037  0.00  0.00     0.006 C 
ENDBRANCH   8  11
ENDBRANCH   7   8
ENDBRANCH   1   7
BRANCH   6  13
ATOM     13  N   LIG d   1       1.444  83.122 111.104  0.00  0.00    -0.311 N 
ATOM     14  C   LIG d   1       0.330  82.543 110.658  0.00  0.00     0.210 C 
ATOM     15  C   LIG d   1       0.529  81.164 110.021  0.00  0.00     0.109 C 
ATOM     16  O   LIG d   1      -0.799  83.054 110.701  0.00  0.00    -0.276 OA
ATOM     17  H   LIG d   1       2.321  82.650 110.999  0.00  0.00     0.149 HD
ENDBRANCH   6  13
BRANCH   5  18
ATOM     18  N   LIG d   1       0.945  85.787 109.697  0.00  0.00     0.381 N 
ATOM     19  H   LIG d   1       1.378  85.530 108.832  0.00  0.00    -0.090 HD
ATOM     20  H   LIG d   1       0.702  86.761 109.651  0.00  0.00    -0.090 HD
ATOM     21  H   LIG d   1       0.126  85.240 109.842  0.00  0.00    -0.090 HD
ENDBRANCH   5  18
BRANCH   3  22
ATOM     22  C   LIG d   1       3.415  87.929 113.197  0.00  0.00     0.382 C 
ATOM     23  O   LIG d   1       4.587  88.155 112.811  0.00  0.00    -0.241 OA
ATOM     24  O   LIG d   1       2.877  88.704 114.010  0.00  0.00    -0.241 OA
ENDBRANCH   3  22
TORSDOF 7
ENDMDL
MODEL 5
REMARK VINA RESULT:      -5.3      3.219      4.592
REMARK  7 active torsions:
REMARK  status: ('A' for Active; 'I' for Inactive)
REMARK    1  A    between atoms: C_2  and  C_3 
REMARK    2  A    between atoms: C_3  and  O_6 
REMARK    3  A    between atoms: C_3  and  C_4 
REMARK    4  A    between atoms: C_7  and  O_6 
REMARK    5  A    between atoms: C_9  and  C_10 
REMARK    6  A    between atoms: N_15  and  C_14 
REMARK    7  A    between atoms: N_20  and  C_19 
REMARK       I    between atoms: C_22  and  N_20 
ROOT
ATOM      1  C   LIG d   1       2.424  85.854 114.403  0.00  0.00     0.161 C 
ATOM      2  C   LIG d   1       2.841  87.169 114.137  0.00  0.00     0.016 C 
ATOM      3  C   LIG d   1       3.950  87.777 114.769  0.00  0.00     0.038 C 
ATOM      4  C   LIG d   1       4.815  87.055 115.605  0.00  0.00     0.028 C 
ATOM      5  C   LIG d   1       4.143  85.872 116.294  0.00  0.00    -0.047 C 
ATOM      6  C   LIG d   1       3.421  85.014 115.230  0.00  0.00     0.091 C 
ENDROOT
BRANCH   1   7
ATOM      7  O   LIG d   1       2.107  85.182 113.168  0.00  0.00    -0.368 OA
BRANCH   7   8
ATOM      8  C   LIG d   1       1.561  86.012 112.114  0.00  0.00     0.119 C 
BRANCH   8   9
ATOM      9  C   LIG d   1       0.056  85.697 112.008  0.00  0.00     0.028 C 
ATOM     10  C   LIG d   1      -0.556  86.194 110.688  0.00  0.00     0.006 C 
ENDBRANCH   8   9
BRANCH   8  11
ATOM     11  C   LIG d   1       2.150  85.638 110.750  0.00  0.00     0.028 C 
ATOM     12  C   LIG d   1       3.597  85.130 110.845  0.00  0.00     0.006 C 
ENDBRANCH   8  11
ENDBRANCH   7   8
ENDBRANCH   1   7
BRANCH   6  13
ATOM     13  N   LIG d   1       2.668  83.883 115.829  0.00  0.00    -0.311 N 
ATOM     14  C   LIG d   1       3.173  82.659 115.971  0.00  0.00     0.210 C 
ATOM     15  C   LIG d   1       2.220  81.634 116.595  0.00  0.00     0.109 C 
ATOM     16  O   LIG d   1       4.331  82.332 115.670  0.00  0.00    -0.276 OA
ATOM     17  H   LIG d   1       1.731  84.067 116.130  0.00  0.00     0.149 HD
ENDBRANCH   6  13
BRANCH   5  18
ATOM     18  N   LIG d   1       5.188  85.129 117.023  0.00  0.00     0.381 N 
ATOM     19  H   LIG d   1       5.085  85.276 118.007  0.00  0.00    -0.090 HD
ATOM     20  H   LIG d   1       6.089  85.477 116.745  0.00  0.00    -0.090 HD
ATOM     21  H   LIG d   1       5.122  84.156 116.817  0.00  0.00    -0.090 HD
ENDBRANCH   5  18
BRANCH   3  22
ATOM     22  C   LIG d   1       4.180  89.133 114.597  0.00  0.00     0.382 C 
ATOM     23  O   LIG d   1       4.097  89.644 113.454  0.00  0.00    -0.241 OA
ATOM     24  O   LIG d   1       4.514  89.845 115.563  0.00  0.00    -0.241 OA
ENDBRANCH   3  22
TORSDOF 7
ENDMDL
MODEL 6
REMARK VINA RESULT:      -5.3      2.324      2.938
REMARK  7 active torsions:
REMARK  status: ('A' for Active; 'I' for Inactive)
REMARK    1  A    between atoms: C_2  and  C_3 
REMARK    2  A    between atoms: C_3  and  O_6 
REMARK    3  A    between atoms: C_3  and  C_4 
REMARK    4  A    between atoms: C_7  and  O_6 
REMARK    5  A    between atoms: C_9  and  C_10 
REMARK    6  A    between atoms: N_15  and  C_14 
REMARK    7  A    between atoms: N_20  and  C_19 
REMARK       I    between atoms: C_22  and  N_20 
ROOT
ATOM      1  C   LIG d   1       2.679  84.284 113.081  0.00  0.00     0.161 C 
ATOM      2  C   LIG d   1       2.814  85.617 112.657  0.00  0.00     0.016 C 
ATOM      3  C   LIG d   1       3.147  86.680 113.527  0.00  0.00     0.038 C 
ATOM      4  C   LIG d   1       3.517  86.458 114.862  0.00  0.00     0.028 C 
ATOM      5  C   LIG d   1       2.906  85.195 115.458  0.00  0.00    -0.047 C 
ATOM      6  C   LIG d   1       3.188  84.006 114.511  0.00  0.00     0.091 C 
ENDROOT
BRANCH   1   7
ATOM      7  O   LIG d   1       3.324  83.404 112.139  0.00  0.00    -0.368 OA
BRANCH   7   8
ATOM      8  C   LIG d   1       2.495  82.907 111.061  0.00  0.00     0.119 C 
BRANCH   8   9
ATOM      9  C   LIG d   1       2.438  81.372 111.190  0.00  0.00     0.028 C 
ATOM     10  C   LIG d   1       1.113  80.789 110.672  0.00  0.00     0.006 C 
ENDBRANCH   8   9
BRANCH   8  11
ATOM     11  C   LIG d   1       3.136  83.175 109.696  0.00  0.00     0.028 C 
ATOM     12  C   LIG d   1       4.444  82.396 109.489  0.00  0.00     0.006 C 
ENDBRANCH   8  11
ENDBRANCH   7   8
ENDBRANCH   1   7
BRANCH   6  13
ATOM     13  N   LIG d   1       2.552  82.746 114.977  0.00  0.00    -0.311 N 
ATOM     14  C   LIG d   1       3.213  81.786 115.622  0.00  0.00     0.210 C 
ATOM     15  C   LIG d   1       2.373  80.562 115.996  0.00  0.00     0.109 C 
ATOM     16  O   LIG d   1       4.408  81.847 115.948  0.00  0.00    -0.276 OA
ATOM     17  H   LIG d   1       1.577  82.628 114.782  0.00  0.00     0.149 HD
ENDBRANCH   6  13
BRANCH   5  18
ATOM     18  N   LIG d   1       3.483  85.012 116.803  0.00  0.00     0.381 N 
ATOM     19  H   LIG d   1       4.472  85.160 116.770  0.00  0.00    -0.090 HD
ATOM     20  H   LIG d   1       3.316  84.068 117.103  0.00  0.00    -0.090 HD
ATOM     21  H   LIG d   1       3.065  85.651 117.443  0.00  0.00    -0.090 HD
ENDBRANCH   5  18
BRANCH   3  22
ATOM     22  C   LIG d   1       3.072  87.989 113.074  0.00  0.00     0.382 C 
ATOM     23  O   LIG d   1       3.891  88.844 113.488  0.00  0.00    -0.241 OA
ATOM     24  O   LIG d   1       2.168  88.334 112.289  0.00  0.00    -0.241 OA
ENDBRANCH   3  22
TORSDOF 7
ENDMDL
MODEL 7
REMARK VINA RESULT:      -5.0      8.356      9.933
REMARK  7 active torsions:
REMARK  status: ('A' for Active; 'I' for Inactive)
REMARK    1  A    between atoms: C_2  and  C_3 
REMARK    2  A    between atoms: C_3  and  O_6 
REMARK    3  A    between atoms: C_3  and  C_4 
REMARK    4  A    between atoms: C_7  and  O_6 
REMARK    5  A    between atoms: C_9  and  C_10 
REMARK    6  A    between atoms: N_15  and  C_14 
REMARK    7  A    between atoms: N_20  and  C_19 
REMARK       I    between atoms: C_22  and  N_20 
ROOT
ATOM      1  C   LIG d   1      -2.597  76.863 116.712  0.00  0.00     0.161 C 
ATOM      2  C   LIG d   1      -2.967  77.715 115.659  0.00  0.00     0.016 C 
ATOM      3  C   LIG d   1      -2.190  77.893 114.491  0.00  0.00     0.038 C 
ATOM      4  C   LIG d   1      -1.055  77.110 114.230  0.00  0.00     0.028 C 
ATOM      5  C   LIG d   1      -0.367  76.600 115.492  0.00  0.00    -0.047 C 
ATOM      6  C   LIG d   1      -1.419  75.917 116.396  0.00  0.00     0.091 C 
ENDROOT
BRANCH   1   7
ATOM      7  O   LIG d   1      -3.741  76.106 117.155  0.00  0.00    -0.368 OA
BRANCH   7   8
ATOM      8  C   LIG d   1      -4.910  76.160 116.300  0.00  0.00     0.119 C 
BRANCH   8   9
ATOM      9  C   LIG d   1      -6.137  76.378 117.206  0.00  0.00     0.028 C 
ATOM     10  C   LIG d   1      -7.454  75.992 116.513  0.00  0.00     0.006 C 
ENDBRANCH   8   9
BRANCH   8  11
ATOM     11  C   LIG d   1      -5.153  74.817 115.604  0.00  0.00     0.028 C 
ATOM     12  C   LIG d   1      -4.788  74.845 114.112  0.00  0.00     0.006 C 
ENDBRANCH   8  11
ENDBRANCH   7   8
ENDBRANCH   1   7
BRANCH   6  13
ATOM     13  N   LIG d   1      -0.846  75.464 117.690  0.00  0.00    -0.311 N 
ATOM     14  C   LIG d   1      -0.328  74.251 117.878  0.00  0.00     0.210 C 
ATOM     15  C   LIG d   1       0.190  73.982 119.294  0.00  0.00     0.109 C 
ATOM     16  O   LIG d   1      -0.220  73.384 116.998  0.00  0.00    -0.276 OA
ATOM     17  H   LIG d   1      -0.864  76.115 118.450  0.00  0.00     0.149 HD
ENDBRANCH   6  13
BRANCH   5  18
ATOM     18  N   LIG d   1       0.714  75.688 115.073  0.00  0.00     0.381 N 
ATOM     19  H   LIG d   1       1.400  76.195 114.550  0.00  0.00    -0.090 HD
ATOM     20  H   LIG d   1       0.327  74.976 114.479  0.00  0.00    -0.090 HD
ATOM     21  H   LIG d   1       1.137  75.271 115.872  0.00  0.00    -0.090 HD
ENDBRANCH   5  18
BRANCH   3  22
ATOM     22  C   LIG d   1      -2.523  78.891 113.589  0.00  0.00     0.382 C 
ATOM     23  O   LIG d   1      -3.277  78.634 112.620  0.00  0.00    -0.241 OA
ATOM     24  O   LIG d   1      -2.044  80.035 113.707  0.00  0.00    -0.241 OA
ENDBRANCH   3  22
TORSDOF 7
ENDMDL
MODEL 8
REMARK VINA RESULT:      -5.0     11.242     12.258
REMARK  7 active torsions:
REMARK  status: ('A' for Active; 'I' for Inactive)
REMARK    1  A    between atoms: C_2  and  C_3 
REMARK    2  A    between atoms: C_3  and  O_6 
REMARK    3  A    between atoms: C_3  and  C_4 
REMARK    4  A    between atoms: C_7  and  O_6 
REMARK    5  A    between atoms: C_9  and  C_10 
REMARK    6  A    between atoms: N_15  and  C_14 
REMARK    7  A    between atoms: N_20  and  C_19 
REMARK       I    between atoms: C_22  and  N_20 
ROOT
ATOM      1  C   LIG d   1      -6.926  76.697 117.355  0.00  0.00     0.161 C 
ATOM      2  C   LIG d   1      -8.283  76.792 117.706  0.00  0.00     0.016 C 
ATOM      3  C   LIG d   1      -8.924  78.015 118.012  0.00  0.00     0.038 C 
ATOM      4  C   LIG d   1      -8.284  79.251 117.841  0.00  0.00     0.028 C 
ATOM      5  C   LIG d   1      -6.767  79.171 117.975  0.00  0.00    -0.047 C 
ATOM      6  C   LIG d   1      -6.240  78.046 117.054  0.00  0.00     0.091 C 
ENDROOT
BRANCH   1   7
ATOM      7  O   LIG d   1      -6.772  75.797 116.240  0.00  0.00    -0.368 OA
BRANCH   7   8
ATOM      8  C   LIG d   1      -6.006  74.594 116.493  0.00  0.00     0.119 C 
BRANCH   8   9
ATOM      9  C   LIG d   1      -5.419  74.126 115.148  0.00  0.00     0.028 C 
ATOM     10  C   LIG d   1      -4.601  75.226 114.450  0.00  0.00     0.006 C 
ENDBRANCH   8   9
BRANCH   8  11
ATOM     11  C   LIG d   1      -6.908  73.448 116.962  0.00  0.00     0.028 C 
ATOM     12  C   LIG d   1      -6.692  72.154 116.162  0.00  0.00     0.006 C 
ENDBRANCH   8  11
ENDBRANCH   7   8
ENDBRANCH   1   7
BRANCH   6  13
ATOM     13  N   LIG d   1      -4.774  77.845 117.187  0.00  0.00    -0.311 N 
ATOM     14  C   LIG d   1      -3.876  78.467 116.425  0.00  0.00     0.210 C 
ATOM     15  C   LIG d   1      -2.417  78.100 116.715  0.00  0.00     0.109 C 
ATOM     16  O   LIG d   1      -4.147  79.311 115.559  0.00  0.00    -0.276 OA
ATOM     17  H   LIG d   1      -4.464  77.200 117.888  0.00  0.00     0.149 HD
ENDBRANCH   6  13
BRANCH   5  18
ATOM     18  N   LIG d   1      -6.219  80.499 117.637  0.00  0.00     0.381 N 
ATOM     19  H   LIG d   1      -6.052  80.555 116.652  0.00  0.00    -0.090 HD
ATOM     20  H   LIG d   1      -5.343  80.620 118.113  0.00  0.00    -0.090 HD
ATOM     21  H   LIG d   1      -6.857  81.212 117.914  0.00  0.00    -0.090 HD
ENDBRANCH   5  18
BRANCH   3  22
ATOM     22  C   LIG d   1     -10.208  78.005 118.535  0.00  0.00     0.382 C 
ATOM     23  O   LIG d   1     -10.950  77.009 118.358  0.00  0.00    -0.241 OA
ATOM     24  O   LIG d   1     -10.650  78.998 119.143  0.00  0.00    -0.241 OA
ENDBRANCH   3  22
TORSDOF 7
ENDMDL
MODEL 9
REMARK VINA RESULT:      -4.9      2.516      4.723
REMARK  7 active torsions:
REMARK  status: ('A' for Active; 'I' for Inactive)
REMARK    1  A    between atoms: C_2  and  C_3 
REMARK    2  A    between atoms: C_3  and  O_6 
REMARK    3  A    between atoms: C_3  and  C_4 
REMARK    4  A    between atoms: C_7  and  O_6 
REMARK    5  A    between atoms: C_9  and  C_10 
REMARK    6  A    between atoms: N_15  and  C_14 
REMARK    7  A    between atoms: N_20  and  C_19 
REMARK       I    between atoms: C_22  and  N_20 
ROOT
ATOM      1  C   LIG d   1       1.942  84.214 113.315  0.00  0.00     0.161 C 
ATOM      2  C   LIG d   1       1.138  83.165 112.838  0.00  0.00     0.016 C 
ATOM      3  C   LIG d   1       0.328  83.269 111.683  0.00  0.00     0.038 C 
ATOM      4  C   LIG d   1       0.383  84.386 110.837  0.00  0.00     0.028 C 
ATOM      5  C   LIG d   1       0.799  85.668 111.552  0.00  0.00    -0.047 C 
ATOM      6  C   LIG d   1       2.100  85.402 112.343  0.00  0.00     0.091 C 
ENDROOT
BRANCH   1   7
ATOM      7  O   LIG d   1       3.234  83.704 113.698  0.00  0.00    -0.368 OA
BRANCH   7   8
ATOM      8  C   LIG d   1       3.535  83.725 115.115  0.00  0.00     0.119 C 
BRANCH   8   9
ATOM      9  C   LIG d   1       3.466  82.273 115.625  0.00  0.00     0.028 C 
ATOM     10  C   LIG d   1       2.283  82.041 116.579  0.00  0.00     0.006 C 
ENDBRANCH   8   9
BRANCH   8  11
ATOM     11  C   LIG d   1       2.459  84.482 115.901  0.00  0.00     0.028 C 
ATOM     12  C   LIG d   1       3.010  85.725 116.618  0.00  0.00     0.006 C 
ENDBRANCH   8  11
ENDBRANCH   7   8
ENDBRANCH   1   7
BRANCH   6  13
ATOM     13  N   LIG d   1       2.530  86.580 113.139  0.00  0.00    -0.311 N 
ATOM     14  C   LIG d   1       3.586  87.330 112.828  0.00  0.00     0.210 C 
ATOM     15  C   LIG d   1       3.866  88.486 113.793  0.00  0.00     0.109 C 
ATOM     16  O   LIG d   1       4.298  87.167 111.826  0.00  0.00    -0.276 OA
ATOM     17  H   LIG d   1       1.990  86.804 113.952  0.00  0.00     0.149 HD
ENDBRANCH   6  13
BRANCH   5  18
ATOM     18  N   LIG d   1       0.949  86.720 110.529  0.00  0.00     0.381 N 
ATOM     19  H   LIG d   1       0.220  87.398 110.631  0.00  0.00    -0.090 HD
ATOM     20  H   LIG d   1       0.867  86.303 109.619  0.00  0.00    -0.090 HD
ATOM     21  H   LIG d   1       1.838  87.161 110.621  0.00  0.00    -0.090 HD
ENDBRANCH   5  18
BRANCH   3  22
ATOM     22  C   LIG d   1      -0.579  82.263 111.388  0.00  0.00     0.382 C 
ATOM     23  O   LIG d   1      -1.678  82.213 111.991  0.00  0.00    -0.241 OA
ATOM     24  O   LIG d   1      -0.294  81.379 110.558  0.00  0.00    -0.241 OA
ENDBRANCH   3  22
TORSDOF 7
ENDMDL
