MODEL 1
REMARK VINA RESULT:      -6.1      0.000      0.000
REMARK  7 active torsions:
REMARK  status: ('A' for Active; 'I' for Inactive)
REMARK    1  A    between atoms: C_2  and  C_3 
REMARK    2  A    between atoms: C_3  and  O_6 
REMARK    3  A    between atoms: C_3  and  C_4 
REMARK    4  A    between atoms: C_7  and  O_6 
REMARK    5  A    between atoms: C_9  and  C_10 
REMARK    6  A    between atoms: N_15  and  C_14 
REMARK    7  A    between atoms: N_20  and  C_19 
REMARK       I    between atoms: C_22  and  N_20 
ROOT
ATOM      1  C   LIG d   1       2.862  85.434 112.046  0.00  0.00     0.161 C 
ATOM      2  C   LIG d   1       1.633  85.116 111.444  0.00  0.00     0.016 C 
ATOM      3  C   LIG d   1       0.625  86.072 111.182  0.00  0.00     0.038 C 
ATOM      4  C   LIG d   1       0.840  87.446 111.368  0.00  0.00     0.028 C 
ATOM      5  C   LIG d   1       1.876  87.758 112.442  0.00  0.00    -0.047 C 
ATOM      6  C   LIG d   1       3.158  86.945 112.153  0.00  0.00     0.091 C 
ENDROOT
BRANCH   1   7
ATOM      7  O   LIG d   1       3.933  84.762 111.354  0.00  0.00    -0.368 OA
BRANCH   7   8
ATOM      8  C   LIG d   1       3.687  83.383 110.984  0.00  0.00     0.119 C 
BRANCH   8   9
ATOM      9  C   LIG d   1       4.673  82.506 111.779  0.00  0.00     0.028 C 
ATOM     10  C   LIG d   1       4.306  82.413 113.269  0.00  0.00     0.006 C 
ENDBRANCH   8   9
BRANCH   8  11
ATOM     11  C   LIG d   1       4.020  83.134 109.510  0.00  0.00     0.028 C 
ATOM     12  C   LIG d   1       5.128  82.087 109.318  0.00  0.00     0.006 C 
ENDBRANCH   8  11
ENDBRANCH   7   8
ENDBRANCH   1   7
BRANCH   6  13
ATOM     13  N   LIG d   1       4.193  87.127 113.204  0.00  0.00    -0.311 N 
ATOM     14  C   LIG d   1       5.062  88.136 113.211  0.00  0.00     0.210 C 
ATOM     15  C   LIG d   1       6.058  88.125 114.375  0.00  0.00     0.109 C 
ATOM     16  O   LIG d   1       5.082  89.057 112.381  0.00  0.00    -0.276 OA
ATOM     17  H   LIG d   1       4.228  86.442 113.934  0.00  0.00     0.149 HD
ENDBRANCH   6  13
BRANCH   5  18
ATOM     18  N   LIG d   1       2.101  89.215 112.435  0.00  0.00     0.381 N 
ATOM     19  H   LIG d   1       2.496  89.493 111.559  0.00  0.00    -0.090 HD
ATOM     20  H   LIG d   1       2.754  89.447 113.163  0.00  0.00    -0.090 HD
ATOM     21  H   LIG d   1       1.240  89.694 112.586  0.00  0.00    -0.090 HD
ENDBRANCH   5  18
BRANCH   3  22
ATOM     22  C   LIG d   1      -0.629  85.652 110.766  0.00  0.00     0.382 C 
ATOM     23  O   LIG d   1      -1.540  86.492 110.574  0.00  0.00    -0.241 OA
ATOM     24  O   LIG d   1      -0.873  84.439 110.623  0.00  0.00    -0.241 OA
ENDBRANCH   3  22
TORSDOF 7
ENDMDL
MODEL 2
REMARK VINA RESULT:      -6.1      2.409      4.971
REMARK  7 active torsions:
REMARK  status: ('A' for Active; 'I' for Inactive)
REMARK    1  A    between atoms: C_2  and  C_3 
REMARK    2  A    between atoms: C_3  and  O_6 
REMARK    3  A    between atoms: C_3  and  C_4 
REMARK    4  A    between atoms: C_7  and  O_6 
REMARK    5  A    between atoms: C_9  and  C_10 
REMARK    6  A    between atoms: N_15  and  C_14 
REMARK    7  A    between atoms: N_20  and  C_19 
REMARK       I    between atoms: C_22  and  N_20 
ROOT
ATOM      1  C   LIG d   1       2.657  85.098 112.055  0.00  0.00     0.161 C 
ATOM      2  C   LIG d   1       2.901  86.414 112.483  0.00  0.00     0.016 C 
ATOM      3  C   LIG d   1       2.128  87.522 112.068  0.00  0.00     0.038 C 
ATOM      4  C   LIG d   1       0.958  87.368 111.310  0.00  0.00     0.028 C 
ATOM      5  C   LIG d   1       0.961  86.117 110.439  0.00  0.00    -0.047 C 
ATOM      6  C   LIG d   1       1.318  84.895 111.317  0.00  0.00     0.091 C 
ENDROOT
BRANCH   1   7
ATOM      7  O   LIG d   1       2.754  84.194 113.174  0.00  0.00    -0.368 OA
BRANCH   7   8
ATOM      8  C   LIG d   1       4.033  83.538 113.355  0.00  0.00     0.119 C 
BRANCH   8   9
ATOM      9  C   LIG d   1       4.000  82.228 112.545  0.00  0.00     0.028 C 
ATOM     10  C   LIG d   1       5.114  82.164 111.486  0.00  0.00     0.006 C 
ENDBRANCH   8   9
BRANCH   8  11
ATOM     11  C   LIG d   1       4.239  83.110 114.811  0.00  0.00     0.028 C 
ATOM     12  C   LIG d   1       4.050  84.267 115.804  0.00  0.00     0.006 C 
ENDBRANCH   8  11
ENDBRANCH   7   8
ENDBRANCH   1   7
BRANCH   6  13
ATOM     13  N   LIG d   1       1.425  83.641 110.526  0.00  0.00    -0.311 N 
ATOM     14  C   LIG d   1       0.402  82.814 110.322  0.00  0.00     0.210 C 
ATOM     15  C   LIG d   1       0.733  81.567 109.495  0.00  0.00     0.109 C 
ATOM     16  O   LIG d   1      -0.757  83.010 110.719  0.00  0.00    -0.276 OA
ATOM     17  H   LIG d   1       2.322  83.421 110.141  0.00  0.00     0.149 HD
ENDBRANCH   6  13
BRANCH   5  18
ATOM     18  N   LIG d   1      -0.369  86.008 109.810  0.00  0.00     0.381 N 
ATOM     19  H   LIG d   1      -0.804  86.909 109.779  0.00  0.00    -0.090 HD
ATOM     20  H   LIG d   1      -0.944  85.400 110.368  0.00  0.00    -0.090 HD
ATOM     21  H   LIG d   1      -0.282  85.641 108.888  0.00  0.00    -0.090 HD
ENDBRANCH   5  18
BRANCH   3  22
ATOM     22  C   LIG d   1       2.547  88.807 112.379  0.00  0.00     0.382 C 
ATOM     23  O   LIG d   1       3.750  89.022 112.664  0.00  0.00    -0.241 OA
ATOM     24  O   LIG d   1       1.729  89.746 112.422  0.00  0.00    -0.241 OA
ENDBRANCH   3  22
TORSDOF 7
ENDMDL
MODEL 3
REMARK VINA RESULT:      -5.9      4.129      6.058
REMARK  7 active torsions:
REMARK  status: ('A' for Active; 'I' for Inactive)
REMARK    1  A    between atoms: C_2  and  C_3 
REMARK    2  A    between atoms: C_3  and  O_6 
REMARK    3  A    between atoms: C_3  and  C_4 
REMARK    4  A    between atoms: C_7  and  O_6 
REMARK    5  A    between atoms: C_9  and  C_10 
REMARK    6  A    between atoms: N_15  and  C_14 
REMARK    7  A    between atoms: N_20  and  C_19 
REMARK       I    between atoms: C_22  and  N_20 
ROOT
ATOM      1  C   LIG d   1       0.307  82.688 111.787  0.00  0.00     0.161 C 
ATOM      2  C   LIG d   1      -0.886  82.257 112.391  0.00  0.00     0.016 C 
ATOM      3  C   LIG d   1      -1.380  80.937 112.283  0.00  0.00     0.038 C 
ATOM      4  C   LIG d   1      -0.633  79.912 111.685  0.00  0.00     0.028 C 
ATOM      5  C   LIG d   1       0.342  80.412 110.625  0.00  0.00    -0.047 C 
ATOM      6  C   LIG d   1       1.192  81.556 111.224  0.00  0.00     0.091 C 
ENDROOT
BRANCH   1   7
ATOM      7  O   LIG d   1       1.059  83.498 112.712  0.00  0.00    -0.368 OA
BRANCH   7   8
ATOM      8  C   LIG d   1       0.895  84.932 112.582  0.00  0.00     0.119 C 
BRANCH   8   9
ATOM      9  C   LIG d   1       0.617  85.233 111.097  0.00  0.00     0.028 C 
ATOM     10  C   LIG d   1       1.822  85.882 110.395  0.00  0.00     0.006 C 
ENDBRANCH   8   9
BRANCH   8  11
ATOM     11  C   LIG d   1       2.194  85.673 112.911  0.00  0.00     0.028 C 
ATOM     12  C   LIG d   1       3.217  84.788 113.640  0.00  0.00     0.006 C 
ENDBRANCH   8  11
ENDBRANCH   7   8
ENDBRANCH   1   7
BRANCH   6  13
ATOM     13  N   LIG d   1       2.115  82.159 110.227  0.00  0.00    -0.311 N 
ATOM     14  C   LIG d   1       3.407  82.378 110.463  0.00  0.00     0.210 C 
ATOM     15  C   LIG d   1       4.174  83.028 109.306  0.00  0.00     0.109 C 
ATOM     16  O   LIG d   1       3.998  82.067 111.507  0.00  0.00    -0.276 OA
ATOM     17  H   LIG d   1       1.725  82.413 109.341  0.00  0.00     0.149 HD
ENDBRANCH   6  13
BRANCH   5  18
ATOM     18  N   LIG d   1       1.151  79.260 110.184  0.00  0.00     0.381 N 
ATOM     19  H   LIG d   1       1.946  79.582 109.668  0.00  0.00    -0.090 HD
ATOM     20  H   LIG d   1       0.594  78.684 109.579  0.00  0.00    -0.090 HD
ATOM     21  H   LIG d   1       1.451  78.732 110.974  0.00  0.00    -0.090 HD
ENDBRANCH   5  18
BRANCH   3  22
ATOM     22  C   LIG d   1      -2.655  80.641 112.742  0.00  0.00     0.382 C 
ATOM     23  O   LIG d   1      -3.425  81.567 113.094  0.00  0.00    -0.241 OA
ATOM     24  O   LIG d   1      -3.028  79.458 112.851  0.00  0.00    -0.241 OA
ENDBRANCH   3  22
TORSDOF 7
ENDMDL
MODEL 4
REMARK VINA RESULT:      -5.9      2.626      5.045
REMARK  7 active torsions:
REMARK  status: ('A' for Active; 'I' for Inactive)
REMARK    1  A    between atoms: C_2  and  C_3 
REMARK    2  A    between atoms: C_3  and  O_6 
REMARK    3  A    between atoms: C_3  and  C_4 
REMARK    4  A    between atoms: C_7  and  O_6 
REMARK    5  A    between atoms: C_9  and  C_10 
REMARK    6  A    between atoms: N_15  and  C_14 
REMARK    7  A    between atoms: N_20  and  C_19 
REMARK       I    between atoms: C_22  and  N_20 
ROOT
ATOM      1  C   LIG d   1       3.568  85.220 112.271  0.00  0.00     0.161 C 
ATOM      2  C   LIG d   1       3.524  86.561 112.687  0.00  0.00     0.016 C 
ATOM      3  C   LIG d   1       2.701  87.538 112.081  0.00  0.00     0.038 C 
ATOM      4  C   LIG d   1       1.747  87.203 111.108  0.00  0.00     0.028 C 
ATOM      5  C   LIG d   1       2.110  85.958 110.306  0.00  0.00    -0.047 C 
ATOM      6  C   LIG d   1       2.452  84.812 111.286  0.00  0.00     0.091 C 
ENDROOT
BRANCH   1   7
ATOM      7  O   LIG d   1       3.562  84.352 113.421  0.00  0.00    -0.368 OA
BRANCH   7   8
ATOM      8  C   LIG d   1       2.259  83.990 113.941  0.00  0.00     0.119 C 
BRANCH   8   9
ATOM      9  C   LIG d   1       2.132  84.611 115.345  0.00  0.00     0.028 C 
ATOM     10  C   LIG d   1       1.098  85.748 115.393  0.00  0.00     0.006 C 
ENDBRANCH   8   9
BRANCH   8  11
ATOM     11  C   LIG d   1       2.144  82.478 114.154  0.00  0.00     0.028 C 
ATOM     12  C   LIG d   1       2.429  82.057 115.605  0.00  0.00     0.006 C 
ENDBRANCH   8  11
ENDBRANCH   7   8
ENDBRANCH   1   7
BRANCH   6  13
ATOM     13  N   LIG d   1       2.900  83.581 110.584  0.00  0.00    -0.311 N 
ATOM     14  C   LIG d   1       2.089  82.566 110.295  0.00  0.00     0.210 C 
ATOM     15  C   LIG d   1       2.758  81.385 109.585  0.00  0.00     0.109 C 
ATOM     16  O   LIG d   1       0.871  82.544 110.529  0.00  0.00    -0.276 OA
ATOM     17  H   LIG d   1       3.867  83.528 110.329  0.00  0.00     0.149 HD
ENDBRANCH   6  13
BRANCH   5  18
ATOM     18  N   LIG d   1       0.968  85.645 109.427  0.00  0.00     0.381 N 
ATOM     19  H   LIG d   1       1.076  84.727 109.044  0.00  0.00    -0.090 HD
ATOM     20  H   LIG d   1       0.952  86.304 108.668  0.00  0.00    -0.090 HD
ATOM     21  H   LIG d   1       0.116  85.700 109.941  0.00  0.00    -0.090 HD
ENDBRANCH   5  18
BRANCH   3  22
ATOM     22  C   LIG d   1       2.857  88.874 112.418  0.00  0.00     0.382 C 
ATOM     23  O   LIG d   1       3.979  89.302 112.780  0.00  0.00    -0.241 OA
ATOM     24  O   LIG d   1       1.879  89.646 112.409  0.00  0.00    -0.241 OA
ENDBRANCH   3  22
TORSDOF 7
ENDMDL
MODEL 5
REMARK VINA RESULT:      -5.8      2.509      3.260
REMARK  7 active torsions:
REMARK  status: ('A' for Active; 'I' for Inactive)
REMARK    1  A    between atoms: C_2  and  C_3 
REMARK    2  A    between atoms: C_3  and  O_6 
REMARK    3  A    between atoms: C_3  and  C_4 
REMARK    4  A    between atoms: C_7  and  O_6 
REMARK    5  A    between atoms: C_9  and  C_10 
REMARK    6  A    between atoms: N_15  and  C_14 
REMARK    7  A    between atoms: N_20  and  C_19 
REMARK       I    between atoms: C_22  and  N_20 
ROOT
ATOM      1  C   LIG d   1       1.919  83.309 112.847  0.00  0.00     0.161 C 
ATOM      2  C   LIG d   1       0.857  82.392 112.781  0.00  0.00     0.016 C 
ATOM      3  C   LIG d   1      -0.363  82.661 112.118  0.00  0.00     0.038 C 
ATOM      4  C   LIG d   1      -0.546  83.815 111.342  0.00  0.00     0.028 C 
ATOM      5  C   LIG d   1       0.310  84.992 111.795  0.00  0.00    -0.047 C 
ATOM      6  C   LIG d   1       1.780  84.528 111.912  0.00  0.00     0.091 C 
ENDROOT
BRANCH   1   7
ATOM      7  O   LIG d   1       3.166  82.629 112.602  0.00  0.00    -0.368 OA
BRANCH   7   8
ATOM      8  C   LIG d   1       3.557  82.496 111.214  0.00  0.00     0.119 C 
BRANCH   8   9
ATOM      9  C   LIG d   1       2.883  81.224 110.663  0.00  0.00     0.028 C 
ATOM     10  C   LIG d   1       1.954  81.521 109.474  0.00  0.00     0.006 C 
ENDBRANCH   8   9
BRANCH   8  11
ATOM     11  C   LIG d   1       5.063  82.246 111.080  0.00  0.00     0.028 C 
ATOM     12  C   LIG d   1       5.473  81.821 109.661  0.00  0.00     0.006 C 
ENDBRANCH   8  11
ENDBRANCH   7   8
ENDBRANCH   1   7
BRANCH   6  13
ATOM     13  N   LIG d   1       2.672  85.598 112.431  0.00  0.00    -0.311 N 
ATOM     14  C   LIG d   1       3.580  86.223 111.683  0.00  0.00     0.210 C 
ATOM     15  C   LIG d   1       4.409  87.279 112.420  0.00  0.00     0.109 C 
ATOM     16  O   LIG d   1       3.755  86.025 110.471  0.00  0.00    -0.276 OA
ATOM     17  H   LIG d   1       2.576  85.843 113.397  0.00  0.00     0.149 HD
ENDBRANCH   6  13
BRANCH   5  18
ATOM     18  N   LIG d   1       0.124  86.081 110.818  0.00  0.00     0.381 N 
ATOM     19  H   LIG d   1       0.641  85.882 109.985  0.00  0.00    -0.090 HD
ATOM     20  H   LIG d   1       0.477  86.936 111.211  0.00  0.00    -0.090 HD
ATOM     21  H   LIG d   1      -0.843  86.183 110.600  0.00  0.00    -0.090 HD
ENDBRANCH   5  18
BRANCH   3  22
ATOM     22  C   LIG d   1      -1.430  81.787 112.262  0.00  0.00     0.382 C 
ATOM     23  O   LIG d   1      -2.435  82.129 112.931  0.00  0.00    -0.241 OA
ATOM     24  O   LIG d   1      -1.382  80.645 111.767  0.00  0.00    -0.241 OA
ENDBRANCH   3  22
TORSDOF 7
ENDMDL
MODEL 6
REMARK VINA RESULT:      -5.7      2.475      3.305
REMARK  7 active torsions:
REMARK  status: ('A' for Active; 'I' for Inactive)
REMARK    1  A    between atoms: C_2  and  C_3 
REMARK    2  A    between atoms: C_3  and  O_6 
REMARK    3  A    between atoms: C_3  and  C_4 
REMARK    4  A    between atoms: C_7  and  O_6 
REMARK    5  A    between atoms: C_9  and  C_10 
REMARK    6  A    between atoms: N_15  and  C_14 
REMARK    7  A    between atoms: N_20  and  C_19 
REMARK       I    between atoms: C_22  and  N_20 
ROOT
ATOM      1  C   LIG d   1       1.150  84.752 113.059  0.00  0.00     0.161 C 
ATOM      2  C   LIG d   1       0.568  83.474 113.057  0.00  0.00     0.016 C 
ATOM      3  C   LIG d   1      -0.408  83.064 112.120  0.00  0.00     0.038 C 
ATOM      4  C   LIG d   1      -0.762  83.862 111.021  0.00  0.00     0.028 C 
ATOM      5  C   LIG d   1      -0.572  85.354 111.270  0.00  0.00    -0.047 C 
ATOM      6  C   LIG d   1       0.859  85.597 111.801  0.00  0.00     0.091 C 
ENDROOT
BRANCH   1   7
ATOM      7  O   LIG d   1       2.572  84.642 113.270  0.00  0.00    -0.368 OA
BRANCH   7   8
ATOM      8  C   LIG d   1       3.207  83.459 112.725  0.00  0.00     0.119 C 
BRANCH   8   9
ATOM      9  C   LIG d   1       4.287  83.010 113.728  0.00  0.00     0.028 C 
ATOM     10  C   LIG d   1       4.206  83.775 115.060  0.00  0.00     0.006 C 
ENDBRANCH   8   9
BRANCH   8  11
ATOM     11  C   LIG d   1       3.962  83.778 111.431  0.00  0.00     0.028 C 
ATOM     12  C   LIG d   1       3.257  83.234 110.179  0.00  0.00     0.006 C 
ENDBRANCH   8  11
ENDBRANCH   7   8
ENDBRANCH   1   7
BRANCH   6  13
ATOM     13  N   LIG d   1       1.100  87.021 112.150  0.00  0.00    -0.311 N 
ATOM     14  C   LIG d   1       2.217  87.675 111.833  0.00  0.00     0.210 C 
ATOM     15  C   LIG d   1       2.270  89.131 112.305  0.00  0.00     0.109 C 
ATOM     16  O   LIG d   1       3.154  87.196 111.177  0.00  0.00    -0.276 OA
ATOM     17  H   LIG d   1       0.378  87.496 112.655  0.00  0.00     0.149 HD
ENDBRANCH   6  13
BRANCH   5  18
ATOM     18  N   LIG d   1      -0.846  86.055 110.002  0.00  0.00     0.381 N 
ATOM     19  H   LIG d   1      -0.224  85.724 109.291  0.00  0.00    -0.090 HD
ATOM     20  H   LIG d   1      -0.681  87.038 110.131  0.00  0.00    -0.090 HD
ATOM     21  H   LIG d   1      -1.790  85.904 109.724  0.00  0.00    -0.090 HD
ENDBRANCH   5  18
BRANCH   3  22
ATOM     22  C   LIG d   1      -1.072  81.861 112.301  0.00  0.00     0.382 C 
ATOM     23  O   LIG d   1      -2.327  81.831 112.308  0.00  0.00    -0.241 OA
ATOM     24  O   LIG d   1      -0.433  80.811 112.502  0.00  0.00    -0.241 OA
ENDBRANCH   3  22
TORSDOF 7
ENDMDL
MODEL 7
REMARK VINA RESULT:      -5.6      2.530      2.967
REMARK  7 active torsions:
REMARK  status: ('A' for Active; 'I' for Inactive)
REMARK    1  A    between atoms: C_2  and  C_3 
REMARK    2  A    between atoms: C_3  and  O_6 
REMARK    3  A    between atoms: C_3  and  C_4 
REMARK    4  A    between atoms: C_7  and  O_6 
REMARK    5  A    between atoms: C_9  and  C_10 
REMARK    6  A    between atoms: N_15  and  C_14 
REMARK    7  A    between atoms: N_20  and  C_19 
REMARK       I    between atoms: C_22  and  N_20 
ROOT
ATOM      1  C   LIG d   1       2.721  83.290 113.186  0.00  0.00     0.161 C 
ATOM      2  C   LIG d   1       1.537  83.018 112.481  0.00  0.00     0.016 C 
ATOM      3  C   LIG d   1       0.351  83.773 112.630  0.00  0.00     0.038 C 
ATOM      4  C   LIG d   1       0.314  84.953 113.387  0.00  0.00     0.028 C 
ATOM      5  C   LIG d   1       1.342  84.982 114.514  0.00  0.00    -0.047 C 
ATOM      6  C   LIG d   1       2.733  84.640 113.934  0.00  0.00     0.091 C 
ENDROOT
BRANCH   1   7
ATOM      7  O   LIG d   1       3.851  83.199 112.297  0.00  0.00    -0.368 OA
BRANCH   7   8
ATOM      8  C   LIG d   1       3.584  82.661 110.979  0.00  0.00     0.119 C 
BRANCH   8   9
ATOM      9  C   LIG d   1       4.656  81.593 110.689  0.00  0.00     0.028 C 
ATOM     10  C   LIG d   1       5.303  81.771 109.305  0.00  0.00     0.006 C 
ENDBRANCH   8   9
BRANCH   8  11
ATOM     11  C   LIG d   1       3.769  83.726 109.894  0.00  0.00     0.028 C 
ATOM     12  C   LIG d   1       3.540  85.154 110.415  0.00  0.00     0.006 C 
ENDBRANCH   8  11
ENDBRANCH   7   8
ENDBRANCH   1   7
BRANCH   6  13
ATOM     13  N   LIG d   1       3.782  84.563 114.984  0.00  0.00    -0.311 N 
ATOM     14  C   LIG d   1       4.549  85.595 115.330  0.00  0.00     0.210 C 
ATOM     15  C   LIG d   1       5.582  85.296 116.421  0.00  0.00     0.109 C 
ATOM     16  O   LIG d   1       4.450  86.739 114.860  0.00  0.00    -0.276 OA
ATOM     17  H   LIG d   1       3.908  83.680 115.439  0.00  0.00     0.149 HD
ENDBRANCH   6  13
BRANCH   5  18
ATOM     18  N   LIG d   1       1.287  86.320 115.133  0.00  0.00     0.381 N 
ATOM     19  H   LIG d   1       1.150  86.231 116.120  0.00  0.00    -0.090 HD
ATOM     20  H   LIG d   1       0.506  86.823 114.751  0.00  0.00    -0.090 HD
ATOM     21  H   LIG d   1       2.132  86.815 114.951  0.00  0.00    -0.090 HD
ENDBRANCH   5  18
BRANCH   3  22
ATOM     22  C   LIG d   1      -0.826  83.327 112.047  0.00  0.00     0.382 C 
ATOM     23  O   LIG d   1      -1.657  82.682 112.730  0.00  0.00    -0.241 OA
ATOM     24  O   LIG d   1      -1.046  83.524 110.837  0.00  0.00    -0.241 OA
ENDBRANCH   3  22
TORSDOF 7
ENDMDL
MODEL 8
REMARK VINA RESULT:      -5.5      3.091      3.792
REMARK  7 active torsions:
REMARK  status: ('A' for Active; 'I' for Inactive)
REMARK    1  A    between atoms: C_2  and  C_3 
REMARK    2  A    between atoms: C_3  and  O_6 
REMARK    3  A    between atoms: C_3  and  C_4 
REMARK    4  A    between atoms: C_7  and  O_6 
REMARK    5  A    between atoms: C_9  and  C_10 
REMARK    6  A    between atoms: N_15  and  C_14 
REMARK    7  A    between atoms: N_20  and  C_19 
REMARK       I    between atoms: C_22  and  N_20 
ROOT
ATOM      1  C   LIG d   1       0.567  83.143 112.292  0.00  0.00     0.161 C 
ATOM      2  C   LIG d   1      -0.061  83.986 111.360  0.00  0.00     0.016 C 
ATOM      3  C   LIG d   1      -0.187  85.383 111.535  0.00  0.00     0.038 C 
ATOM      4  C   LIG d   1       0.445  86.058 112.591  0.00  0.00     0.028 C 
ATOM      5  C   LIG d   1       0.660  85.187 113.823  0.00  0.00    -0.047 C 
ATOM      6  C   LIG d   1       1.359  83.876 113.395  0.00  0.00     0.091 C 
ENDROOT
BRANCH   1   7
ATOM      7  O   LIG d   1       1.417  82.203 111.606  0.00  0.00    -0.368 OA
BRANCH   7   8
ATOM      8  C   LIG d   1       1.827  82.574 110.267  0.00  0.00     0.119 C 
BRANCH   8   9
ATOM      9  C   LIG d   1       1.785  81.300 109.400  0.00  0.00     0.028 C 
ATOM     10  C   LIG d   1       3.098  80.501 109.468  0.00  0.00     0.006 C 
ENDBRANCH   8   9
BRANCH   8  11
ATOM     11  C   LIG d   1       3.287  83.036 110.239  0.00  0.00     0.028 C 
ATOM     12  C   LIG d   1       3.427  84.565 110.178  0.00  0.00     0.006 C 
ENDBRANCH   8  11
ENDBRANCH   7   8
ENDBRANCH   1   7
BRANCH   6  13
ATOM     13  N   LIG d   1       1.532  82.930 114.528  0.00  0.00    -0.311 N 
ATOM     14  C   LIG d   1       2.637  82.869 115.270  0.00  0.00     0.210 C 
ATOM     15  C   LIG d   1       2.615  81.808 116.375  0.00  0.00     0.109 C 
ATOM     16  O   LIG d   1       3.619  83.613 115.138  0.00  0.00    -0.276 OA
ATOM     17  H   LIG d   1       0.771  82.310 114.725  0.00  0.00     0.149 HD
ENDBRANCH   6  13
BRANCH   5  18
ATOM     18  N   LIG d   1       1.448  85.972 114.792  0.00  0.00     0.381 N 
ATOM     19  H   LIG d   1       0.989  86.842 114.977  0.00  0.00    -0.090 HD
ATOM     20  H   LIG d   1       2.349  86.170 114.393  0.00  0.00    -0.090 HD
ATOM     21  H   LIG d   1       1.557  85.459 115.639  0.00  0.00    -0.090 HD
ENDBRANCH   5  18
BRANCH   3  22
ATOM     22  C   LIG d   1      -0.985  86.115 110.669  0.00  0.00     0.382 C 
ATOM     23  O   LIG d   1      -1.751  87.001 111.120  0.00  0.00    -0.241 OA
ATOM     24  O   LIG d   1      -0.981  85.871 109.448  0.00  0.00    -0.241 OA
ENDBRANCH   3  22
TORSDOF 7
ENDMDL
MODEL 9
REMARK VINA RESULT:      -5.4      3.079      4.343
REMARK  7 active torsions:
REMARK  status: ('A' for Active; 'I' for Inactive)
REMARK    1  A    between atoms: C_2  and  C_3 
REMARK    2  A    between atoms: C_3  and  O_6 
REMARK    3  A    between atoms: C_3  and  C_4 
REMARK    4  A    between atoms: C_7  and  O_6 
REMARK    5  A    between atoms: C_9  and  C_10 
REMARK    6  A    between atoms: N_15  and  C_14 
REMARK    7  A    between atoms: N_20  and  C_19 
REMARK       I    between atoms: C_22  and  N_20 
ROOT
ATOM      1  C   LIG d   1       0.931  84.788 113.074  0.00  0.00     0.161 C 
ATOM      2  C   LIG d   1       0.324  83.523 113.008  0.00  0.00     0.016 C 
ATOM      3  C   LIG d   1      -0.472  83.098 111.919  0.00  0.00     0.038 C 
ATOM      4  C   LIG d   1      -0.591  83.859 110.747  0.00  0.00     0.028 C 
ATOM      5  C   LIG d   1      -0.410  85.356 110.975  0.00  0.00    -0.047 C 
ATOM      6  C   LIG d   1       0.904  85.589 111.755  0.00  0.00     0.091 C 
ENDROOT
BRANCH   1   7
ATOM      7  O   LIG d   1       2.285  84.656 113.552  0.00  0.00    -0.368 OA
BRANCH   7   8
ATOM      8  C   LIG d   1       2.587  85.321 114.803  0.00  0.00     0.119 C 
BRANCH   8   9
ATOM      9  C   LIG d   1       3.223  84.276 115.741  0.00  0.00     0.028 C 
ATOM     10  C   LIG d   1       4.132  83.289 114.989  0.00  0.00     0.006 C 
ENDBRANCH   8   9
BRANCH   8  11
ATOM     11  C   LIG d   1       1.309  85.778 115.514  0.00  0.00     0.028 C 
ATOM     12  C   LIG d   1       1.136  85.137 116.900  0.00  0.00     0.006 C 
ENDBRANCH   8  11
ENDBRANCH   7   8
ENDBRANCH   1   7
BRANCH   6  13
ATOM     13  N   LIG d   1       1.116  87.020 112.094  0.00  0.00    -0.311 N 
ATOM     14  C   LIG d   1       2.253  87.670 111.852  0.00  0.00     0.210 C 
ATOM     15  C   LIG d   1       2.267  89.136 112.298  0.00  0.00     0.109 C 
ATOM     16  O   LIG d   1       3.239  87.181 111.282  0.00  0.00    -0.276 OA
ATOM     17  H   LIG d   1       0.355  87.503 112.531  0.00  0.00     0.149 HD
ENDBRANCH   6  13
BRANCH   5  18
ATOM     18  N   LIG d   1      -0.422  86.013 109.654  0.00  0.00     0.381 N 
ATOM     19  H   LIG d   1       0.409  85.775 109.150  0.00  0.00    -0.090 HD
ATOM     20  H   LIG d   1      -0.436  87.009 109.786  0.00  0.00    -0.090 HD
ATOM     21  H   LIG d   1      -1.225  85.727 109.138  0.00  0.00    -0.090 HD
ENDBRANCH   5  18
BRANCH   3  22
ATOM     22  C   LIG d   1      -1.192  81.917 112.014  0.00  0.00     0.382 C 
ATOM     23  O   LIG d   1      -0.693  80.844 111.596  0.00  0.00    -0.241 OA
ATOM     24  O   LIG d   1      -2.350  81.918 112.471  0.00  0.00    -0.241 OA
ENDBRANCH   3  22
TORSDOF 7
ENDMDL
