MODEL 1
REMARK VINA RESULT:      -7.0      0.000      0.000
REMARK  7 active torsions:
REMARK  status: ('A' for Active; 'I' for Inactive)
REMARK    1  A    between atoms: C_2  and  C_3 
REMARK    2  A    between atoms: C_3  and  O_6 
REMARK    3  A    between atoms: C_3  and  C_4 
REMARK    4  A    between atoms: C_7  and  O_6 
REMARK    5  A    between atoms: C_9  and  C_10 
REMARK    6  A    between atoms: N_15  and  C_14 
REMARK    7  A    between atoms: N_20  and  C_19 
REMARK       I    between atoms: C_22  and  N_20 
ROOT
ATOM      1  C   LIG d   1       0.998  83.901 109.311  0.00  0.00     0.161 C 
ATOM      2  C   LIG d   1       0.680  85.161 109.846  0.00  0.00     0.016 C 
ATOM      3  C   LIG d   1      -0.123  85.338 110.996  0.00  0.00     0.038 C 
ATOM      4  C   LIG d   1      -0.540  84.254 111.782  0.00  0.00     0.028 C 
ATOM      5  C   LIG d   1      -0.667  82.951 111.000  0.00  0.00    -0.047 C 
ATOM      6  C   LIG d   1       0.645  82.705 110.219  0.00  0.00     0.091 C 
ENDROOT
BRANCH   1   7
ATOM      7  O   LIG d   1       2.394  83.862 108.951  0.00  0.00    -0.368 OA
BRANCH   7   8
ATOM      8  C   LIG d   1       3.318  83.536 110.018  0.00  0.00     0.119 C 
BRANCH   8   9
ATOM      9  C   LIG d   1       3.741  84.860 110.684  0.00  0.00     0.028 C 
ATOM     10  C   LIG d   1       3.578  84.825 112.213  0.00  0.00     0.006 C 
ENDBRANCH   8   9
BRANCH   8  11
ATOM     11  C   LIG d   1       4.611  82.927 109.468  0.00  0.00     0.028 C 
ATOM     12  C   LIG d   1       4.380  82.067 108.216  0.00  0.00     0.006 C 
ENDBRANCH   8  11
ENDBRANCH   7   8
ENDBRANCH   1   7
BRANCH   6  13
ATOM     13  N   LIG d   1       0.575  81.494 109.361  0.00  0.00    -0.311 N 
ATOM     14  C   LIG d   1       1.381  80.444 109.507  0.00  0.00     0.210 C 
ATOM     15  C   LIG d   1       1.154  79.309 108.504  0.00  0.00     0.109 C 
ATOM     16  O   LIG d   1       2.242  80.332 110.392  0.00  0.00    -0.276 OA
ATOM     17  H   LIG d   1      -0.116  81.488 108.636  0.00  0.00     0.149 HD
ENDBRANCH   6  13
BRANCH   5  18
ATOM     18  N   LIG d   1      -0.974  81.879 111.966  0.00  0.00     0.381 N 
ATOM     19  H   LIG d   1      -0.987  82.253 112.894  0.00  0.00    -0.090 HD
ATOM     20  H   LIG d   1      -0.252  81.181 111.917  0.00  0.00    -0.090 HD
ATOM     21  H   LIG d   1      -1.857  81.470 111.752  0.00  0.00    -0.090 HD
ENDBRANCH   5  18
BRANCH   3  22
ATOM     22  C   LIG d   1      -0.550  86.609 111.347  0.00  0.00     0.382 C 
ATOM     23  O   LIG d   1      -1.760  86.919 111.230  0.00  0.00    -0.241 OA
ATOM     24  O   LIG d   1       0.267  87.464 111.738  0.00  0.00    -0.241 OA
ENDBRANCH   3  22
TORSDOF 7
ENDMDL
MODEL 2
REMARK VINA RESULT:      -6.6      2.558      4.824
REMARK  7 active torsions:
REMARK  status: ('A' for Active; 'I' for Inactive)
REMARK    1  A    between atoms: C_2  and  C_3 
REMARK    2  A    between atoms: C_3  and  O_6 
REMARK    3  A    between atoms: C_3  and  C_4 
REMARK    4  A    between atoms: C_7  and  O_6 
REMARK    5  A    between atoms: C_9  and  C_10 
REMARK    6  A    between atoms: N_15  and  C_14 
REMARK    7  A    between atoms: N_20  and  C_19 
REMARK       I    between atoms: C_22  and  N_20 
ROOT
ATOM      1  C   LIG d   1       1.404  81.312 111.886  0.00  0.00     0.161 C 
ATOM      2  C   LIG d   1       2.444  81.935 111.176  0.00  0.00     0.016 C 
ATOM      3  C   LIG d   1       2.589  81.846 109.772  0.00  0.00     0.038 C 
ATOM      4  C   LIG d   1       1.612  81.249 108.962  0.00  0.00     0.028 C 
ATOM      5  C   LIG d   1       0.806  80.172 109.679  0.00  0.00    -0.047 C 
ATOM      6  C   LIG d   1       0.267  80.749 111.008  0.00  0.00     0.091 C 
ENDROOT
BRANCH   1   7
ATOM      7  O   LIG d   1       0.874  82.219 112.872  0.00  0.00    -0.368 OA
BRANCH   7   8
ATOM      8  C   LIG d   1       0.942  83.629 112.543  0.00  0.00     0.119 C 
BRANCH   8   9
ATOM      9  C   LIG d   1       1.233  84.395 113.848  0.00  0.00     0.028 C 
ATOM     10  C   LIG d   1       1.938  85.738 113.596  0.00  0.00     0.006 C 
ENDBRANCH   8   9
BRANCH   8  11
ATOM     11  C   LIG d   1      -0.412  84.154 112.057  0.00  0.00     0.028 C 
ATOM     12  C   LIG d   1      -0.411  84.511 110.562  0.00  0.00     0.006 C 
ENDBRANCH   8  11
ENDBRANCH   7   8
ENDBRANCH   1   7
BRANCH   6  13
ATOM     13  N   LIG d   1      -0.462  79.734 111.812  0.00  0.00    -0.311 N 
ATOM     14  C   LIG d   1      -1.655  79.955 112.363  0.00  0.00     0.210 C 
ATOM     15  C   LIG d   1      -2.222  78.782 113.169  0.00  0.00     0.109 C 
ATOM     16  O   LIG d   1      -2.312  80.998 112.233  0.00  0.00    -0.276 OA
ATOM     17  H   LIG d   1      -0.016  78.848 111.942  0.00  0.00     0.149 HD
ENDBRANCH   6  13
BRANCH   5  18
ATOM     18  N   LIG d   1      -0.264  79.732 108.764  0.00  0.00     0.381 N 
ATOM     19  H   LIG d   1      -0.277  78.733 108.713  0.00  0.00    -0.090 HD
ATOM     20  H   LIG d   1      -0.074  80.092 107.845  0.00  0.00    -0.090 HD
ATOM     21  H   LIG d   1      -1.146  80.067 109.084  0.00  0.00    -0.090 HD
ENDBRANCH   5  18
BRANCH   3  22
ATOM     22  C   LIG d   1       3.742  82.325 109.169  0.00  0.00     0.382 C 
ATOM     23  O   LIG d   1       4.281  83.376 109.591  0.00  0.00    -0.241 OA
ATOM     24  O   LIG d   1       4.226  81.742 108.180  0.00  0.00    -0.241 OA
ENDBRANCH   3  22
TORSDOF 7
ENDMDL
MODEL 3
REMARK VINA RESULT:      -6.4      2.678      4.449
REMARK  7 active torsions:
REMARK  status: ('A' for Active; 'I' for Inactive)
REMARK    1  A    between atoms: C_2  and  C_3 
REMARK    2  A    between atoms: C_3  and  O_6 
REMARK    3  A    between atoms: C_3  and  C_4 
REMARK    4  A    between atoms: C_7  and  O_6 
REMARK    5  A    between atoms: C_9  and  C_10 
REMARK    6  A    between atoms: N_15  and  C_14 
REMARK    7  A    between atoms: N_20  and  C_19 
REMARK       I    between atoms: C_22  and  N_20 
ROOT
ATOM      1  C   LIG d   1       0.350  82.196 111.131  0.00  0.00     0.161 C 
ATOM      2  C   LIG d   1      -0.772  81.855 111.905  0.00  0.00     0.016 C 
ATOM      3  C   LIG d   1      -1.326  80.555 111.943  0.00  0.00     0.038 C 
ATOM      4  C   LIG d   1      -0.700  79.464 111.322  0.00  0.00     0.028 C 
ATOM      5  C   LIG d   1       0.149  79.858 110.118  0.00  0.00    -0.047 C 
ATOM      6  C   LIG d   1       1.112  80.994 110.533  0.00  0.00     0.091 C 
ENDROOT
BRANCH   1   7
ATOM      7  O   LIG d   1       1.243  83.023 111.902  0.00  0.00    -0.368 OA
BRANCH   7   8
ATOM      8  C   LIG d   1       1.414  84.384 111.436  0.00  0.00     0.119 C 
BRANCH   8   9
ATOM      9  C   LIG d   1       2.921  84.701 111.473  0.00  0.00     0.028 C 
ATOM     10  C   LIG d   1       3.220  86.053 112.143  0.00  0.00     0.006 C 
ENDBRANCH   8   9
BRANCH   8  11
ATOM     11  C   LIG d   1       0.765  85.387 112.394  0.00  0.00     0.028 C 
ATOM     12  C   LIG d   1      -0.657  85.784 111.968  0.00  0.00     0.006 C 
ENDBRANCH   8  11
ENDBRANCH   7   8
ENDBRANCH   1   7
BRANCH   6  13
ATOM     13  N   LIG d   1       1.921  81.497 109.392  0.00  0.00    -0.311 N 
ATOM     14  C   LIG d   1       3.248  81.605 109.426  0.00  0.00     0.210 C 
ATOM     15  C   LIG d   1       3.884  82.165 108.150  0.00  0.00     0.109 C 
ATOM     16  O   LIG d   1       3.962  81.259 110.379  0.00  0.00    -0.276 OA
ATOM     17  H   LIG d   1       1.425  81.771 108.567  0.00  0.00     0.149 HD
ENDBRANCH   6  13
BRANCH   5  18
ATOM     18  N   LIG d   1       0.851  78.647 109.652  0.00  0.00     0.381 N 
ATOM     19  H   LIG d   1       0.213  77.877 109.621  0.00  0.00    -0.090 HD
ATOM     20  H   LIG d   1       1.583  78.425 110.304  0.00  0.00    -0.090 HD
ATOM     21  H   LIG d   1       1.238  78.804 108.748  0.00  0.00    -0.090 HD
ENDBRANCH   5  18
BRANCH   3  22
ATOM     22  C   LIG d   1      -2.541  80.344 112.577  0.00  0.00     0.382 C 
ATOM     23  O   LIG d   1      -2.805  79.221 113.069  0.00  0.00    -0.241 OA
ATOM     24  O   LIG d   1      -3.395  81.250 112.622  0.00  0.00    -0.241 OA
ENDBRANCH   3  22
TORSDOF 7
ENDMDL
MODEL 4
REMARK VINA RESULT:      -6.1      1.267      2.174
REMARK  7 active torsions:
REMARK  status: ('A' for Active; 'I' for Inactive)
REMARK    1  A    between atoms: C_2  and  C_3 
REMARK    2  A    between atoms: C_3  and  O_6 
REMARK    3  A    between atoms: C_3  and  C_4 
REMARK    4  A    between atoms: C_7  and  O_6 
REMARK    5  A    between atoms: C_9  and  C_10 
REMARK    6  A    between atoms: N_15  and  C_14 
REMARK    7  A    between atoms: N_20  and  C_19 
REMARK       I    between atoms: C_22  and  N_20 
ROOT
ATOM      1  C   LIG d   1       1.673  83.951 109.733  0.00  0.00     0.161 C 
ATOM      2  C   LIG d   1       1.902  85.126 110.469  0.00  0.00     0.016 C 
ATOM      3  C   LIG d   1       1.282  85.400 111.710  0.00  0.00     0.038 C 
ATOM      4  C   LIG d   1       0.502  84.443 112.376  0.00  0.00     0.028 C 
ATOM      5  C   LIG d   1      -0.162  83.442 111.436  0.00  0.00    -0.047 C 
ATOM      6  C   LIG d   1       0.912  82.848 110.496  0.00  0.00     0.091 C 
ENDROOT
BRANCH   1   7
ATOM      7  O   LIG d   1       2.923  83.441 109.228  0.00  0.00    -0.368 OA
BRANCH   7   8
ATOM      8  C   LIG d   1       4.028  83.421 110.164  0.00  0.00     0.119 C 
BRANCH   8   9
ATOM      9  C   LIG d   1       5.197  82.680 109.485  0.00  0.00     0.028 C 
ATOM     10  C   LIG d   1       4.741  81.399 108.767  0.00  0.00     0.006 C 
ENDBRANCH   8   9
BRANCH   8  11
ATOM     11  C   LIG d   1       3.691  82.594 111.407  0.00  0.00     0.028 C 
ATOM     12  C   LIG d   1       4.269  83.196 112.698  0.00  0.00     0.006 C 
ENDBRANCH   8  11
ENDBRANCH   7   8
ENDBRANCH   1   7
BRANCH   6  13
ATOM     13  N   LIG d   1       0.333  81.921 109.489  0.00  0.00    -0.311 N 
ATOM     14  C   LIG d   1       0.770  80.677 109.301  0.00  0.00     0.210 C 
ATOM     15  C   LIG d   1       0.047  79.898 108.197  0.00  0.00     0.109 C 
ATOM     16  O   LIG d   1       1.665  80.133 109.965  0.00  0.00    -0.276 OA
ATOM     17  H   LIG d   1      -0.419  82.270 108.927  0.00  0.00     0.149 HD
ENDBRANCH   6  13
BRANCH   5  18
ATOM     18  N   LIG d   1      -0.829  82.423 112.269  0.00  0.00     0.381 N 
ATOM     19  H   LIG d   1      -1.216  82.853 113.085  0.00  0.00    -0.090 HD
ATOM     20  H   LIG d   1      -0.147  81.746 112.563  0.00  0.00    -0.090 HD
ATOM     21  H   LIG d   1      -1.549  81.974 111.747  0.00  0.00    -0.090 HD
ENDBRANCH   5  18
BRANCH   3  22
ATOM     22  C   LIG d   1       1.408  86.658 112.278  0.00  0.00     0.382 C 
ATOM     23  O   LIG d   1       1.869  86.778 113.439  0.00  0.00    -0.241 OA
ATOM     24  O   LIG d   1       1.024  87.671 111.662  0.00  0.00    -0.241 OA
ENDBRANCH   3  22
TORSDOF 7
ENDMDL
MODEL 5
REMARK VINA RESULT:      -6.1      2.461      5.763
REMARK  7 active torsions:
REMARK  status: ('A' for Active; 'I' for Inactive)
REMARK    1  A    between atoms: C_2  and  C_3 
REMARK    2  A    between atoms: C_3  and  O_6 
REMARK    3  A    between atoms: C_3  and  C_4 
REMARK    4  A    between atoms: C_7  and  O_6 
REMARK    5  A    between atoms: C_9  and  C_10 
REMARK    6  A    between atoms: N_15  and  C_14 
REMARK    7  A    between atoms: N_20  and  C_19 
REMARK       I    between atoms: C_22  and  N_20 
ROOT
ATOM      1  C   LIG d   1       0.976  82.807 109.706  0.00  0.00     0.161 C 
ATOM      2  C   LIG d   1       2.082  82.035 109.312  0.00  0.00     0.016 C 
ATOM      3  C   LIG d   1       3.422  82.434 109.519  0.00  0.00     0.038 C 
ATOM      4  C   LIG d   1       3.750  83.570 110.274  0.00  0.00     0.028 C 
ATOM      5  C   LIG d   1       2.666  84.643 110.255  0.00  0.00    -0.047 C 
ATOM      6  C   LIG d   1       1.313  83.996 110.630  0.00  0.00     0.091 C 
ENDROOT
BRANCH   1   7
ATOM      7  O   LIG d   1      -0.017  81.961 110.320  0.00  0.00    -0.368 OA
BRANCH   7   8
ATOM      8  C   LIG d   1       0.478  80.759 110.959  0.00  0.00     0.119 C 
BRANCH   8   9
ATOM      9  C   LIG d   1      -0.392  79.584 110.472  0.00  0.00     0.028 C 
ATOM     10  C   LIG d   1      -1.278  79.007 111.589  0.00  0.00     0.006 C 
ENDBRANCH   8   9
BRANCH   8  11
ATOM     11  C   LIG d   1       0.275  80.811 112.477  0.00  0.00     0.028 C 
ATOM     12  C   LIG d   1       1.473  81.428 113.216  0.00  0.00     0.006 C 
ENDBRANCH   8  11
ENDBRANCH   7   8
ENDBRANCH   1   7
BRANCH   6  13
ATOM     13  N   LIG d   1       0.184  84.959 110.553  0.00  0.00    -0.311 N 
ATOM     14  C   LIG d   1      -0.196  85.726 111.574  0.00  0.00     0.210 C 
ATOM     15  C   LIG d   1      -1.396  86.634 111.289  0.00  0.00     0.109 C 
ATOM     16  O   LIG d   1       0.366  85.762 112.679  0.00  0.00    -0.276 OA
ATOM     17  H   LIG d   1      -0.308  85.017 109.683  0.00  0.00     0.149 HD
ENDBRANCH   6  13
BRANCH   5  18
ATOM     18  N   LIG d   1       3.077  85.707 111.190  0.00  0.00     0.381 N 
ATOM     19  H   LIG d   1       3.728  86.320 110.741  0.00  0.00    -0.090 HD
ATOM     20  H   LIG d   1       3.533  85.287 111.981  0.00  0.00    -0.090 HD
ATOM     21  H   LIG d   1       2.279  86.222 111.492  0.00  0.00    -0.090 HD
ENDBRANCH   5  18
BRANCH   3  22
ATOM     22  C   LIG d   1       4.452  81.713 108.933  0.00  0.00     0.382 C 
ATOM     23  O   LIG d   1       4.887  80.676 109.488  0.00  0.00    -0.241 OA
ATOM     24  O   LIG d   1       4.981  82.112 107.878  0.00  0.00    -0.241 OA
ENDBRANCH   3  22
TORSDOF 7
ENDMDL
MODEL 6
REMARK VINA RESULT:      -6.1      2.598      4.901
REMARK  7 active torsions:
REMARK  status: ('A' for Active; 'I' for Inactive)
REMARK    1  A    between atoms: C_2  and  C_3 
REMARK    2  A    between atoms: C_3  and  O_6 
REMARK    3  A    between atoms: C_3  and  C_4 
REMARK    4  A    between atoms: C_7  and  O_6 
REMARK    5  A    between atoms: C_9  and  C_10 
REMARK    6  A    between atoms: N_15  and  C_14 
REMARK    7  A    between atoms: N_20  and  C_19 
REMARK       I    between atoms: C_22  and  N_20 
ROOT
ATOM      1  C   LIG d   1       2.307  82.964 112.259  0.00  0.00     0.161 C 
ATOM      2  C   LIG d   1       1.468  81.881 111.949  0.00  0.00     0.016 C 
ATOM      3  C   LIG d   1       0.074  82.008 111.752  0.00  0.00     0.038 C 
ATOM      4  C   LIG d   1      -0.557  83.260 111.702  0.00  0.00     0.028 C 
ATOM      5  C   LIG d   1       0.164  84.334 112.509  0.00  0.00    -0.047 C 
ATOM      6  C   LIG d   1       1.655  84.353 112.100  0.00  0.00     0.091 C 
ENDROOT
BRANCH   1   7
ATOM      7  O   LIG d   1       3.516  82.885 111.479  0.00  0.00    -0.368 OA
BRANCH   7   8
ATOM      8  C   LIG d   1       3.383  82.309 110.156  0.00  0.00     0.119 C 
BRANCH   8   9
ATOM      9  C   LIG d   1       4.786  81.859 109.705  0.00  0.00     0.028 C 
ATOM     10  C   LIG d   1       4.845  80.357 109.380  0.00  0.00     0.006 C 
ENDBRANCH   8   9
BRANCH   8  11
ATOM     11  C   LIG d   1       2.946  83.360 109.131  0.00  0.00     0.028 C 
ATOM     12  C   LIG d   1       1.753  82.900 108.278  0.00  0.00     0.006 C 
ENDBRANCH   8  11
ENDBRANCH   7   8
ENDBRANCH   1   7
BRANCH   6  13
ATOM     13  N   LIG d   1       2.451  85.319 112.902  0.00  0.00    -0.311 N 
ATOM     14  C   LIG d   1       2.641  86.587 112.545  0.00  0.00     0.210 C 
ATOM     15  C   LIG d   1       3.510  87.406 113.505  0.00  0.00     0.109 C 
ATOM     16  O   LIG d   1       2.147  87.121 111.541  0.00  0.00    -0.276 OA
ATOM     17  H   LIG d   1       2.862  84.978 113.749  0.00  0.00     0.149 HD
ENDBRANCH   6  13
BRANCH   5  18
ATOM     18  N   LIG d   1      -0.521  85.616 112.258  0.00  0.00     0.381 N 
ATOM     19  H   LIG d   1      -1.203  85.781 112.972  0.00  0.00    -0.090 HD
ATOM     20  H   LIG d   1      -0.996  85.563 111.374  0.00  0.00    -0.090 HD
ATOM     21  H   LIG d   1       0.142  86.360 112.244  0.00  0.00    -0.090 HD
ENDBRANCH   5  18
BRANCH   3  22
ATOM     22  C   LIG d   1      -0.711  80.870 111.641  0.00  0.00     0.382 C 
ATOM     23  O   LIG d   1      -1.770  80.772 112.306  0.00  0.00    -0.241 OA
ATOM     24  O   LIG d   1      -0.351  79.923 110.917  0.00  0.00    -0.241 OA
ENDBRANCH   3  22
TORSDOF 7
ENDMDL
MODEL 7
REMARK VINA RESULT:      -6.0      2.242      3.412
REMARK  7 active torsions:
REMARK  status: ('A' for Active; 'I' for Inactive)
REMARK    1  A    between atoms: C_2  and  C_3 
REMARK    2  A    between atoms: C_3  and  O_6 
REMARK    3  A    between atoms: C_3  and  C_4 
REMARK    4  A    between atoms: C_7  and  O_6 
REMARK    5  A    between atoms: C_9  and  C_10 
REMARK    6  A    between atoms: N_15  and  C_14 
REMARK    7  A    between atoms: N_20  and  C_19 
REMARK       I    between atoms: C_22  and  N_20 
ROOT
ATOM      1  C   LIG d   1       1.269  82.809 110.507  0.00  0.00     0.161 C 
ATOM      2  C   LIG d   1       1.813  84.104 110.497  0.00  0.00     0.016 C 
ATOM      3  C   LIG d   1       2.481  84.676 111.604  0.00  0.00     0.038 C 
ATOM      4  C   LIG d   1       2.784  83.931 112.753  0.00  0.00     0.028 C 
ATOM      5  C   LIG d   1       1.814  82.781 113.003  0.00  0.00    -0.047 C 
ATOM      6  C   LIG d   1       1.688  81.941 111.712  0.00  0.00     0.091 C 
ENDROOT
BRANCH   1   7
ATOM      7  O   LIG d   1       1.585  82.136 109.272  0.00  0.00    -0.368 OA
BRANCH   7   8
ATOM      8  C   LIG d   1       2.692  81.203 109.319  0.00  0.00     0.119 C 
BRANCH   8   9
ATOM      9  C   LIG d   1       3.791  81.740 108.382  0.00  0.00     0.028 C 
ATOM     10  C   LIG d   1       4.841  82.579 109.130  0.00  0.00     0.006 C 
ENDBRANCH   8   9
BRANCH   8  11
ATOM     11  C   LIG d   1       2.297  79.840 108.742  0.00  0.00     0.028 C 
ATOM     12  C   LIG d   1       0.800  79.747 108.406  0.00  0.00     0.006 C 
ENDBRANCH   8  11
ENDBRANCH   7   8
ENDBRANCH   1   7
BRANCH   6  13
ATOM     13  N   LIG d   1       0.693  80.844 111.844  0.00  0.00    -0.311 N 
ATOM     14  C   LIG d   1      -0.618  81.053 111.956  0.00  0.00     0.210 C 
ATOM     15  C   LIG d   1      -1.464  79.785 112.102  0.00  0.00     0.109 C 
ATOM     16  O   LIG d   1      -1.162  82.167 111.916  0.00  0.00    -0.276 OA
ATOM     17  H   LIG d   1       1.046  79.907 111.854  0.00  0.00     0.149 HD
ENDBRANCH   6  13
BRANCH   5  18
ATOM     18  N   LIG d   1       2.326  82.007 114.150  0.00  0.00     0.381 N 
ATOM     19  H   LIG d   1       1.606  81.411 114.505  0.00  0.00    -0.090 HD
ATOM     20  H   LIG d   1       2.596  82.644 114.878  0.00  0.00    -0.090 HD
ATOM     21  H   LIG d   1       3.111  81.461 113.869  0.00  0.00    -0.090 HD
ENDBRANCH   5  18
BRANCH   3  22
ATOM     22  C   LIG d   1       2.817  86.021 111.584  0.00  0.00     0.382 C 
ATOM     23  O   LIG d   1       3.949  86.390 111.980  0.00  0.00    -0.241 OA
ATOM     24  O   LIG d   1       1.987  86.874 111.216  0.00  0.00    -0.241 OA
ENDBRANCH   3  22
TORSDOF 7
ENDMDL
MODEL 8
REMARK VINA RESULT:      -5.9      2.576      3.497
REMARK  7 active torsions:
REMARK  status: ('A' for Active; 'I' for Inactive)
REMARK    1  A    between atoms: C_2  and  C_3 
REMARK    2  A    between atoms: C_3  and  O_6 
REMARK    3  A    between atoms: C_3  and  C_4 
REMARK    4  A    between atoms: C_7  and  O_6 
REMARK    5  A    between atoms: C_9  and  C_10 
REMARK    6  A    between atoms: N_15  and  C_14 
REMARK    7  A    between atoms: N_20  and  C_19 
REMARK       I    between atoms: C_22  and  N_20 
ROOT
ATOM      1  C   LIG d   1       0.836  82.629 111.584  0.00  0.00     0.161 C 
ATOM      2  C   LIG d   1       0.008  83.603 111.002  0.00  0.00     0.016 C 
ATOM      3  C   LIG d   1       0.082  84.978 111.321  0.00  0.00     0.038 C 
ATOM      4  C   LIG d   1       1.097  85.497 112.137  0.00  0.00     0.028 C 
ATOM      5  C   LIG d   1       1.641  84.487 113.142  0.00  0.00    -0.047 C 
ATOM      6  C   LIG d   1       2.024  83.190 112.394  0.00  0.00     0.091 C 
ENDROOT
BRANCH   1   7
ATOM      7  O   LIG d   1       1.306  81.718 110.571  0.00  0.00    -0.368 OA
BRANCH   7   8
ATOM      8  C   LIG d   1       2.326  82.229 109.678  0.00  0.00     0.119 C 
BRANCH   8   9
ATOM      9  C   LIG d   1       1.822  82.028 108.236  0.00  0.00     0.028 C 
ATOM     10  C   LIG d   1       1.699  83.353 107.466  0.00  0.00     0.006 C 
ENDBRANCH   8   9
BRANCH   8  11
ATOM     11  C   LIG d   1       3.615  81.408 109.776  0.00  0.00     0.028 C 
ATOM     12  C   LIG d   1       4.881  82.275 109.700  0.00  0.00     0.006 C 
ENDBRANCH   8  11
ENDBRANCH   7   8
ENDBRANCH   1   7
BRANCH   6  13
ATOM     13  N   LIG d   1       2.486  82.119 113.315  0.00  0.00    -0.311 N 
ATOM     14  C   LIG d   1       3.769  81.896 113.594  0.00  0.00     0.210 C 
ATOM     15  C   LIG d   1       4.029  80.730 114.552  0.00  0.00     0.109 C 
ATOM     16  O   LIG d   1       4.715  82.573 113.163  0.00  0.00    -0.276 OA
ATOM     17  H   LIG d   1       1.783  81.542 113.733  0.00  0.00     0.149 HD
ENDBRANCH   6  13
BRANCH   5  18
ATOM     18  N   LIG d   1       2.784  85.116 113.832  0.00  0.00     0.381 N 
ATOM     19  H   LIG d   1       3.490  84.430 114.011  0.00  0.00    -0.090 HD
ATOM     20  H   LIG d   1       2.470  85.483 114.713  0.00  0.00    -0.090 HD
ATOM     21  H   LIG d   1       3.158  85.850 113.271  0.00  0.00    -0.090 HD
ENDBRANCH   5  18
BRANCH   3  22
ATOM     22  C   LIG d   1      -0.893  85.846 110.851  0.00  0.00     0.382 C 
ATOM     23  O   LIG d   1      -1.149  85.896 109.624  0.00  0.00    -0.241 OA
ATOM     24  O   LIG d   1      -1.489  86.610 111.634  0.00  0.00    -0.241 OA
ENDBRANCH   3  22
TORSDOF 7
ENDMDL
MODEL 9
REMARK VINA RESULT:      -5.7      2.171      4.180
REMARK  7 active torsions:
REMARK  status: ('A' for Active; 'I' for Inactive)
REMARK    1  A    between atoms: C_2  and  C_3 
REMARK    2  A    between atoms: C_3  and  O_6 
REMARK    3  A    between atoms: C_3  and  C_4 
REMARK    4  A    between atoms: C_7  and  O_6 
REMARK    5  A    between atoms: C_9  and  C_10 
REMARK    6  A    between atoms: N_15  and  C_14 
REMARK    7  A    between atoms: N_20  and  C_19 
REMARK       I    between atoms: C_22  and  N_20 
ROOT
ATOM      1  C   LIG d   1       0.794  82.557 111.122  0.00  0.00     0.161 C 
ATOM      2  C   LIG d   1      -0.024  83.642 111.479  0.00  0.00     0.016 C 
ATOM      3  C   LIG d   1       0.365  84.993 111.326  0.00  0.00     0.038 C 
ATOM      4  C   LIG d   1       1.546  85.354 110.661  0.00  0.00     0.028 C 
ATOM      5  C   LIG d   1       2.634  84.289 110.737  0.00  0.00    -0.047 C 
ATOM      6  C   LIG d   1       2.040  82.933 110.292  0.00  0.00     0.091 C 
ENDROOT
BRANCH   1   7
ATOM      7  O   LIG d   1       0.013  81.563 110.430  0.00  0.00    -0.368 OA
BRANCH   7   8
ATOM      8  C   LIG d   1       0.154  80.200 110.902  0.00  0.00     0.119 C 
BRANCH   8   9
ATOM      9  C   LIG d   1       0.147  79.280 109.666  0.00  0.00     0.028 C 
ATOM     10  C   LIG d   1       0.571  80.016 108.384  0.00  0.00     0.006 C 
ENDBRANCH   8   9
BRANCH   8  11
ATOM     11  C   LIG d   1      -1.057  79.771 111.734  0.00  0.00     0.028 C 
ATOM     12  C   LIG d   1      -1.732  78.500 111.193  0.00  0.00     0.006 C 
ENDBRANCH   8  11
ENDBRANCH   7   8
ENDBRANCH   1   7
BRANCH   6  13
ATOM     13  N   LIG d   1       3.016  81.819 110.417  0.00  0.00    -0.311 N 
ATOM     14  C   LIG d   1       3.808  81.423 109.422  0.00  0.00     0.210 C 
ATOM     15  C   LIG d   1       4.726  80.243 109.756  0.00  0.00     0.109 C 
ATOM     16  O   LIG d   1       3.861  81.958 108.304  0.00  0.00    -0.276 OA
ATOM     17  H   LIG d   1       3.061  81.349 111.300  0.00  0.00     0.149 HD
ENDBRANCH   6  13
BRANCH   5  18
ATOM     18  N   LIG d   1       3.755  84.735 109.889  0.00  0.00     0.381 N 
ATOM     19  H   LIG d   1       3.646  85.705 109.666  0.00  0.00    -0.090 HD
ATOM     20  H   LIG d   1       3.743  84.211 109.032  0.00  0.00    -0.090 HD
ATOM     21  H   LIG d   1       4.620  84.592 110.363  0.00  0.00    -0.090 HD
ENDBRANCH   5  18
BRANCH   3  22
ATOM     22  C   LIG d   1      -0.414  85.999 111.878  0.00  0.00     0.382 C 
ATOM     23  O   LIG d   1      -0.173  87.199 111.606  0.00  0.00    -0.241 OA
ATOM     24  O   LIG d   1      -1.327  85.723 112.679  0.00  0.00    -0.241 OA
ENDBRANCH   3  22
TORSDOF 7
ENDMDL
