MODEL 1
REMARK VINA RESULT:      -6.6      0.000      0.000
REMARK  7 active torsions:
REMARK  status: ('A' for Active; 'I' for Inactive)
REMARK    1  A    between atoms: C_2  and  C_3 
REMARK    2  A    between atoms: C_3  and  O_6 
REMARK    3  A    between atoms: C_3  and  C_4 
REMARK    4  A    between atoms: C_7  and  O_6 
REMARK    5  A    between atoms: C_9  and  C_10 
REMARK    6  A    between atoms: N_15  and  C_14 
REMARK    7  A    between atoms: N_20  and  C_19 
REMARK       I    between atoms: C_22  and  N_20 
ROOT
ATOM      1  C   LIG d   1       0.292  82.470 111.049  0.00  0.00     0.161 C 
ATOM      2  C   LIG d   1      -0.869  82.238 111.806  0.00  0.00     0.016 C 
ATOM      3  C   LIG d   1      -1.523  80.986 111.862  0.00  0.00     0.038 C 
ATOM      4  C   LIG d   1      -0.972  79.834 111.282  0.00  0.00     0.028 C 
ATOM      5  C   LIG d   1      -0.069  80.130 110.089  0.00  0.00    -0.047 C 
ATOM      6  C   LIG d   1       0.970  81.198 110.498  0.00  0.00     0.091 C 
ENDROOT
BRANCH   1   7
ATOM      7  O   LIG d   1       1.231  83.245 111.820  0.00  0.00    -0.368 OA
BRANCH   7   8
ATOM      8  C   LIG d   1       1.419  84.619 111.402  0.00  0.00     0.119 C 
BRANCH   8   9
ATOM      9  C   LIG d   1       0.563  84.840 110.140  0.00  0.00     0.028 C 
ATOM     10  C   LIG d   1      -0.497  85.937 110.335  0.00  0.00     0.006 C 
ENDBRANCH   8   9
BRANCH   8  11
ATOM     11  C   LIG d   1       2.864  84.875 110.962  0.00  0.00     0.028 C 
ATOM     12  C   LIG d   1       3.539  86.001 111.761  0.00  0.00     0.006 C 
ENDBRANCH   8  11
ENDBRANCH   7   8
ENDBRANCH   1   7
BRANCH   6  13
ATOM     13  N   LIG d   1       1.840  81.607 109.365  0.00  0.00    -0.311 N 
ATOM     14  C   LIG d   1       3.170  81.609 109.425  0.00  0.00     0.210 C 
ATOM     15  C   LIG d   1       3.875  82.085 108.151  0.00  0.00     0.109 C 
ATOM     16  O   LIG d   1       3.834  81.231 110.402  0.00  0.00    -0.276 OA
ATOM     17  H   LIG d   1       1.384  81.899 108.522  0.00  0.00     0.149 HD
ENDBRANCH   6  13
BRANCH   5  18
ATOM     18  N   LIG d   1       0.545  78.856 109.668  0.00  0.00     0.381 N 
ATOM     19  H   LIG d   1      -0.169  78.200 109.425  0.00  0.00    -0.090 HD
ATOM     20  H   LIG d   1       1.071  78.480 110.437  0.00  0.00    -0.090 HD
ATOM     21  H   LIG d   1       1.146  79.009 108.888  0.00  0.00    -0.090 HD
ENDBRANCH   5  18
BRANCH   3  22
ATOM     22  C   LIG d   1      -2.765  80.887 112.472  0.00  0.00     0.382 C 
ATOM     23  O   LIG d   1      -3.172  79.775 112.888  0.00  0.00    -0.241 OA
ATOM     24  O   LIG d   1      -3.501  81.886 112.572  0.00  0.00    -0.241 OA
ENDBRANCH   3  22
TORSDOF 7
ENDMDL
MODEL 2
REMARK VINA RESULT:      -6.4      2.763      4.679
REMARK  7 active torsions:
REMARK  status: ('A' for Active; 'I' for Inactive)
REMARK    1  A    between atoms: C_2  and  C_3 
REMARK    2  A    between atoms: C_3  and  O_6 
REMARK    3  A    between atoms: C_3  and  C_4 
REMARK    4  A    between atoms: C_7  and  O_6 
REMARK    5  A    between atoms: C_9  and  C_10 
REMARK    6  A    between atoms: N_15  and  C_14 
REMARK    7  A    between atoms: N_20  and  C_19 
REMARK       I    between atoms: C_22  and  N_20 
ROOT
ATOM      1  C   LIG d   1       2.062  83.442 112.098  0.00  0.00     0.161 C 
ATOM      2  C   LIG d   1       1.054  82.466 112.029  0.00  0.00     0.016 C 
ATOM      3  C   LIG d   1      -0.299  82.720 112.351  0.00  0.00     0.038 C 
ATOM      4  C   LIG d   1      -0.766  84.015 112.621  0.00  0.00     0.028 C 
ATOM      5  C   LIG d   1       0.304  84.938 113.194  0.00  0.00    -0.047 C 
ATOM      6  C   LIG d   1       1.551  84.886 112.283  0.00  0.00     0.091 C 
ENDROOT
BRANCH   1   7
ATOM      7  O   LIG d   1       2.907  83.354 110.934  0.00  0.00    -0.368 OA
BRANCH   7   8
ATOM      8  C   LIG d   1       2.581  82.307 109.987  0.00  0.00     0.119 C 
BRANCH   8   9
ATOM      9  C   LIG d   1       3.846  81.448 109.794  0.00  0.00     0.028 C 
ATOM     10  C   LIG d   1       5.007  82.243 109.175  0.00  0.00     0.006 C 
ENDBRANCH   8   9
BRANCH   8  11
ATOM     11  C   LIG d   1       2.269  82.885 108.603  0.00  0.00     0.028 C 
ATOM     12  C   LIG d   1       1.241  84.026 108.652  0.00  0.00     0.006 C 
ENDBRANCH   8  11
ENDBRANCH   7   8
ENDBRANCH   1   7
BRANCH   6  13
ATOM     13  N   LIG d   1       2.677  85.696 112.817  0.00  0.00    -0.311 N 
ATOM     14  C   LIG d   1       2.932  86.944 112.426  0.00  0.00     0.210 C 
ATOM     15  C   LIG d   1       4.153  87.591 113.088  0.00  0.00     0.109 C 
ATOM     16  O   LIG d   1       2.245  87.587 111.619  0.00  0.00    -0.276 OA
ATOM     17  H   LIG d   1       3.267  85.263 113.499  0.00  0.00     0.149 HD
ENDBRANCH   6  13
BRANCH   5  18
ATOM     18  N   LIG d   1      -0.281  86.288 113.298  0.00  0.00     0.381 N 
ATOM     19  H   LIG d   1      -0.701  86.407 114.198  0.00  0.00    -0.090 HD
ATOM     20  H   LIG d   1      -0.998  86.386 112.601  0.00  0.00    -0.090 HD
ATOM     21  H   LIG d   1       0.425  86.977 113.159  0.00  0.00    -0.090 HD
ENDBRANCH   5  18
BRANCH   3  22
ATOM     22  C   LIG d   1      -1.193  81.664 112.445  0.00  0.00     0.382 C 
ATOM     23  O   LIG d   1      -0.844  80.594 112.999  0.00  0.00    -0.241 OA
ATOM     24  O   LIG d   1      -2.330  81.752 111.943  0.00  0.00    -0.241 OA
ENDBRANCH   3  22
TORSDOF 7
ENDMDL
MODEL 3
REMARK VINA RESULT:      -6.2      1.786      5.013
REMARK  7 active torsions:
REMARK  status: ('A' for Active; 'I' for Inactive)
REMARK    1  A    between atoms: C_2  and  C_3 
REMARK    2  A    between atoms: C_3  and  O_6 
REMARK    3  A    between atoms: C_3  and  C_4 
REMARK    4  A    between atoms: C_7  and  O_6 
REMARK    5  A    between atoms: C_9  and  C_10 
REMARK    6  A    between atoms: N_15  and  C_14 
REMARK    7  A    between atoms: N_20  and  C_19 
REMARK       I    between atoms: C_22  and  N_20 
ROOT
ATOM      1  C   LIG d   1       1.902  83.049 111.885  0.00  0.00     0.161 C 
ATOM      2  C   LIG d   1       2.933  82.975 110.934  0.00  0.00     0.016 C 
ATOM      3  C   LIG d   1       2.920  82.080 109.840  0.00  0.00     0.038 C 
ATOM      4  C   LIG d   1       1.796  81.298 109.535  0.00  0.00     0.028 C 
ATOM      5  C   LIG d   1       0.938  80.972 110.753  0.00  0.00    -0.047 C 
ATOM      6  C   LIG d   1       0.618  82.282 111.507  0.00  0.00     0.091 C 
ENDROOT
BRANCH   1   7
ATOM      7  O   LIG d   1       1.597  84.429 112.169  0.00  0.00    -0.368 OA
BRANCH   7   8
ATOM      8  C   LIG d   1       0.875  85.147 111.138  0.00  0.00     0.119 C 
BRANCH   8   9
ATOM      9  C   LIG d   1       1.669  86.431 110.826  0.00  0.00     0.028 C 
ATOM     10  C   LIG d   1       2.811  86.672 111.827  0.00  0.00     0.006 C 
ENDBRANCH   8   9
BRANCH   8  11
ATOM     11  C   LIG d   1      -0.489  85.626 111.643  0.00  0.00     0.028 C 
ATOM     12  C   LIG d   1      -0.562  85.704 113.176  0.00  0.00     0.006 C 
ENDBRANCH   8  11
ENDBRANCH   7   8
ENDBRANCH   1   7
BRANCH   6  13
ATOM     13  N   LIG d   1      -0.148  82.044 112.758  0.00  0.00    -0.311 N 
ATOM     14  C   LIG d   1      -1.478  82.078 112.822  0.00  0.00     0.210 C 
ATOM     15  C   LIG d   1      -2.066  81.824 114.214  0.00  0.00     0.109 C 
ATOM     16  O   LIG d   1      -2.228  82.263 111.852  0.00  0.00    -0.276 OA
ATOM     17  H   LIG d   1       0.381  81.855 113.588  0.00  0.00     0.149 HD
ENDBRANCH   6  13
BRANCH   5  18
ATOM     18  N   LIG d   1      -0.269  80.271 110.273  0.00  0.00     0.381 N 
ATOM     19  H   LIG d   1      -0.990  80.936 110.076  0.00  0.00    -0.090 HD
ATOM     20  H   LIG d   1      -0.596  79.655 110.996  0.00  0.00    -0.090 HD
ATOM     21  H   LIG d   1      -0.056  79.749 109.452  0.00  0.00    -0.090 HD
ENDBRANCH   5  18
BRANCH   3  22
ATOM     22  C   LIG d   1       4.056  81.932 109.059  0.00  0.00     0.382 C 
ATOM     23  O   LIG d   1       5.132  82.475 109.408  0.00  0.00    -0.241 OA
ATOM     24  O   LIG d   1       4.008  81.300 107.986  0.00  0.00    -0.241 OA
ENDBRANCH   3  22
TORSDOF 7
ENDMDL
MODEL 4
REMARK VINA RESULT:      -6.1      2.395      5.573
REMARK  7 active torsions:
REMARK  status: ('A' for Active; 'I' for Inactive)
REMARK    1  A    between atoms: C_2  and  C_3 
REMARK    2  A    between atoms: C_3  and  O_6 
REMARK    3  A    between atoms: C_3  and  C_4 
REMARK    4  A    between atoms: C_7  and  O_6 
REMARK    5  A    between atoms: C_9  and  C_10 
REMARK    6  A    between atoms: N_15  and  C_14 
REMARK    7  A    between atoms: N_20  and  C_19 
REMARK       I    between atoms: C_22  and  N_20 
ROOT
ATOM      1  C   LIG d   1       1.764  82.769 111.018  0.00  0.00     0.161 C 
ATOM      2  C   LIG d   1       2.322  84.047 110.845  0.00  0.00     0.016 C 
ATOM      3  C   LIG d   1       2.307  85.044 111.847  0.00  0.00     0.038 C 
ATOM      4  C   LIG d   1       1.865  84.779 113.151  0.00  0.00     0.028 C 
ATOM      5  C   LIG d   1       0.832  83.659 113.224  0.00  0.00    -0.047 C 
ATOM      6  C   LIG d   1       1.377  82.424 112.471  0.00  0.00     0.091 C 
ENDROOT
BRANCH   1   7
ATOM      7  O   LIG d   1       2.658  81.770 110.487  0.00  0.00    -0.368 OA
BRANCH   7   8
ATOM      8  C   LIG d   1       2.434  81.382 109.109  0.00  0.00     0.119 C 
BRANCH   8   9
ATOM      9  C   LIG d   1       1.831  79.964 109.120  0.00  0.00     0.028 C 
ATOM     10  C   LIG d   1       0.343  79.957 108.728  0.00  0.00     0.006 C 
ENDBRANCH   8   9
BRANCH   8  11
ATOM     11  C   LIG d   1       3.755  81.255 108.344  0.00  0.00     0.028 C 
ATOM     12  C   LIG d   1       4.834  82.224 108.854  0.00  0.00     0.006 C 
ENDBRANCH   8  11
ENDBRANCH   7   8
ENDBRANCH   1   7
BRANCH   6  13
ATOM     13  N   LIG d   1       0.394  81.310 112.423  0.00  0.00    -0.311 N 
ATOM     14  C   LIG d   1      -0.830  81.435 111.911  0.00  0.00     0.210 C 
ATOM     15  C   LIG d   1      -1.690  80.169 111.978  0.00  0.00     0.109 C 
ATOM     16  O   LIG d   1      -1.273  82.464 111.379  0.00  0.00    -0.276 OA
ATOM     17  H   LIG d   1       0.682  80.431 112.804  0.00  0.00     0.149 HD
ENDBRANCH   6  13
BRANCH   5  18
ATOM     18  N   LIG d   1       0.563  83.394 114.650  0.00  0.00     0.381 N 
ATOM     19  H   LIG d   1       1.263  82.783 115.020  0.00  0.00    -0.090 HD
ATOM     20  H   LIG d   1      -0.329  82.938 114.733  0.00  0.00    -0.090 HD
ATOM     21  H   LIG d   1       0.555  84.250 115.161  0.00  0.00    -0.090 HD
ENDBRANCH   5  18
BRANCH   3  22
ATOM     22  C   LIG d   1       2.702  86.336 111.535  0.00  0.00     0.382 C 
ATOM     23  O   LIG d   1       3.880  86.703 111.760  0.00  0.00    -0.241 OA
ATOM     24  O   LIG d   1       1.883  87.153 111.074  0.00  0.00    -0.241 OA
ENDBRANCH   3  22
TORSDOF 7
ENDMDL
MODEL 5
REMARK VINA RESULT:      -6.0      2.765      4.481
REMARK  7 active torsions:
REMARK  status: ('A' for Active; 'I' for Inactive)
REMARK    1  A    between atoms: C_2  and  C_3 
REMARK    2  A    between atoms: C_3  and  O_6 
REMARK    3  A    between atoms: C_3  and  C_4 
REMARK    4  A    between atoms: C_7  and  O_6 
REMARK    5  A    between atoms: C_9  and  C_10 
REMARK    6  A    between atoms: N_15  and  C_14 
REMARK    7  A    between atoms: N_20  and  C_19 
REMARK       I    between atoms: C_22  and  N_20 
ROOT
ATOM      1  C   LIG d   1       1.511  82.526 110.815  0.00  0.00     0.161 C 
ATOM      2  C   LIG d   1       1.113  81.302 110.253  0.00  0.00     0.016 C 
ATOM      3  C   LIG d   1       1.963  80.496 109.462  0.00  0.00     0.038 C 
ATOM      4  C   LIG d   1       3.326  80.787 109.304  0.00  0.00     0.028 C 
ATOM      5  C   LIG d   1       3.646  82.272 109.434  0.00  0.00    -0.047 C 
ATOM      6  C   LIG d   1       3.027  82.806 110.746  0.00  0.00     0.091 C 
ENDROOT
BRANCH   1   7
ATOM      7  O   LIG d   1       1.047  82.613 112.177  0.00  0.00    -0.368 OA
BRANCH   7   8
ATOM      8  C   LIG d   1      -0.115  83.447 112.402  0.00  0.00     0.119 C 
BRANCH   8   9
ATOM      9  C   LIG d   1       0.246  84.455 113.511  0.00  0.00     0.028 C 
ATOM     10  C   LIG d   1      -0.035  85.909 113.096  0.00  0.00     0.006 C 
ENDBRANCH   8   9
BRANCH   8  11
ATOM     11  C   LIG d   1      -1.286  82.633 112.961  0.00  0.00     0.028 C 
ATOM     12  C   LIG d   1      -1.242  82.498 114.491  0.00  0.00     0.006 C 
ENDBRANCH   8  11
ENDBRANCH   7   8
ENDBRANCH   1   7
BRANCH   6  13
ATOM     13  N   LIG d   1       3.222  84.271 110.910  0.00  0.00    -0.311 N 
ATOM     14  C   LIG d   1       3.630  84.833 112.046  0.00  0.00     0.210 C 
ATOM     15  C   LIG d   1       3.746  86.360 112.006  0.00  0.00     0.109 C 
ATOM     16  O   LIG d   1       3.938  84.210 113.073  0.00  0.00    -0.276 OA
ATOM     17  H   LIG d   1       3.025  84.849 110.116  0.00  0.00     0.149 HD
ENDBRANCH   6  13
BRANCH   5  18
ATOM     18  N   LIG d   1       5.114  82.418 109.386  0.00  0.00     0.381 N 
ATOM     19  H   LIG d   1       5.379  82.900 108.551  0.00  0.00    -0.090 HD
ATOM     20  H   LIG d   1       5.530  81.503 109.369  0.00  0.00    -0.090 HD
ATOM     21  H   LIG d   1       5.433  82.921 110.185  0.00  0.00    -0.090 HD
ENDBRANCH   5  18
BRANCH   3  22
ATOM     22  C   LIG d   1       1.440  79.403 108.786  0.00  0.00     0.382 C 
ATOM     23  O   LIG d   1       2.140  78.375 108.622  0.00  0.00    -0.241 OA
ATOM     24  O   LIG d   1       0.294  79.450 108.300  0.00  0.00    -0.241 OA
ENDBRANCH   3  22
TORSDOF 7
ENDMDL
MODEL 6
REMARK VINA RESULT:      -6.0      1.589      1.988
REMARK  7 active torsions:
REMARK  status: ('A' for Active; 'I' for Inactive)
REMARK    1  A    between atoms: C_2  and  C_3 
REMARK    2  A    between atoms: C_3  and  O_6 
REMARK    3  A    between atoms: C_3  and  C_4 
REMARK    4  A    between atoms: C_7  and  O_6 
REMARK    5  A    between atoms: C_9  and  C_10 
REMARK    6  A    between atoms: N_15  and  C_14 
REMARK    7  A    between atoms: N_20  and  C_19 
REMARK       I    between atoms: C_22  and  N_20 
ROOT
ATOM      1  C   LIG d   1       0.312  82.508 111.139  0.00  0.00     0.161 C 
ATOM      2  C   LIG d   1      -0.877  82.277 111.850  0.00  0.00     0.016 C 
ATOM      3  C   LIG d   1      -1.552  81.035 111.854  0.00  0.00     0.038 C 
ATOM      4  C   LIG d   1      -0.998  79.888 111.266  0.00  0.00     0.028 C 
ATOM      5  C   LIG d   1      -0.051  80.196 110.112  0.00  0.00    -0.047 C 
ATOM      6  C   LIG d   1       0.990  81.238 110.582  0.00  0.00     0.091 C 
ENDROOT
BRANCH   1   7
ATOM      7  O   LIG d   1       1.236  83.250 111.959  0.00  0.00    -0.368 OA
BRANCH   7   8
ATOM      8  C   LIG d   1       0.896  83.358 113.364  0.00  0.00     0.119 C 
BRANCH   8   9
ATOM      9  C   LIG d   1       1.058  84.837 113.767  0.00  0.00     0.028 C 
ATOM     10  C   LIG d   1      -0.065  85.725 113.203  0.00  0.00     0.006 C 
ENDBRANCH   8   9
BRANCH   8  11
ATOM     11  C   LIG d   1       1.889  82.588 114.239  0.00  0.00     0.028 C 
ATOM     12  C   LIG d   1       1.321  82.246 115.625  0.00  0.00     0.006 C 
ENDBRANCH   8  11
ENDBRANCH   7   8
ENDBRANCH   1   7
BRANCH   6  13
ATOM     13  N   LIG d   1       1.904  81.659 109.488  0.00  0.00    -0.311 N 
ATOM     14  C   LIG d   1       3.231  81.675 109.607  0.00  0.00     0.210 C 
ATOM     15  C   LIG d   1       3.985  82.162 108.366  0.00  0.00     0.109 C 
ATOM     16  O   LIG d   1       3.855  81.301 110.611  0.00  0.00    -0.276 OA
ATOM     17  H   LIG d   1       1.483  81.949 108.628  0.00  0.00     0.149 HD
ENDBRANCH   6  13
BRANCH   5  18
ATOM     18  N   LIG d   1       0.559  78.923 109.683  0.00  0.00     0.381 N 
ATOM     19  H   LIG d   1       1.537  79.055 109.518  0.00  0.00    -0.090 HD
ATOM     20  H   LIG d   1       0.130  78.631 108.822  0.00  0.00    -0.090 HD
ATOM     21  H   LIG d   1       0.423  78.227 110.383  0.00  0.00    -0.090 HD
ENDBRANCH   5  18
BRANCH   3  22
ATOM     22  C   LIG d   1      -2.815  80.941 112.419  0.00  0.00     0.382 C 
ATOM     23  O   LIG d   1      -3.406  79.834 112.454  0.00  0.00    -0.241 OA
ATOM     24  O   LIG d   1      -3.389  81.957 112.854  0.00  0.00    -0.241 OA
ENDBRANCH   3  22
TORSDOF 7
ENDMDL
MODEL 7
REMARK VINA RESULT:      -6.0      2.367      5.713
REMARK  7 active torsions:
REMARK  status: ('A' for Active; 'I' for Inactive)
REMARK    1  A    between atoms: C_2  and  C_3 
REMARK    2  A    between atoms: C_3  and  O_6 
REMARK    3  A    between atoms: C_3  and  C_4 
REMARK    4  A    between atoms: C_7  and  O_6 
REMARK    5  A    between atoms: C_9  and  C_10 
REMARK    6  A    between atoms: N_15  and  C_14 
REMARK    7  A    between atoms: N_20  and  C_19 
REMARK       I    between atoms: C_22  and  N_20 
ROOT
ATOM      1  C   LIG d   1       0.564  83.543 110.354  0.00  0.00     0.161 C 
ATOM      2  C   LIG d   1       1.450  84.633 110.373  0.00  0.00     0.016 C 
ATOM      3  C   LIG d   1       1.844  85.295 111.558  0.00  0.00     0.038 C 
ATOM      4  C   LIG d   1       1.495  84.812 112.828  0.00  0.00     0.028 C 
ATOM      5  C   LIG d   1       0.194  84.017 112.837  0.00  0.00    -0.047 C 
ATOM      6  C   LIG d   1       0.261  82.932 111.738  0.00  0.00     0.091 C 
ENDROOT
BRANCH   1   7
ATOM      7  O   LIG d   1       1.057  82.529 109.456  0.00  0.00    -0.368 OA
BRANCH   7   8
ATOM      8  C   LIG d   1       1.862  81.484 110.055  0.00  0.00     0.119 C 
BRANCH   8   9
ATOM      9  C   LIG d   1       3.341  81.852 109.830  0.00  0.00     0.028 C 
ATOM     10  C   LIG d   1       3.780  81.653 108.370  0.00  0.00     0.006 C 
ENDBRANCH   8   9
BRANCH   8  11
ATOM     11  C   LIG d   1       1.664  80.146 109.336  0.00  0.00     0.028 C 
ATOM     12  C   LIG d   1       0.199  79.892 108.943  0.00  0.00     0.006 C 
ENDBRANCH   8  11
ENDBRANCH   7   8
ENDBRANCH   1   7
BRANCH   6  13
ATOM     13  N   LIG d   1      -1.005  82.163 111.623  0.00  0.00    -0.311 N 
ATOM     14  C   LIG d   1      -1.237  81.029 112.282  0.00  0.00     0.210 C 
ATOM     15  C   LIG d   1      -2.600  80.387 112.005  0.00  0.00     0.109 C 
ATOM     16  O   LIG d   1      -0.457  80.512 113.095  0.00  0.00    -0.276 OA
ATOM     17  H   LIG d   1      -1.706  82.528 111.008  0.00  0.00     0.149 HD
ENDBRANCH   6  13
BRANCH   5  18
ATOM     18  N   LIG d   1       0.023  83.458 114.192  0.00  0.00     0.381 N 
ATOM     19  H   LIG d   1      -0.798  82.887 114.221  0.00  0.00    -0.090 HD
ATOM     20  H   LIG d   1      -0.094  84.214 114.843  0.00  0.00    -0.090 HD
ATOM     21  H   LIG d   1       0.822  82.917 114.441  0.00  0.00    -0.090 HD
ENDBRANCH   5  18
BRANCH   3  22
ATOM     22  C   LIG d   1       2.564  86.478 111.478  0.00  0.00     0.382 C 
ATOM     23  O   LIG d   1       3.814  86.459 111.578  0.00  0.00    -0.241 OA
ATOM     24  O   LIG d   1       1.975  87.568 111.352  0.00  0.00    -0.241 OA
ENDBRANCH   3  22
TORSDOF 7
ENDMDL
MODEL 8
REMARK VINA RESULT:      -5.7      2.426      4.935
REMARK  7 active torsions:
REMARK  status: ('A' for Active; 'I' for Inactive)
REMARK    1  A    between atoms: C_2  and  C_3 
REMARK    2  A    between atoms: C_3  and  O_6 
REMARK    3  A    between atoms: C_3  and  C_4 
REMARK    4  A    between atoms: C_7  and  O_6 
REMARK    5  A    between atoms: C_9  and  C_10 
REMARK    6  A    between atoms: N_15  and  C_14 
REMARK    7  A    between atoms: N_20  and  C_19 
REMARK       I    between atoms: C_22  and  N_20 
ROOT
ATOM      1  C   LIG d   1      -0.410  82.506 110.907  0.00  0.00     0.161 C 
ATOM      2  C   LIG d   1      -0.407  83.895 111.113  0.00  0.00     0.016 C 
ATOM      3  C   LIG d   1      -0.365  84.492 112.394  0.00  0.00     0.038 C 
ATOM      4  C   LIG d   1      -0.170  83.735 113.558  0.00  0.00     0.028 C 
ATOM      5  C   LIG d   1      -0.674  82.301 113.440  0.00  0.00    -0.047 C 
ATOM      6  C   LIG d   1      -0.085  81.666 112.160  0.00  0.00     0.091 C 
ENDROOT
BRANCH   1   7
ATOM      7  O   LIG d   1       0.488  82.169 109.831  0.00  0.00    -0.368 OA
BRANCH   7   8
ATOM      8  C   LIG d   1       1.871  81.948 110.202  0.00  0.00     0.119 C 
BRANCH   8   9
ATOM      9  C   LIG d   1       2.707  83.076 109.567  0.00  0.00     0.028 C 
ATOM     10  C   LIG d   1       4.219  82.803 109.648  0.00  0.00     0.006 C 
ENDBRANCH   8   9
BRANCH   8  11
ATOM     11  C   LIG d   1       2.411  80.651 109.591  0.00  0.00     0.028 C 
ATOM     12  C   LIG d   1       1.304  79.770 108.990  0.00  0.00     0.006 C 
ENDBRANCH   8  11
ENDBRANCH   7   8
ENDBRANCH   1   7
BRANCH   6  13
ATOM     13  N   LIG d   1      -0.595  80.290 111.924  0.00  0.00    -0.311 N 
ATOM     14  C   LIG d   1      -1.891  79.990 111.854  0.00  0.00     0.210 C 
ATOM     15  C   LIG d   1      -2.200  78.507 111.624  0.00  0.00     0.109 C 
ATOM     16  O   LIG d   1      -2.813  80.816 111.929  0.00  0.00    -0.276 OA
ATOM     17  H   LIG d   1       0.086  79.563 111.820  0.00  0.00     0.149 HD
ENDBRANCH   6  13
BRANCH   5  18
ATOM     18  N   LIG d   1      -0.283  81.588 114.671  0.00  0.00     0.381 N 
ATOM     19  H   LIG d   1      -0.434  82.177 115.466  0.00  0.00    -0.090 HD
ATOM     20  H   LIG d   1       0.696  81.369 114.623  0.00  0.00    -0.090 HD
ATOM     21  H   LIG d   1      -0.815  80.751 114.764  0.00  0.00    -0.090 HD
ENDBRANCH   5  18
BRANCH   3  22
ATOM     22  C   LIG d   1      -0.560  85.859 112.522  0.00  0.00     0.382 C 
ATOM     23  O   LIG d   1      -0.026  86.483 113.470  0.00  0.00    -0.241 OA
ATOM     24  O   LIG d   1      -1.299  86.469 111.726  0.00  0.00    -0.241 OA
ENDBRANCH   3  22
TORSDOF 7
ENDMDL
MODEL 9
REMARK VINA RESULT:      -5.5      2.344      3.016
REMARK  7 active torsions:
REMARK  status: ('A' for Active; 'I' for Inactive)
REMARK    1  A    between atoms: C_2  and  C_3 
REMARK    2  A    between atoms: C_3  and  O_6 
REMARK    3  A    between atoms: C_3  and  C_4 
REMARK    4  A    between atoms: C_7  and  O_6 
REMARK    5  A    between atoms: C_9  and  C_10 
REMARK    6  A    between atoms: N_15  and  C_14 
REMARK    7  A    between atoms: N_20  and  C_19 
REMARK       I    between atoms: C_22  and  N_20 
ROOT
ATOM      1  C   LIG d   1      -1.195  82.218 112.337  0.00  0.00     0.161 C 
ATOM      2  C   LIG d   1      -1.724  82.590 113.584  0.00  0.00     0.016 C 
ATOM      3  C   LIG d   1      -1.970  81.670 114.629  0.00  0.00     0.038 C 
ATOM      4  C   LIG d   1      -1.560  80.331 114.551  0.00  0.00     0.028 C 
ATOM      5  C   LIG d   1      -1.482  79.804 113.122  0.00  0.00    -0.047 C 
ATOM      6  C   LIG d   1      -0.638  80.781 112.272  0.00  0.00     0.091 C 
ENDROOT
BRANCH   1   7
ATOM      7  O   LIG d   1      -0.185  83.165 111.933  0.00  0.00    -0.368 OA
BRANCH   7   8
ATOM      8  C   LIG d   1      -0.593  84.152 110.954  0.00  0.00     0.119 C 
BRANCH   8   9
ATOM      9  C   LIG d   1       0.436  84.120 109.808  0.00  0.00     0.028 C 
ATOM     10  C   LIG d   1       0.535  85.466 109.069  0.00  0.00     0.006 C 
ENDBRANCH   8   9
BRANCH   8  11
ATOM     11  C   LIG d   1      -0.517  85.570 111.528  0.00  0.00     0.028 C 
ATOM     12  C   LIG d   1       0.252  85.635 112.857  0.00  0.00     0.006 C 
ENDBRANCH   8  11
ENDBRANCH   7   8
ENDBRANCH   1   7
BRANCH   6  13
ATOM     13  N   LIG d   1      -0.581  80.384 110.841  0.00  0.00    -0.311 N 
ATOM     14  C   LIG d   1       0.523  80.465 110.101  0.00  0.00     0.210 C 
ATOM     15  C   LIG d   1       0.359  80.024 108.643  0.00  0.00     0.109 C 
ATOM     16  O   LIG d   1       1.631  80.830 110.522  0.00  0.00    -0.276 OA
ATOM     17  H   LIG d   1      -1.428  80.047 110.428  0.00  0.00     0.149 HD
ENDBRANCH   6  13
BRANCH   5  18
ATOM     18  N   LIG d   1      -0.911  78.445 113.179  0.00  0.00     0.381 N 
ATOM     19  H   LIG d   1       0.054  78.472 112.917  0.00  0.00    -0.090 HD
ATOM     20  H   LIG d   1      -1.399  77.860 112.523  0.00  0.00    -0.090 HD
ATOM     21  H   LIG d   1      -1.004  78.074 114.099  0.00  0.00    -0.090 HD
ENDBRANCH   5  18
BRANCH   3  22
ATOM     22  C   LIG d   1      -2.670  82.080 115.754  0.00  0.00     0.382 C 
ATOM     23  O   LIG d   1      -3.860  82.462 115.647  0.00  0.00    -0.241 OA
ATOM     24  O   LIG d   1      -2.113  82.114 116.867  0.00  0.00    -0.241 OA
ENDBRANCH   3  22
TORSDOF 7
ENDMDL
