MODEL 1
REMARK VINA RESULT:      -6.9      0.000      0.000
REMARK  7 active torsions:
REMARK  status: ('A' for Active; 'I' for Inactive)
REMARK    1  A    between atoms: C_2  and  C_3 
REMARK    2  A    between atoms: C_3  and  O_6 
REMARK    3  A    between atoms: C_3  and  C_4 
REMARK    4  A    between atoms: C_7  and  O_6 
REMARK    5  A    between atoms: C_9  and  C_10 
REMARK    6  A    between atoms: N_15  and  C_14 
REMARK    7  A    between atoms: N_20  and  C_19 
REMARK       I    between atoms: C_22  and  N_20 
ROOT
ATOM      1  C   LIG d   1       1.297  83.596 109.161  0.00  0.00     0.161 C 
ATOM      2  C   LIG d   1       1.524  84.933 109.528  0.00  0.00     0.016 C 
ATOM      3  C   LIG d   1       0.971  85.526 110.686  0.00  0.00     0.038 C 
ATOM      4  C   LIG d   1       0.271  84.775 111.642  0.00  0.00     0.028 C 
ATOM      5  C   LIG d   1      -0.410  83.540 111.062  0.00  0.00    -0.047 C 
ATOM      6  C   LIG d   1       0.627  82.731 110.249  0.00  0.00     0.091 C 
ENDROOT
BRANCH   1   7
ATOM      7  O   LIG d   1       2.533  82.991 108.730  0.00  0.00    -0.368 OA
BRANCH   7   8
ATOM      8  C   LIG d   1       3.204  82.153 109.702  0.00  0.00     0.119 C 
BRANCH   8   9
ATOM      9  C   LIG d   1       4.504  82.871 110.115  0.00  0.00     0.028 C 
ATOM     10  C   LIG d   1       4.403  83.512 111.509  0.00  0.00     0.006 C 
ENDBRANCH   8   9
BRANCH   8  11
ATOM     11  C   LIG d   1       3.654  80.828 109.079  0.00  0.00     0.028 C 
ATOM     12  C   LIG d   1       4.867  80.214 109.796  0.00  0.00     0.006 C 
ENDBRANCH   8  11
ENDBRANCH   7   8
ENDBRANCH   1   7
BRANCH   6  13
ATOM     13  N   LIG d   1       0.025  81.550 109.577  0.00  0.00    -0.311 N 
ATOM     14  C   LIG d   1       0.026  80.327 110.105  0.00  0.00     0.210 C 
ATOM     15  C   LIG d   1      -0.631  79.249 109.237  0.00  0.00     0.109 C 
ATOM     16  O   LIG d   1       0.480  80.039 111.222  0.00  0.00    -0.276 OA
ATOM     17  H   LIG d   1      -0.393  81.700 108.680  0.00  0.00     0.149 HD
ENDBRANCH   6  13
BRANCH   5  18
ATOM     18  N   LIG d   1      -0.985  82.778 112.186  0.00  0.00     0.381 N 
ATOM     19  H   LIG d   1      -1.804  82.291 111.882  0.00  0.00    -0.090 HD
ATOM     20  H   LIG d   1      -1.251  83.420 112.912  0.00  0.00    -0.090 HD
ATOM     21  H   LIG d   1      -0.315  82.129 112.537  0.00  0.00    -0.090 HD
ENDBRANCH   5  18
BRANCH   3  22
ATOM     22  C   LIG d   1       1.082  86.895 110.877  0.00  0.00     0.382 C 
ATOM     23  O   LIG d   1       2.211  87.442 110.850  0.00  0.00    -0.241 OA
ATOM     24  O   LIG d   1       0.073  87.584 111.119  0.00  0.00    -0.241 OA
ENDBRANCH   3  22
TORSDOF 7
ENDMDL
MODEL 2
REMARK VINA RESULT:      -6.4      2.395      4.471
REMARK  7 active torsions:
REMARK  status: ('A' for Active; 'I' for Inactive)
REMARK    1  A    between atoms: C_2  and  C_3 
REMARK    2  A    between atoms: C_3  and  O_6 
REMARK    3  A    between atoms: C_3  and  C_4 
REMARK    4  A    between atoms: C_7  and  O_6 
REMARK    5  A    between atoms: C_9  and  C_10 
REMARK    6  A    between atoms: N_15  and  C_14 
REMARK    7  A    between atoms: N_20  and  C_19 
REMARK       I    between atoms: C_22  and  N_20 
ROOT
ATOM      1  C   LIG d   1       1.236  82.379 111.751  0.00  0.00     0.161 C 
ATOM      2  C   LIG d   1       2.241  82.885 110.910  0.00  0.00     0.016 C 
ATOM      3  C   LIG d   1       2.328  82.584 109.531  0.00  0.00     0.038 C 
ATOM      4  C   LIG d   1       1.321  81.872 108.863  0.00  0.00     0.028 C 
ATOM      5  C   LIG d   1       0.551  80.917 109.770  0.00  0.00    -0.047 C 
ATOM      6  C   LIG d   1       0.066  81.690 111.017  0.00  0.00     0.091 C 
ENDROOT
BRANCH   1   7
ATOM      7  O   LIG d   1       0.742  83.426 112.609  0.00  0.00    -0.368 OA
BRANCH   7   8
ATOM      8  C   LIG d   1       0.840  84.775 112.088  0.00  0.00     0.119 C 
BRANCH   8   9
ATOM      9  C   LIG d   1       1.311  85.683 113.241  0.00  0.00     0.028 C 
ATOM     10  C   LIG d   1       2.600  85.167 113.904  0.00  0.00     0.006 C 
ENDBRANCH   8   9
BRANCH   8  11
ATOM     11  C   LIG d   1      -0.535  85.316 111.683  0.00  0.00     0.028 C 
ATOM     12  C   LIG d   1      -0.704  85.431 110.159  0.00  0.00     0.006 C 
ENDBRANCH   8  11
ENDBRANCH   7   8
ENDBRANCH   1   7
BRANCH   6  13
ATOM     13  N   LIG d   1      -0.624  80.811 111.996  0.00  0.00    -0.311 N 
ATOM     14  C   LIG d   1      -1.756  81.146 112.613  0.00  0.00     0.210 C 
ATOM     15  C   LIG d   1      -2.289  80.103 113.600  0.00  0.00     0.109 C 
ATOM     16  O   LIG d   1      -2.387  82.195 112.412  0.00  0.00    -0.276 OA
ATOM     17  H   LIG d   1      -0.198  79.927 112.195  0.00  0.00     0.149 HD
ENDBRANCH   6  13
BRANCH   5  18
ATOM     18  N   LIG d   1      -0.554  80.345 108.978  0.00  0.00     0.381 N 
ATOM     19  H   LIG d   1      -1.401  80.371 109.510  0.00  0.00    -0.090 HD
ATOM     20  H   LIG d   1      -0.342  79.385 108.770  0.00  0.00    -0.090 HD
ATOM     21  H   LIG d   1      -0.669  80.858 108.132  0.00  0.00    -0.090 HD
ENDBRANCH   5  18
BRANCH   3  22
ATOM     22  C   LIG d   1       3.452  82.964 108.815  0.00  0.00     0.382 C 
ATOM     23  O   LIG d   1       4.325  83.686 109.354  0.00  0.00    -0.241 OA
ATOM     24  O   LIG d   1       3.584  82.630 107.622  0.00  0.00    -0.241 OA
ENDBRANCH   3  22
TORSDOF 7
ENDMDL
MODEL 3
REMARK VINA RESULT:      -6.3      2.486      4.931
REMARK  7 active torsions:
REMARK  status: ('A' for Active; 'I' for Inactive)
REMARK    1  A    between atoms: C_2  and  C_3 
REMARK    2  A    between atoms: C_3  and  O_6 
REMARK    3  A    between atoms: C_3  and  C_4 
REMARK    4  A    between atoms: C_7  and  O_6 
REMARK    5  A    between atoms: C_9  and  C_10 
REMARK    6  A    between atoms: N_15  and  C_14 
REMARK    7  A    between atoms: N_20  and  C_19 
REMARK       I    between atoms: C_22  and  N_20 
ROOT
ATOM      1  C   LIG d   1       0.221  82.285 111.231  0.00  0.00     0.161 C 
ATOM      2  C   LIG d   1      -0.916  82.195 112.051  0.00  0.00     0.016 C 
ATOM      3  C   LIG d   1      -1.588  80.980 112.318  0.00  0.00     0.038 C 
ATOM      4  C   LIG d   1      -1.075  79.742 111.903  0.00  0.00     0.028 C 
ATOM      5  C   LIG d   1      -0.209  79.834 110.651  0.00  0.00    -0.047 C 
ATOM      6  C   LIG d   1       0.860  80.931 110.859  0.00  0.00     0.091 C 
ENDROOT
BRANCH   1   7
ATOM      7  O   LIG d   1       1.199  83.149 111.845  0.00  0.00    -0.368 OA
BRANCH   7   8
ATOM      8  C   LIG d   1       1.209  84.524 111.390  0.00  0.00     0.119 C 
BRANCH   8   9
ATOM      9  C   LIG d   1       0.897  84.515 109.880  0.00  0.00     0.028 C 
ATOM     10  C   LIG d   1      -0.012  85.683 109.462  0.00  0.00     0.006 C 
ENDBRANCH   8   9
BRANCH   8  11
ATOM     11  C   LIG d   1       2.606  85.141 111.511  0.00  0.00     0.028 C 
ATOM     12  C   LIG d   1       3.512  84.806 110.316  0.00  0.00     0.006 C 
ENDBRANCH   8  11
ENDBRANCH   7   8
ENDBRANCH   1   7
BRANCH   6  13
ATOM     13  N   LIG d   1       1.696  81.145 109.650  0.00  0.00    -0.311 N 
ATOM     14  C   LIG d   1       3.027  81.202 109.679  0.00  0.00     0.210 C 
ATOM     15  C   LIG d   1       3.693  81.450 108.322  0.00  0.00     0.109 C 
ATOM     16  O   LIG d   1       3.720  81.039 110.694  0.00  0.00    -0.276 OA
ATOM     17  H   LIG d   1       1.217  81.255 108.778  0.00  0.00     0.149 HD
ENDBRANCH   6  13
BRANCH   5  18
ATOM     18  N   LIG d   1       0.370  78.500 110.410  0.00  0.00     0.381 N 
ATOM     19  H   LIG d   1       0.343  78.290 109.433  0.00  0.00    -0.090 HD
ATOM     20  H   LIG d   1      -0.181  77.814 110.896  0.00  0.00    -0.090 HD
ATOM     21  H   LIG d   1       1.311  78.472 110.737  0.00  0.00    -0.090 HD
ENDBRANCH   5  18
BRANCH   3  22
ATOM     22  C   LIG d   1      -2.808  81.000 112.976  0.00  0.00     0.382 C 
ATOM     23  O   LIG d   1      -3.684  81.836 112.646  0.00  0.00    -0.241 OA
ATOM     24  O   LIG d   1      -3.028  80.222 113.923  0.00  0.00    -0.241 OA
ENDBRANCH   3  22
TORSDOF 7
ENDMDL
MODEL 4
REMARK VINA RESULT:      -6.2      2.078      4.977
REMARK  7 active torsions:
REMARK  status: ('A' for Active; 'I' for Inactive)
REMARK    1  A    between atoms: C_2  and  C_3 
REMARK    2  A    between atoms: C_3  and  O_6 
REMARK    3  A    between atoms: C_3  and  C_4 
REMARK    4  A    between atoms: C_7  and  O_6 
REMARK    5  A    between atoms: C_9  and  C_10 
REMARK    6  A    between atoms: N_15  and  C_14 
REMARK    7  A    between atoms: N_20  and  C_19 
REMARK       I    between atoms: C_22  and  N_20 
ROOT
ATOM      1  C   LIG d   1       2.344  83.544 111.999  0.00  0.00     0.161 C 
ATOM      2  C   LIG d   1       1.541  82.397 111.883  0.00  0.00     0.016 C 
ATOM      3  C   LIG d   1       0.133  82.441 111.768  0.00  0.00     0.038 C 
ATOM      4  C   LIG d   1      -0.561  83.649 111.609  0.00  0.00     0.028 C 
ATOM      5  C   LIG d   1       0.156  84.845 112.226  0.00  0.00    -0.047 C 
ATOM      6  C   LIG d   1       1.615  84.874 111.715  0.00  0.00     0.091 C 
ENDROOT
BRANCH   1   7
ATOM      7  O   LIG d   1       3.503  83.417 111.152  0.00  0.00    -0.368 OA
BRANCH   7   8
ATOM      8  C   LIG d   1       3.437  82.391 110.132  0.00  0.00     0.119 C 
BRANCH   8   9
ATOM      9  C   LIG d   1       4.803  81.677 110.104  0.00  0.00     0.028 C 
ATOM     10  C   LIG d   1       4.680  80.188 109.740  0.00  0.00     0.006 C 
ENDBRANCH   8   9
BRANCH   8  11
ATOM     11  C   LIG d   1       3.271  83.001 108.737  0.00  0.00     0.028 C 
ATOM     12  C   LIG d   1       1.874  82.760 108.144  0.00  0.00     0.006 C 
ENDBRANCH   8  11
ENDBRANCH   7   8
ENDBRANCH   1   7
BRANCH   6  13
ATOM     13  N   LIG d   1       2.411  85.965 112.335  0.00  0.00    -0.311 N 
ATOM     14  C   LIG d   1       2.550  87.172 111.791  0.00  0.00     0.210 C 
ATOM     15  C   LIG d   1       3.430  88.143 112.585  0.00  0.00     0.109 C 
ATOM     16  O   LIG d   1       2.002  87.542 110.742  0.00  0.00    -0.276 OA
ATOM     17  H   LIG d   1       2.865  85.761 113.204  0.00  0.00     0.149 HD
ENDBRANCH   6  13
BRANCH   5  18
ATOM     18  N   LIG d   1      -0.606  86.056 111.867  0.00  0.00     0.381 N 
ATOM     19  H   LIG d   1      -0.872  86.547 112.697  0.00  0.00    -0.090 HD
ATOM     20  H   LIG d   1      -1.442  85.782 111.382  0.00  0.00    -0.090 HD
ATOM     21  H   LIG d   1      -0.054  86.647 111.285  0.00  0.00    -0.090 HD
ENDBRANCH   5  18
BRANCH   3  22
ATOM     22  C   LIG d   1      -0.600  81.267 111.853  0.00  0.00     0.382 C 
ATOM     23  O   LIG d   1      -0.046  80.164 111.630  0.00  0.00    -0.241 OA
ATOM     24  O   LIG d   1      -1.820  81.300 112.106  0.00  0.00    -0.241 OA
ENDBRANCH   3  22
TORSDOF 7
ENDMDL
MODEL 5
REMARK VINA RESULT:      -6.1      2.689      4.158
REMARK  7 active torsions:
REMARK  status: ('A' for Active; 'I' for Inactive)
REMARK    1  A    between atoms: C_2  and  C_3 
REMARK    2  A    between atoms: C_3  and  O_6 
REMARK    3  A    between atoms: C_3  and  C_4 
REMARK    4  A    between atoms: C_7  and  O_6 
REMARK    5  A    between atoms: C_9  and  C_10 
REMARK    6  A    between atoms: N_15  and  C_14 
REMARK    7  A    between atoms: N_20  and  C_19 
REMARK       I    between atoms: C_22  and  N_20 
ROOT
ATOM      1  C   LIG d   1       2.335  85.155 111.274  0.00  0.00     0.161 C 
ATOM      2  C   LIG d   1       2.912  86.432 111.370  0.00  0.00     0.016 C 
ATOM      3  C   LIG d   1       3.756  86.826 112.434  0.00  0.00     0.038 C 
ATOM      4  C   LIG d   1       4.204  85.915 113.401  0.00  0.00     0.028 C 
ATOM      5  C   LIG d   1       3.246  84.750 113.626  0.00  0.00    -0.047 C 
ATOM      6  C   LIG d   1       2.902  84.113 112.260  0.00  0.00     0.091 C 
ENDROOT
BRANCH   1   7
ATOM      7  O   LIG d   1       2.441  84.672 109.920  0.00  0.00    -0.368 OA
BRANCH   7   8
ATOM      8  C   LIG d   1       1.196  84.308 109.274  0.00  0.00     0.119 C 
BRANCH   8   9
ATOM      9  C   LIG d   1       1.549  83.477 108.024  0.00  0.00     0.028 C 
ATOM     10  C   LIG d   1       2.886  82.733 108.172  0.00  0.00     0.006 C 
ENDBRANCH   8   9
BRANCH   8  11
ATOM     11  C   LIG d   1       0.460  85.542 108.746  0.00  0.00     0.028 C 
ATOM     12  C   LIG d   1      -0.679  85.998 109.672  0.00  0.00     0.006 C 
ENDBRANCH   8  11
ENDBRANCH   7   8
ENDBRANCH   1   7
BRANCH   6  13
ATOM     13  N   LIG d   1       1.904  83.018 112.381  0.00  0.00    -0.311 N 
ATOM     14  C   LIG d   1       2.130  81.771 111.973  0.00  0.00     0.210 C 
ATOM     15  C   LIG d   1       0.960  80.803 112.172  0.00  0.00     0.109 C 
ATOM     16  O   LIG d   1       3.201  81.367 111.494  0.00  0.00    -0.276 OA
ATOM     17  H   LIG d   1       1.018  83.251 112.787  0.00  0.00     0.149 HD
ENDBRANCH   6  13
BRANCH   5  18
ATOM     18  N   LIG d   1       3.900  83.808 114.555  0.00  0.00     0.381 N 
ATOM     19  H   LIG d   1       4.616  83.301 114.074  0.00  0.00    -0.090 HD
ATOM     20  H   LIG d   1       3.216  83.151 114.886  0.00  0.00    -0.090 HD
ATOM     21  H   LIG d   1       4.293  84.305 115.323  0.00  0.00    -0.090 HD
ENDBRANCH   5  18
BRANCH   3  22
ATOM     22  C   LIG d   1       4.128  88.156 112.560  0.00  0.00     0.382 C 
ATOM     23  O   LIG d   1       3.252  89.039 112.723  0.00  0.00    -0.241 OA
ATOM     24  O   LIG d   1       5.324  88.489 112.467  0.00  0.00    -0.241 OA
ENDBRANCH   3  22
TORSDOF 7
ENDMDL
MODEL 6
REMARK VINA RESULT:      -6.0      2.307      4.076
REMARK  7 active torsions:
REMARK  status: ('A' for Active; 'I' for Inactive)
REMARK    1  A    between atoms: C_2  and  C_3 
REMARK    2  A    between atoms: C_3  and  O_6 
REMARK    3  A    between atoms: C_3  and  C_4 
REMARK    4  A    between atoms: C_7  and  O_6 
REMARK    5  A    between atoms: C_9  and  C_10 
REMARK    6  A    between atoms: N_15  and  C_14 
REMARK    7  A    between atoms: N_20  and  C_19 
REMARK       I    between atoms: C_22  and  N_20 
ROOT
ATOM      1  C   LIG d   1      -0.195  83.075 111.101  0.00  0.00     0.161 C 
ATOM      2  C   LIG d   1      -0.578  84.405 111.346  0.00  0.00     0.016 C 
ATOM      3  C   LIG d   1      -0.264  85.477 110.479  0.00  0.00     0.038 C 
ATOM      4  C   LIG d   1       0.329  85.267 109.225  0.00  0.00     0.028 C 
ATOM      5  C   LIG d   1       1.185  84.006 109.163  0.00  0.00    -0.047 C 
ATOM      6  C   LIG d   1       0.355  82.811 109.684  0.00  0.00     0.091 C 
ENDROOT
BRANCH   1   7
ATOM      7  O   LIG d   1      -1.297  82.190 111.384  0.00  0.00    -0.368 OA
BRANCH   7   8
ATOM      8  C   LIG d   1      -1.325  81.612 112.713  0.00  0.00     0.119 C 
BRANCH   8   9
ATOM      9  C   LIG d   1      -0.431  80.356 112.690  0.00  0.00     0.028 C 
ATOM     10  C   LIG d   1       0.968  80.622 113.272  0.00  0.00     0.006 C 
ENDBRANCH   8   9
BRANCH   8  11
ATOM     11  C   LIG d   1      -2.726  81.106 113.071  0.00  0.00     0.028 C 
ATOM     12  C   LIG d   1      -2.699  79.914 114.040  0.00  0.00     0.006 C 
ENDBRANCH   8  11
ENDBRANCH   7   8
ENDBRANCH   1   7
BRANCH   6  13
ATOM     13  N   LIG d   1       1.144  81.553 109.736  0.00  0.00    -0.311 N 
ATOM     14  C   LIG d   1       0.648  80.361 109.407  0.00  0.00     0.210 C 
ATOM     15  C   LIG d   1       1.626  79.191 109.551  0.00  0.00     0.109 C 
ATOM     16  O   LIG d   1      -0.500  80.167 108.980  0.00  0.00    -0.276 OA
ATOM     17  H   LIG d   1       2.095  81.623 110.042  0.00  0.00     0.149 HD
ENDBRANCH   6  13
BRANCH   5  18
ATOM     18  N   LIG d   1       1.628  83.837 107.766  0.00  0.00     0.381 N 
ATOM     19  H   LIG d   1       0.887  83.444 107.221  0.00  0.00    -0.090 HD
ATOM     20  H   LIG d   1       2.405  83.201 107.747  0.00  0.00    -0.090 HD
ATOM     21  H   LIG d   1       1.900  84.717 107.386  0.00  0.00    -0.090 HD
ENDBRANCH   5  18
BRANCH   3  22
ATOM     22  C   LIG d   1      -0.507  86.781 110.883  0.00  0.00     0.382 C 
ATOM     23  O   LIG d   1      -1.686  87.202 110.966  0.00  0.00    -0.241 OA
ATOM     24  O   LIG d   1       0.439  87.554 111.124  0.00  0.00    -0.241 OA
ENDBRANCH   3  22
TORSDOF 7
ENDMDL
MODEL 7
REMARK VINA RESULT:      -5.9      2.762      6.141
REMARK  7 active torsions:
REMARK  status: ('A' for Active; 'I' for Inactive)
REMARK    1  A    between atoms: C_2  and  C_3 
REMARK    2  A    between atoms: C_3  and  O_6 
REMARK    3  A    between atoms: C_3  and  C_4 
REMARK    4  A    between atoms: C_7  and  O_6 
REMARK    5  A    between atoms: C_9  and  C_10 
REMARK    6  A    between atoms: N_15  and  C_14 
REMARK    7  A    between atoms: N_20  and  C_19 
REMARK       I    between atoms: C_22  and  N_20 
ROOT
ATOM      1  C   LIG d   1       3.554  83.897 109.797  0.00  0.00     0.161 C 
ATOM      2  C   LIG d   1       3.571  82.548 109.405  0.00  0.00     0.016 C 
ATOM      3  C   LIG d   1       3.962  81.493 110.263  0.00  0.00     0.038 C 
ATOM      4  C   LIG d   1       4.220  81.703 111.625  0.00  0.00     0.028 C 
ATOM      5  C   LIG d   1       4.705  83.114 111.940  0.00  0.00    -0.047 C 
ATOM      6  C   LIG d   1       3.726  84.132 111.312  0.00  0.00     0.091 C 
ENDROOT
BRANCH   1   7
ATOM      7  O   LIG d   1       2.347  84.527 109.325  0.00  0.00    -0.368 OA
BRANCH   7   8
ATOM      8  C   LIG d   1       1.328  84.779 110.324  0.00  0.00     0.119 C 
BRANCH   8   9
ATOM      9  C   LIG d   1       0.213  83.735 110.121  0.00  0.00     0.028 C 
ATOM     10  C   LIG d   1       0.208  82.661 111.222  0.00  0.00     0.006 C 
ENDBRANCH   8   9
BRANCH   8  11
ATOM     11  C   LIG d   1       0.655  86.138 110.103  0.00  0.00     0.028 C 
ATOM     12  C   LIG d   1      -0.845  86.017 109.794  0.00  0.00     0.006 C 
ENDBRANCH   8  11
ENDBRANCH   7   8
ENDBRANCH   1   7
BRANCH   6  13
ATOM     13  N   LIG d   1       4.171  85.538 111.501  0.00  0.00    -0.311 N 
ATOM     14  C   LIG d   1       3.786  86.298 112.524  0.00  0.00     0.210 C 
ATOM     15  C   LIG d   1       4.346  87.723 112.518  0.00  0.00     0.109 C 
ATOM     16  O   LIG d   1       3.059  85.917 113.454  0.00  0.00    -0.276 OA
ATOM     17  H   LIG d   1       4.788  85.917 110.810  0.00  0.00     0.149 HD
ENDBRANCH   6  13
BRANCH   5  18
ATOM     18  N   LIG d   1       4.802  83.235 113.407  0.00  0.00     0.381 N 
ATOM     19  H   LIG d   1       4.452  82.404 113.839  0.00  0.00    -0.090 HD
ATOM     20  H   LIG d   1       4.237  84.009 113.708  0.00  0.00    -0.090 HD
ATOM     21  H   LIG d   1       5.751  83.383 113.674  0.00  0.00    -0.090 HD
ENDBRANCH   5  18
BRANCH   3  22
ATOM     22  C   LIG d   1       4.137  80.218 109.748  0.00  0.00     0.382 C 
ATOM     23  O   LIG d   1       3.141  79.548 109.381  0.00  0.00    -0.241 OA
ATOM     24  O   LIG d   1       5.273  79.712 109.686  0.00  0.00    -0.241 OA
ENDBRANCH   3  22
TORSDOF 7
ENDMDL
MODEL 8
REMARK VINA RESULT:      -5.8      1.959      4.292
REMARK  7 active torsions:
REMARK  status: ('A' for Active; 'I' for Inactive)
REMARK    1  A    between atoms: C_2  and  C_3 
REMARK    2  A    between atoms: C_3  and  O_6 
REMARK    3  A    between atoms: C_3  and  C_4 
REMARK    4  A    between atoms: C_7  and  O_6 
REMARK    5  A    between atoms: C_9  and  C_10 
REMARK    6  A    between atoms: N_15  and  C_14 
REMARK    7  A    between atoms: N_20  and  C_19 
REMARK       I    between atoms: C_22  and  N_20 
ROOT
ATOM      1  C   LIG d   1       0.306  82.431 111.379  0.00  0.00     0.161 C 
ATOM      2  C   LIG d   1      -0.383  83.596 111.755  0.00  0.00     0.016 C 
ATOM      3  C   LIG d   1       0.052  84.899 111.422  0.00  0.00     0.038 C 
ATOM      4  C   LIG d   1       1.132  85.121 110.555  0.00  0.00     0.028 C 
ATOM      5  C   LIG d   1       2.157  83.992 110.563  0.00  0.00    -0.047 C 
ATOM      6  C   LIG d   1       1.426  82.649 110.340  0.00  0.00     0.091 C 
ENDROOT
BRANCH   1   7
ATOM      7  O   LIG d   1      -0.629  81.440 110.908  0.00  0.00    -0.368 OA
BRANCH   7   8
ATOM      8  C   LIG d   1      -0.662  80.193 111.646  0.00  0.00     0.119 C 
BRANCH   8   9
ATOM      9  C   LIG d   1      -0.370  79.057 110.648  0.00  0.00     0.028 C 
ATOM     10  C   LIG d   1      -0.490  79.515 109.185  0.00  0.00     0.006 C 
ENDBRANCH   8   9
BRANCH   8  11
ATOM     11  C   LIG d   1      -2.064  79.905 112.190  0.00  0.00     0.028 C 
ATOM     12  C   LIG d   1      -2.599  81.032 113.087  0.00  0.00     0.006 C 
ENDBRANCH   8  11
ENDBRANCH   7   8
ENDBRANCH   1   7
BRANCH   6  13
ATOM     13  N   LIG d   1       2.345  81.483 110.417  0.00  0.00    -0.311 N 
ATOM     14  C   LIG d   1       2.984  80.982 109.362  0.00  0.00     0.210 C 
ATOM     15  C   LIG d   1       3.867  79.767 109.658  0.00  0.00     0.109 C 
ATOM     16  O   LIG d   1       2.928  81.449 108.214  0.00  0.00    -0.276 OA
ATOM     17  H   LIG d   1       2.473  81.062 111.317  0.00  0.00     0.149 HD
ENDBRANCH   6  13
BRANCH   5  18
ATOM     18  N   LIG d   1       3.155  84.288 109.518  0.00  0.00     0.381 N 
ATOM     19  H   LIG d   1       2.690  84.554 108.672  0.00  0.00    -0.090 HD
ATOM     20  H   LIG d   1       3.691  83.458 109.336  0.00  0.00    -0.090 HD
ATOM     21  H   LIG d   1       3.757  85.022 109.819  0.00  0.00    -0.090 HD
ENDBRANCH   5  18
BRANCH   3  22
ATOM     22  C   LIG d   1      -0.574  85.998 111.991  0.00  0.00     0.382 C 
ATOM     23  O   LIG d   1      -1.544  86.539 111.407  0.00  0.00    -0.241 OA
ATOM     24  O   LIG d   1      -0.152  86.483 113.058  0.00  0.00    -0.241 OA
ENDBRANCH   3  22
TORSDOF 7
ENDMDL
MODEL 9
REMARK VINA RESULT:      -5.7      1.956      3.785
REMARK  7 active torsions:
REMARK  status: ('A' for Active; 'I' for Inactive)
REMARK    1  A    between atoms: C_2  and  C_3 
REMARK    2  A    between atoms: C_3  and  O_6 
REMARK    3  A    between atoms: C_3  and  C_4 
REMARK    4  A    between atoms: C_7  and  O_6 
REMARK    5  A    between atoms: C_9  and  C_10 
REMARK    6  A    between atoms: N_15  and  C_14 
REMARK    7  A    between atoms: N_20  and  C_19 
REMARK       I    between atoms: C_22  and  N_20 
ROOT
ATOM      1  C   LIG d   1       0.584  82.748 110.720  0.00  0.00     0.161 C 
ATOM      2  C   LIG d   1      -0.316  83.801 110.954  0.00  0.00     0.016 C 
ATOM      3  C   LIG d   1       0.047  85.166 110.882  0.00  0.00     0.038 C 
ATOM      4  C   LIG d   1       1.306  85.575 110.418  0.00  0.00     0.028 C 
ATOM      5  C   LIG d   1       2.403  84.542 110.654  0.00  0.00    -0.047 C 
ATOM      6  C   LIG d   1       1.933  83.176 110.104  0.00  0.00     0.091 C 
ENDROOT
BRANCH   1   7
ATOM      7  O   LIG d   1      -0.043  81.742 109.901  0.00  0.00    -0.368 OA
BRANCH   7   8
ATOM      8  C   LIG d   1      -0.513  80.559 110.592  0.00  0.00     0.119 C 
BRANCH   8   9
ATOM      9  C   LIG d   1       0.369  80.373 111.842  0.00  0.00     0.028 C 
ATOM     10  C   LIG d   1      -0.456  80.056 113.101  0.00  0.00     0.006 C 
ENDBRANCH   8   9
BRANCH   8  11
ATOM     11  C   LIG d   1      -0.296  79.298 109.751  0.00  0.00     0.028 C 
ATOM     12  C   LIG d   1       1.191  78.973 109.538  0.00  0.00     0.006 C 
ENDBRANCH   8  11
ENDBRANCH   7   8
ENDBRANCH   1   7
BRANCH   6  13
ATOM     13  N   LIG d   1       2.913  82.091 110.370  0.00  0.00    -0.311 N 
ATOM     14  C   LIG d   1       3.833  81.701 109.489  0.00  0.00     0.210 C 
ATOM     15  C   LIG d   1       4.731  80.552 109.956  0.00  0.00     0.109 C 
ATOM     16  O   LIG d   1       4.011  82.221 108.376  0.00  0.00    -0.276 OA
ATOM     17  H   LIG d   1       2.860  81.636 111.260  0.00  0.00     0.149 HD
ENDBRANCH   6  13
BRANCH   5  18
ATOM     18  N   LIG d   1       3.630  85.038 110.001  0.00  0.00     0.381 N 
ATOM     19  H   LIG d   1       3.800  84.519 109.163  0.00  0.00    -0.090 HD
ATOM     20  H   LIG d   1       4.407  84.899 110.622  0.00  0.00    -0.090 HD
ATOM     21  H   LIG d   1       3.535  86.006 109.787  0.00  0.00    -0.090 HD
ENDBRANCH   5  18
BRANCH   3  22
ATOM     22  C   LIG d   1      -0.843  86.137 111.314  0.00  0.00     0.382 C 
ATOM     23  O   LIG d   1      -1.070  86.279 112.540  0.00  0.00    -0.241 OA
ATOM     24  O   LIG d   1      -1.456  86.844 110.491  0.00  0.00    -0.241 OA
ENDBRANCH   3  22
TORSDOF 7
ENDMDL
