MODEL 1
REMARK VINA RESULT:      -6.6      0.000      0.000
REMARK  7 active torsions:
REMARK  status: ('A' for Active; 'I' for Inactive)
REMARK    1  A    between atoms: C_2  and  C_3 
REMARK    2  A    between atoms: C_3  and  O_6 
REMARK    3  A    between atoms: C_3  and  C_4 
REMARK    4  A    between atoms: C_7  and  O_6 
REMARK    5  A    between atoms: C_9  and  C_10 
REMARK    6  A    between atoms: N_15  and  C_14 
REMARK    7  A    between atoms: N_20  and  C_19 
REMARK       I    between atoms: C_22  and  N_20 
ROOT
ATOM      1  C   LIG d   1       0.644  82.569 111.138  0.00  0.00     0.161 C 
ATOM      2  C   LIG d   1      -0.433  82.391 112.022  0.00  0.00     0.016 C 
ATOM      3  C   LIG d   1      -1.036  81.136 112.271  0.00  0.00     0.038 C 
ATOM      4  C   LIG d   1      -0.500  79.943 111.765  0.00  0.00     0.028 C 
ATOM      5  C   LIG d   1       0.278  80.131 110.467  0.00  0.00    -0.047 C 
ATOM      6  C   LIG d   1       1.313  81.262 110.662  0.00  0.00     0.091 C 
ENDROOT
BRANCH   1   7
ATOM      7  O   LIG d   1       1.623  83.445 111.731  0.00  0.00    -0.368 OA
BRANCH   7   8
ATOM      8  C   LIG d   1       1.644  84.806 111.235  0.00  0.00     0.119 C 
BRANCH   8   9
ATOM      9  C   LIG d   1       0.815  84.838 109.936  0.00  0.00     0.028 C 
ATOM     10  C   LIG d   1      -0.473  85.667 110.082  0.00  0.00     0.006 C 
ENDBRANCH   8   9
BRANCH   8  11
ATOM     11  C   LIG d   1       3.058  85.228 110.824  0.00  0.00     0.028 C 
ATOM     12  C   LIG d   1       3.659  86.288 111.760  0.00  0.00     0.006 C 
ENDBRANCH   8  11
ENDBRANCH   7   8
ENDBRANCH   1   7
BRANCH   6  13
ATOM     13  N   LIG d   1       2.060  81.569 109.414  0.00  0.00    -0.311 N 
ATOM     14  C   LIG d   1       3.382  81.729 109.371  0.00  0.00     0.210 C 
ATOM     15  C   LIG d   1       3.949  82.059 107.987  0.00  0.00     0.109 C 
ATOM     16  O   LIG d   1       4.142  81.598 110.343  0.00  0.00    -0.276 OA
ATOM     17  H   LIG d   1       1.525  81.661 108.573  0.00  0.00     0.149 HD
ENDBRANCH   6  13
BRANCH   5  18
ATOM     18  N   LIG d   1       0.895  78.835 110.126  0.00  0.00     0.381 N 
ATOM     19  H   LIG d   1       1.882  78.951 110.008  0.00  0.00    -0.090 HD
ATOM     20  H   LIG d   1       0.510  78.511 109.256  0.00  0.00    -0.090 HD
ATOM     21  H   LIG d   1       0.715  78.171 110.846  0.00  0.00    -0.090 HD
ENDBRANCH   5  18
BRANCH   3  22
ATOM     22  C   LIG d   1      -2.211  81.072 113.004  0.00  0.00     0.382 C 
ATOM     23  O   LIG d   1      -2.228  80.485 114.112  0.00  0.00    -0.241 OA
ATOM     24  O   LIG d   1      -3.266  81.555 112.549  0.00  0.00    -0.241 OA
ENDBRANCH   3  22
TORSDOF 7
ENDMDL
MODEL 2
REMARK VINA RESULT:      -6.4      0.828      1.784
REMARK  7 active torsions:
REMARK  status: ('A' for Active; 'I' for Inactive)
REMARK    1  A    between atoms: C_2  and  C_3 
REMARK    2  A    between atoms: C_3  and  O_6 
REMARK    3  A    between atoms: C_3  and  C_4 
REMARK    4  A    between atoms: C_7  and  O_6 
REMARK    5  A    between atoms: C_9  and  C_10 
REMARK    6  A    between atoms: N_15  and  C_14 
REMARK    7  A    between atoms: N_20  and  C_19 
REMARK       I    between atoms: C_22  and  N_20 
ROOT
ATOM      1  C   LIG d   1       0.581  82.413 111.342  0.00  0.00     0.161 C 
ATOM      2  C   LIG d   1      -0.560  82.106 112.102  0.00  0.00     0.016 C 
ATOM      3  C   LIG d   1      -1.151  80.822 112.134  0.00  0.00     0.038 C 
ATOM      4  C   LIG d   1      -0.548  79.713 111.523  0.00  0.00     0.028 C 
ATOM      5  C   LIG d   1       0.329  80.080 110.331  0.00  0.00    -0.047 C 
ATOM      6  C   LIG d   1       1.317  81.189 110.758  0.00  0.00     0.091 C 
ENDROOT
BRANCH   1   7
ATOM      7  O   LIG d   1       1.487  83.216 112.125  0.00  0.00    -0.368 OA
BRANCH   7   8
ATOM      8  C   LIG d   1       1.749  84.551 111.626  0.00  0.00     0.119 C 
BRANCH   8   9
ATOM      9  C   LIG d   1       3.270  84.783 111.700  0.00  0.00     0.028 C 
ATOM     10  C   LIG d   1       3.632  86.273 111.809  0.00  0.00     0.006 C 
ENDBRANCH   8   9
BRANCH   8  11
ATOM     11  C   LIG d   1       1.131  85.617 112.536  0.00  0.00     0.028 C 
ATOM     12  C   LIG d   1      -0.212  86.145 112.009  0.00  0.00     0.006 C 
ENDBRANCH   8  11
ENDBRANCH   7   8
ENDBRANCH   1   7
BRANCH   6  13
ATOM     13  N   LIG d   1       2.156  81.666 109.628  0.00  0.00    -0.311 N 
ATOM     14  C   LIG d   1       3.389  81.222 109.392  0.00  0.00     0.210 C 
ATOM     15  C   LIG d   1       4.087  81.861 108.187  0.00  0.00     0.109 C 
ATOM     16  O   LIG d   1       3.960  80.336 110.047  0.00  0.00    -0.276 OA
ATOM     17  H   LIG d   1       1.760  82.363 109.028  0.00  0.00     0.149 HD
ENDBRANCH   6  13
BRANCH   5  18
ATOM     18  N   LIG d   1       1.003  78.849 109.877  0.00  0.00     0.381 N 
ATOM     19  H   LIG d   1       1.665  79.069 109.160  0.00  0.00    -0.090 HD
ATOM     20  H   LIG d   1       0.315  78.226 109.491  0.00  0.00    -0.090 HD
ATOM     21  H   LIG d   1       1.465  78.411 110.643  0.00  0.00    -0.090 HD
ENDBRANCH   5  18
BRANCH   3  22
ATOM     22  C   LIG d   1      -2.381  80.647 112.750  0.00  0.00     0.382 C 
ATOM     23  O   LIG d   1      -3.238  81.563 112.712  0.00  0.00    -0.241 OA
ATOM     24  O   LIG d   1      -2.629  79.602 113.381  0.00  0.00    -0.241 OA
ENDBRANCH   3  22
TORSDOF 7
ENDMDL
MODEL 3
REMARK VINA RESULT:      -6.3      1.864      4.972
REMARK  7 active torsions:
REMARK  status: ('A' for Active; 'I' for Inactive)
REMARK    1  A    between atoms: C_2  and  C_3 
REMARK    2  A    between atoms: C_3  and  O_6 
REMARK    3  A    between atoms: C_3  and  C_4 
REMARK    4  A    between atoms: C_7  and  O_6 
REMARK    5  A    between atoms: C_9  and  C_10 
REMARK    6  A    between atoms: N_15  and  C_14 
REMARK    7  A    between atoms: N_20  and  C_19 
REMARK       I    between atoms: C_22  and  N_20 
ROOT
ATOM      1  C   LIG d   1       0.753  81.168 112.023  0.00  0.00     0.161 C 
ATOM      2  C   LIG d   1       1.669  81.078 110.962  0.00  0.00     0.016 C 
ATOM      3  C   LIG d   1       1.505  80.199 109.866  0.00  0.00     0.038 C 
ATOM      4  C   LIG d   1       0.330  79.455 109.681  0.00  0.00     0.028 C 
ATOM      5  C   LIG d   1      -0.397  79.137 110.983  0.00  0.00    -0.047 C 
ATOM      6  C   LIG d   1      -0.589  80.446 111.783  0.00  0.00     0.091 C 
ENDROOT
BRANCH   1   7
ATOM      7  O   LIG d   1       0.524  82.553 112.354  0.00  0.00    -0.368 OA
BRANCH   7   8
ATOM      8  C   LIG d   1       1.147  83.528 111.482  0.00  0.00     0.119 C 
BRANCH   8   9
ATOM      9  C   LIG d   1       1.959  84.491 112.370  0.00  0.00     0.028 C 
ATOM     10  C   LIG d   1       3.476  84.336 112.171  0.00  0.00     0.006 C 
ENDBRANCH   8   9
BRANCH   8  11
ATOM     11  C   LIG d   1       0.100  84.403 110.786  0.00  0.00     0.028 C 
ATOM     12  C   LIG d   1       0.607  85.000 109.464  0.00  0.00     0.006 C 
ENDBRANCH   8  11
ENDBRANCH   7   8
ENDBRANCH   1   7
BRANCH   6  13
ATOM     13  N   LIG d   1      -1.218  80.212 113.109  0.00  0.00    -0.311 N 
ATOM     14  C   LIG d   1      -2.423  80.672 113.440  0.00  0.00     0.210 C 
ATOM     15  C   LIG d   1      -2.875  80.335 114.865  0.00  0.00     0.109 C 
ATOM     16  O   LIG d   1      -3.175  81.299 112.679  0.00  0.00    -0.276 OA
ATOM     17  H   LIG d   1      -0.690  79.685 113.777  0.00  0.00     0.149 HD
ENDBRANCH   6  13
BRANCH   5  18
ATOM     18  N   LIG d   1      -1.670  78.480 110.633  0.00  0.00     0.381 N 
ATOM     19  H   LIG d   1      -1.806  78.511 109.643  0.00  0.00    -0.090 HD
ATOM     20  H   LIG d   1      -2.424  78.980 111.071  0.00  0.00    -0.090 HD
ATOM     21  H   LIG d   1      -1.663  77.534 110.946  0.00  0.00    -0.090 HD
ENDBRANCH   5  18
BRANCH   3  22
ATOM     22  C   LIG d   1       2.542  80.029 108.961  0.00  0.00     0.382 C 
ATOM     23  O   LIG d   1       2.552  79.032 108.199  0.00  0.00    -0.241 OA
ATOM     24  O   LIG d   1       3.491  80.835 108.929  0.00  0.00    -0.241 OA
ENDBRANCH   3  22
TORSDOF 7
ENDMDL
MODEL 4
REMARK VINA RESULT:      -6.1      1.637      2.281
REMARK  7 active torsions:
REMARK  status: ('A' for Active; 'I' for Inactive)
REMARK    1  A    between atoms: C_2  and  C_3 
REMARK    2  A    between atoms: C_3  and  O_6 
REMARK    3  A    between atoms: C_3  and  C_4 
REMARK    4  A    between atoms: C_7  and  O_6 
REMARK    5  A    between atoms: C_9  and  C_10 
REMARK    6  A    between atoms: N_15  and  C_14 
REMARK    7  A    between atoms: N_20  and  C_19 
REMARK       I    between atoms: C_22  and  N_20 
ROOT
ATOM      1  C   LIG d   1       0.362  81.216 110.633  0.00  0.00     0.161 C 
ATOM      2  C   LIG d   1      -0.400  81.579 111.756  0.00  0.00     0.016 C 
ATOM      3  C   LIG d   1      -1.193  80.665 112.487  0.00  0.00     0.038 C 
ATOM      4  C   LIG d   1      -1.157  79.285 112.234  0.00  0.00     0.028 C 
ATOM      5  C   LIG d   1      -0.794  78.943 110.794  0.00  0.00    -0.047 C 
ATOM      6  C   LIG d   1       0.501  79.695 110.410  0.00  0.00     0.091 C 
ENDROOT
BRANCH   1   7
ATOM      7  O   LIG d   1       1.663  81.832 110.706  0.00  0.00    -0.368 OA
BRANCH   7   8
ATOM      8  C   LIG d   1       1.800  83.112 110.041  0.00  0.00     0.119 C 
BRANCH   8   9
ATOM      9  C   LIG d   1       2.477  82.857 108.681  0.00  0.00     0.028 C 
ATOM     10  C   LIG d   1       3.960  82.474 108.825  0.00  0.00     0.006 C 
ENDBRANCH   8   9
BRANCH   8  11
ATOM     11  C   LIG d   1       2.755  84.036 110.803  0.00  0.00     0.028 C 
ATOM     12  C   LIG d   1       2.516  85.523 110.497  0.00  0.00     0.006 C 
ENDBRANCH   8  11
ENDBRANCH   7   8
ENDBRANCH   1   7
BRANCH   6  13
ATOM     13  N   LIG d   1       0.881  79.482 108.989  0.00  0.00    -0.311 N 
ATOM     14  C   LIG d   1       2.126  79.225 108.594  0.00  0.00     0.210 C 
ATOM     15  C   LIG d   1       2.303  79.058 107.081  0.00  0.00     0.109 C 
ATOM     16  O   LIG d   1       3.096  79.088 109.355  0.00  0.00    -0.276 OA
ATOM     17  H   LIG d   1       0.150  79.544 108.307  0.00  0.00     0.149 HD
ENDBRANCH   6  13
BRANCH   5  18
ATOM     18  N   LIG d   1      -0.658  77.477 110.705  0.00  0.00     0.381 N 
ATOM     19  H   LIG d   1      -0.083  77.144 111.453  0.00  0.00    -0.090 HD
ATOM     20  H   LIG d   1      -0.212  77.243 109.835  0.00  0.00    -0.090 HD
ATOM     21  H   LIG d   1      -1.556  77.048 110.751  0.00  0.00    -0.090 HD
ENDBRANCH   5  18
BRANCH   3  22
ATOM     22  C   LIG d   1      -2.063  81.134 113.459  0.00  0.00     0.382 C 
ATOM     23  O   LIG d   1      -1.754  81.048 114.672  0.00  0.00    -0.241 OA
ATOM     24  O   LIG d   1      -3.173  81.603 113.140  0.00  0.00    -0.241 OA
ENDBRANCH   3  22
TORSDOF 7
ENDMDL
MODEL 5
REMARK VINA RESULT:      -5.9      2.458      5.606
REMARK  7 active torsions:
REMARK  status: ('A' for Active; 'I' for Inactive)
REMARK    1  A    between atoms: C_2  and  C_3 
REMARK    2  A    between atoms: C_3  and  O_6 
REMARK    3  A    between atoms: C_3  and  C_4 
REMARK    4  A    between atoms: C_7  and  O_6 
REMARK    5  A    between atoms: C_9  and  C_10 
REMARK    6  A    between atoms: N_15  and  C_14 
REMARK    7  A    between atoms: N_20  and  C_19 
REMARK       I    between atoms: C_22  and  N_20 
ROOT
ATOM      1  C   LIG d   1       0.622  82.094 110.354  0.00  0.00     0.161 C 
ATOM      2  C   LIG d   1       1.485  81.053 109.974  0.00  0.00     0.016 C 
ATOM      3  C   LIG d   1       2.894  81.172 109.972  0.00  0.00     0.038 C 
ATOM      4  C   LIG d   1       3.544  82.299 110.498  0.00  0.00     0.028 C 
ATOM      5  C   LIG d   1       2.706  83.571 110.422  0.00  0.00    -0.047 C 
ATOM      6  C   LIG d   1       1.314  83.292 111.035  0.00  0.00     0.091 C 
ENDROOT
BRANCH   1   7
ATOM      7  O   LIG d   1      -0.427  81.576 111.196  0.00  0.00    -0.368 OA
BRANCH   7   8
ATOM      8  C   LIG d   1      -0.111  80.375 111.942  0.00  0.00     0.119 C 
BRANCH   8   9
ATOM      9  C   LIG d   1      -1.373  79.491 111.952  0.00  0.00     0.028 C 
ATOM     10  C   LIG d   1      -1.325  78.387 110.882  0.00  0.00     0.006 C 
ENDBRANCH   8   9
BRANCH   8  11
ATOM     11  C   LIG d   1       0.173  80.692 113.413  0.00  0.00     0.028 C 
ATOM     12  C   LIG d   1       1.667  80.596 113.765  0.00  0.00     0.006 C 
ENDBRANCH   8  11
ENDBRANCH   7   8
ENDBRANCH   1   7
BRANCH   6  13
ATOM     13  N   LIG d   1       0.402  84.461 110.925  0.00  0.00    -0.311 N 
ATOM     14  C   LIG d   1       0.286  85.392 111.871  0.00  0.00     0.210 C 
ATOM     15  C   LIG d   1      -0.726  86.500 111.566  0.00  0.00     0.109 C 
ATOM     16  O   LIG d   1       0.949  85.422 112.919  0.00  0.00    -0.276 OA
ATOM     17  H   LIG d   1      -0.150  84.531 110.093  0.00  0.00     0.149 HD
ENDBRANCH   6  13
BRANCH   5  18
ATOM     18  N   LIG d   1       3.446  84.635 111.127  0.00  0.00     0.381 N 
ATOM     19  H   LIG d   1       4.154  84.228 111.705  0.00  0.00    -0.090 HD
ATOM     20  H   LIG d   1       2.807  85.138 111.717  0.00  0.00    -0.090 HD
ATOM     21  H   LIG d   1       3.861  85.256 110.468  0.00  0.00    -0.090 HD
ENDBRANCH   5  18
BRANCH   3  22
ATOM     22  C   LIG d   1       3.668  80.172 109.404  0.00  0.00     0.382 C 
ATOM     23  O   LIG d   1       3.159  79.053 109.149  0.00  0.00    -0.241 OA
ATOM     24  O   LIG d   1       4.879  80.358 109.182  0.00  0.00    -0.241 OA
ENDBRANCH   3  22
TORSDOF 7
ENDMDL
MODEL 6
REMARK VINA RESULT:      -5.9      1.847      2.338
REMARK  7 active torsions:
REMARK  status: ('A' for Active; 'I' for Inactive)
REMARK    1  A    between atoms: C_2  and  C_3 
REMARK    2  A    between atoms: C_3  and  O_6 
REMARK    3  A    between atoms: C_3  and  C_4 
REMARK    4  A    between atoms: C_7  and  O_6 
REMARK    5  A    between atoms: C_9  and  C_10 
REMARK    6  A    between atoms: N_15  and  C_14 
REMARK    7  A    between atoms: N_20  and  C_19 
REMARK       I    between atoms: C_22  and  N_20 
ROOT
ATOM      1  C   LIG d   1       2.051  81.840 111.699  0.00  0.00     0.161 C 
ATOM      2  C   LIG d   1       0.782  81.862 112.300  0.00  0.00     0.016 C 
ATOM      3  C   LIG d   1      -0.245  80.943 111.983  0.00  0.00     0.038 C 
ATOM      4  C   LIG d   1      -0.021  79.840 111.147  0.00  0.00     0.028 C 
ATOM      5  C   LIG d   1       1.091  80.068 110.129  0.00  0.00    -0.047 C 
ATOM      6  C   LIG d   1       2.351  80.576 110.866  0.00  0.00     0.091 C 
ENDROOT
BRANCH   1   7
ATOM      7  O   LIG d   1       3.070  82.034 112.700  0.00  0.00    -0.368 OA
BRANCH   7   8
ATOM      8  C   LIG d   1       3.793  83.288 112.640  0.00  0.00     0.119 C 
BRANCH   8   9
ATOM      9  C   LIG d   1       3.471  84.070 113.928  0.00  0.00     0.028 C 
ATOM     10  C   LIG d   1       3.038  83.149 115.081  0.00  0.00     0.006 C 
ENDBRANCH   8   9
BRANCH   8  11
ATOM     11  C   LIG d   1       3.287  84.168 111.493  0.00  0.00     0.028 C 
ATOM     12  C   LIG d   1       3.107  85.638 111.905  0.00  0.00     0.006 C 
ENDBRANCH   8  11
ENDBRANCH   7   8
ENDBRANCH   1   7
BRANCH   6  13
ATOM     13  N   LIG d   1       3.460  80.904 109.933  0.00  0.00    -0.311 N 
ATOM     14  C   LIG d   1       3.321  81.715 108.885  0.00  0.00     0.210 C 
ATOM     15  C   LIG d   1       4.586  81.903 108.041  0.00  0.00     0.109 C 
ATOM     16  O   LIG d   1       2.280  82.321 108.593  0.00  0.00    -0.276 OA
ATOM     17  H   LIG d   1       4.349  80.480 110.114  0.00  0.00     0.149 HD
ENDBRANCH   6  13
BRANCH   5  18
ATOM     18  N   LIG d   1       1.312  78.794 109.417  0.00  0.00     0.381 N 
ATOM     19  H   LIG d   1       1.648  78.977 108.493  0.00  0.00    -0.090 HD
ATOM     20  H   LIG d   1       0.436  78.307 109.344  0.00  0.00    -0.090 HD
ATOM     21  H   LIG d   1       1.971  78.236 109.914  0.00  0.00    -0.090 HD
ENDBRANCH   5  18
BRANCH   3  22
ATOM     22  C   LIG d   1      -1.525  81.148 112.475  0.00  0.00     0.382 C 
ATOM     23  O   LIG d   1      -2.375  80.227 112.412  0.00  0.00    -0.241 OA
ATOM     24  O   LIG d   1      -1.854  82.256 112.939  0.00  0.00    -0.241 OA
ENDBRANCH   3  22
TORSDOF 7
ENDMDL
MODEL 7
REMARK VINA RESULT:      -5.5     24.467     27.358
REMARK  7 active torsions:
REMARK  status: ('A' for Active; 'I' for Inactive)
REMARK    1  A    between atoms: C_2  and  C_3 
REMARK    2  A    between atoms: C_3  and  O_6 
REMARK    3  A    between atoms: C_3  and  C_4 
REMARK    4  A    between atoms: C_7  and  O_6 
REMARK    5  A    between atoms: C_9  and  C_10 
REMARK    6  A    between atoms: N_15  and  C_14 
REMARK    7  A    between atoms: N_20  and  C_19 
REMARK       I    between atoms: C_22  and  N_20 
ROOT
ATOM      1  C   LIG d   1     -26.373  85.456 112.518  0.00  0.00     0.161 C 
ATOM      2  C   LIG d   1     -25.249  86.296 112.589  0.00  0.00     0.016 C 
ATOM      3  C   LIG d   1     -23.999  85.882 113.104  0.00  0.00     0.038 C 
ATOM      4  C   LIG d   1     -23.744  84.546 113.446  0.00  0.00     0.028 C 
ATOM      5  C   LIG d   1     -24.994  83.779 113.865  0.00  0.00    -0.047 C 
ATOM      6  C   LIG d   1     -26.082  83.964 112.783  0.00  0.00     0.091 C 
ENDROOT
BRANCH   1   7
ATOM      7  O   LIG d   1     -27.026  85.621 111.244  0.00  0.00    -0.368 OA
BRANCH   7   8
ATOM      8  C   LIG d   1     -26.915  86.931 110.635  0.00  0.00     0.119 C 
BRANCH   8   9
ATOM      9  C   LIG d   1     -28.033  87.812 111.226  0.00  0.00     0.028 C 
ATOM     10  C   LIG d   1     -27.594  89.275 111.408  0.00  0.00     0.006 C 
ENDBRANCH   8   9
BRANCH   8  11
ATOM     11  C   LIG d   1     -27.197  86.873 109.131  0.00  0.00     0.028 C 
ATOM     12  C   LIG d   1     -25.927  87.028 108.280  0.00  0.00     0.006 C 
ENDBRANCH   8  11
ENDBRANCH   7   8
ENDBRANCH   1   7
BRANCH   6  13
ATOM     13  N   LIG d   1     -27.367  83.315 113.154  0.00  0.00    -0.311 N 
ATOM     14  C   LIG d   1     -27.941  82.357 112.428  0.00  0.00     0.210 C 
ATOM     15  C   LIG d   1     -29.273  81.838 112.979  0.00  0.00     0.109 C 
ATOM     16  O   LIG d   1     -27.458  81.866 111.397  0.00  0.00    -0.276 OA
ATOM     17  H   LIG d   1     -27.812  83.632 113.993  0.00  0.00     0.149 HD
ENDBRANCH   6  13
BRANCH   5  18
ATOM     18  N   LIG d   1     -24.607  82.369 114.060  0.00  0.00     0.381 N 
ATOM     19  H   LIG d   1     -23.633  82.312 114.281  0.00  0.00    -0.090 HD
ATOM     20  H   LIG d   1     -24.765  81.867 113.204  0.00  0.00    -0.090 HD
ATOM     21  H   LIG d   1     -25.146  81.966 114.795  0.00  0.00    -0.090 HD
ENDBRANCH   5  18
BRANCH   3  22
ATOM     22  C   LIG d   1     -23.000  86.819 113.320  0.00  0.00     0.382 C 
ATOM     23  O   LIG d   1     -21.802  86.521 113.097  0.00  0.00    -0.241 OA
ATOM     24  O   LIG d   1     -23.277  87.945 113.775  0.00  0.00    -0.241 OA
ENDBRANCH   3  22
TORSDOF 7
ENDMDL
MODEL 8
REMARK VINA RESULT:      -5.3      2.823      5.106
REMARK  7 active torsions:
REMARK  status: ('A' for Active; 'I' for Inactive)
REMARK    1  A    between atoms: C_2  and  C_3 
REMARK    2  A    between atoms: C_3  and  O_6 
REMARK    3  A    between atoms: C_3  and  C_4 
REMARK    4  A    between atoms: C_7  and  O_6 
REMARK    5  A    between atoms: C_9  and  C_10 
REMARK    6  A    between atoms: N_15  and  C_14 
REMARK    7  A    between atoms: N_20  and  C_19 
REMARK       I    between atoms: C_22  and  N_20 
ROOT
ATOM      1  C   LIG d   1      -0.031  81.792 111.809  0.00  0.00     0.161 C 
ATOM      2  C   LIG d   1       1.011  82.596 112.301  0.00  0.00     0.016 C 
ATOM      3  C   LIG d   1       1.800  82.249 113.421  0.00  0.00     0.038 C 
ATOM      4  C   LIG d   1       1.699  80.993 114.039  0.00  0.00     0.028 C 
ATOM      5  C   LIG d   1       0.321  80.357 113.894  0.00  0.00    -0.047 C 
ATOM      6  C   LIG d   1      -0.083  80.368 112.401  0.00  0.00     0.091 C 
ENDROOT
BRANCH   1   7
ATOM      7  O   LIG d   1       0.034  81.734 110.370  0.00  0.00    -0.368 OA
BRANCH   7   8
ATOM      8  C   LIG d   1       1.221  81.122 109.810  0.00  0.00     0.119 C 
BRANCH   8   9
ATOM      9  C   LIG d   1       1.826  82.121 108.804  0.00  0.00     0.028 C 
ATOM     10  C   LIG d   1       3.118  82.771 109.328  0.00  0.00     0.006 C 
ENDBRANCH   8   9
BRANCH   8  11
ATOM     11  C   LIG d   1       0.872  79.879 108.986  0.00  0.00     0.028 C 
ATOM     12  C   LIG d   1       2.029  79.415 108.088  0.00  0.00     0.006 C 
ENDBRANCH   8  11
ENDBRANCH   7   8
ENDBRANCH   1   7
BRANCH   6  13
ATOM     13  N   LIG d   1      -1.454  79.840 112.181  0.00  0.00    -0.311 N 
ATOM     14  C   LIG d   1      -1.709  78.570 111.868  0.00  0.00     0.210 C 
ATOM     15  C   LIG d   1      -3.191  78.239 111.665  0.00  0.00     0.109 C 
ATOM     16  O   LIG d   1      -0.851  77.680 111.771  0.00  0.00    -0.276 OA
ATOM     17  H   LIG d   1      -2.213  80.487 112.271  0.00  0.00     0.149 HD
ENDBRANCH   6  13
BRANCH   5  18
ATOM     18  N   LIG d   1       0.396  78.997 114.462  0.00  0.00     0.381 N 
ATOM     19  H   LIG d   1      -0.148  78.367 113.906  0.00  0.00    -0.090 HD
ATOM     20  H   LIG d   1       0.011  79.011 115.390  0.00  0.00    -0.090 HD
ATOM     21  H   LIG d   1       1.344  78.692 114.491  0.00  0.00    -0.090 HD
ENDBRANCH   5  18
BRANCH   3  22
ATOM     22  C   LIG d   1       2.676  83.179 113.960  0.00  0.00     0.382 C 
ATOM     23  O   LIG d   1       2.230  84.168 114.591  0.00  0.00    -0.241 OA
ATOM     24  O   LIG d   1       3.904  83.066 113.785  0.00  0.00    -0.241 OA
ENDBRANCH   3  22
TORSDOF 7
ENDMDL
MODEL 9
REMARK VINA RESULT:      -5.3      2.525      3.741
REMARK  7 active torsions:
REMARK  status: ('A' for Active; 'I' for Inactive)
REMARK    1  A    between atoms: C_2  and  C_3 
REMARK    2  A    between atoms: C_3  and  O_6 
REMARK    3  A    between atoms: C_3  and  C_4 
REMARK    4  A    between atoms: C_7  and  O_6 
REMARK    5  A    between atoms: C_9  and  C_10 
REMARK    6  A    between atoms: N_15  and  C_14 
REMARK    7  A    between atoms: N_20  and  C_19 
REMARK       I    between atoms: C_22  and  N_20 
ROOT
ATOM      1  C   LIG d   1       1.428  81.402 112.522  0.00  0.00     0.161 C 
ATOM      2  C   LIG d   1       0.113  81.338 113.012  0.00  0.00     0.016 C 
ATOM      3  C   LIG d   1      -0.890  80.517 112.446  0.00  0.00     0.038 C 
ATOM      4  C   LIG d   1      -0.603  79.586 111.437  0.00  0.00     0.028 C 
ATOM      5  C   LIG d   1       0.591  79.977 110.573  0.00  0.00    -0.047 C 
ATOM      6  C   LIG d   1       1.788  80.310 111.492  0.00  0.00     0.091 C 
ENDROOT
BRANCH   1   7
ATOM      7  O   LIG d   1       2.360  81.382 113.620  0.00  0.00    -0.368 OA
BRANCH   7   8
ATOM      8  C   LIG d   1       1.788  81.204 114.939  0.00  0.00     0.119 C 
BRANCH   8   9
ATOM      9  C   LIG d   1       2.518  82.167 115.895  0.00  0.00     0.028 C 
ATOM     10  C   LIG d   1       3.413  83.170 115.146  0.00  0.00     0.006 C 
ENDBRANCH   8   9
BRANCH   8  11
ATOM     11  C   LIG d   1       2.070  79.801 115.485  0.00  0.00     0.028 C 
ATOM     12  C   LIG d   1       0.791  79.050 115.887  0.00  0.00     0.006 C 
ENDBRANCH   8  11
ENDBRANCH   7   8
ENDBRANCH   1   7
BRANCH   6  13
ATOM     13  N   LIG d   1       2.973  80.784 110.731  0.00  0.00    -0.311 N 
ATOM     14  C   LIG d   1       2.955  81.854 109.938  0.00  0.00     0.210 C 
ATOM     15  C   LIG d   1       4.280  82.156 109.230  0.00  0.00     0.109 C 
ATOM     16  O   LIG d   1       1.978  82.600 109.779  0.00  0.00    -0.276 OA
ATOM     17  H   LIG d   1       3.818  80.255 110.826  0.00  0.00     0.149 HD
ENDBRANCH   6  13
BRANCH   5  18
ATOM     18  N   LIG d   1       0.862  78.855 109.654  0.00  0.00     0.381 N 
ATOM     19  H   LIG d   1       1.276  79.200 108.811  0.00  0.00    -0.090 HD
ATOM     20  H   LIG d   1      -0.007  78.409 109.419  0.00  0.00    -0.090 HD
ATOM     21  H   LIG d   1       1.474  78.199 110.088  0.00  0.00    -0.090 HD
ENDBRANCH   5  18
BRANCH   3  22
ATOM     22  C   LIG d   1      -2.206  80.654 112.862  0.00  0.00     0.382 C 
ATOM     23  O   LIG d   1      -2.799  79.683 113.391  0.00  0.00    -0.241 OA
ATOM     24  O   LIG d   1      -2.820  81.721 112.674  0.00  0.00    -0.241 OA
ENDBRANCH   3  22
TORSDOF 7
ENDMDL
