MODEL 1
REMARK VINA RESULT:      -6.5      0.000      0.000
REMARK  7 active torsions:
REMARK  status: ('A' for Active; 'I' for Inactive)
REMARK    1  A    between atoms: C_2  and  C_3 
REMARK    2  A    between atoms: C_3  and  O_6 
REMARK    3  A    between atoms: C_3  and  C_4 
REMARK    4  A    between atoms: C_7  and  O_6 
REMARK    5  A    between atoms: C_9  and  C_10 
REMARK    6  A    between atoms: N_15  and  C_14 
REMARK    7  A    between atoms: N_20  and  C_19 
REMARK       I    between atoms: C_22  and  N_20 
ROOT
ATOM      1  C   LIG d   1       0.180  82.561 111.102  0.00  0.00     0.161 C 
ATOM      2  C   LIG d   1      -0.935  82.285 111.911  0.00  0.00     0.016 C 
ATOM      3  C   LIG d   1      -1.408  80.977 112.163  0.00  0.00     0.038 C 
ATOM      4  C   LIG d   1      -0.703  79.839 111.743  0.00  0.00     0.028 C 
ATOM      5  C   LIG d   1       0.146  80.079 110.499  0.00  0.00    -0.047 C 
ATOM      6  C   LIG d   1       1.027  81.328 110.726  0.00  0.00     0.091 C 
ENDROOT
BRANCH   1   7
ATOM      7  O   LIG d   1       1.004  83.562 111.731  0.00  0.00    -0.368 OA
BRANCH   7   8
ATOM      8  C   LIG d   1       1.043  84.857 111.082  0.00  0.00     0.119 C 
BRANCH   8   9
ATOM      9  C   LIG d   1       0.198  84.755 109.797  0.00  0.00     0.028 C 
ATOM     10  C   LIG d   1      -0.826  85.897 109.677  0.00  0.00     0.006 C 
ENDBRANCH   8   9
BRANCH   8  11
ATOM     11  C   LIG d   1       2.459  85.201 110.609  0.00  0.00     0.028 C 
ATOM     12  C   LIG d   1       3.535  84.859 111.652  0.00  0.00     0.006 C 
ENDBRANCH   8  11
ENDBRANCH   7   8
ENDBRANCH   1   7
BRANCH   6  13
ATOM     13  N   LIG d   1       1.828  81.682 109.525  0.00  0.00    -0.311 N 
ATOM     14  C   LIG d   1       3.158  81.762 109.528  0.00  0.00     0.210 C 
ATOM     15  C   LIG d   1       3.784  82.162 108.188  0.00  0.00     0.109 C 
ATOM     16  O   LIG d   1       3.879  81.508 110.504  0.00  0.00    -0.276 OA
ATOM     17  H   LIG d   1       1.325  81.874 108.681  0.00  0.00     0.149 HD
ENDBRANCH   6  13
BRANCH   5  18
ATOM     18  N   LIG d   1       0.931  78.854 110.252  0.00  0.00     0.381 N 
ATOM     19  H   LIG d   1       0.442  78.262 109.610  0.00  0.00    -0.090 HD
ATOM     20  H   LIG d   1       1.039  78.358 111.119  0.00  0.00    -0.090 HD
ATOM     21  H   LIG d   1       1.825  79.091 109.883  0.00  0.00    -0.090 HD
ENDBRANCH   5  18
BRANCH   3  22
ATOM     22  C   LIG d   1      -2.622  80.798 112.810  0.00  0.00     0.382 C 
ATOM     23  O   LIG d   1      -2.822  79.765 113.493  0.00  0.00    -0.241 OA
ATOM     24  O   LIG d   1      -3.535  81.635 112.683  0.00  0.00    -0.241 OA
ENDBRANCH   3  22
TORSDOF 7
ENDMDL
MODEL 2
REMARK VINA RESULT:      -6.5      1.706      4.959
REMARK  7 active torsions:
REMARK  status: ('A' for Active; 'I' for Inactive)
REMARK    1  A    between atoms: C_2  and  C_3 
REMARK    2  A    between atoms: C_3  and  O_6 
REMARK    3  A    between atoms: C_3  and  C_4 
REMARK    4  A    between atoms: C_7  and  O_6 
REMARK    5  A    between atoms: C_9  and  C_10 
REMARK    6  A    between atoms: N_15  and  C_14 
REMARK    7  A    between atoms: N_20  and  C_19 
REMARK       I    between atoms: C_22  and  N_20 
ROOT
ATOM      1  C   LIG d   1       1.362  81.627 111.728  0.00  0.00     0.161 C 
ATOM      2  C   LIG d   1       2.211  82.069 110.700  0.00  0.00     0.016 C 
ATOM      3  C   LIG d   1       2.235  81.495 109.408  0.00  0.00     0.038 C 
ATOM      4  C   LIG d   1       1.298  80.531 109.008  0.00  0.00     0.028 C 
ATOM      5  C   LIG d   1       0.753  79.699 110.164  0.00  0.00    -0.047 C 
ATOM      6  C   LIG d   1       0.255  80.651 111.276  0.00  0.00     0.091 C 
ENDROOT
BRANCH   1   7
ATOM      7  O   LIG d   1       0.785  82.759 112.406  0.00  0.00    -0.368 OA
BRANCH   7   8
ATOM      8  C   LIG d   1       0.771  84.006 111.668  0.00  0.00     0.119 C 
BRANCH   8   9
ATOM      9  C   LIG d   1       0.916  85.151 112.689  0.00  0.00     0.028 C 
ATOM     10  C   LIG d   1       1.812  84.766 113.878  0.00  0.00     0.006 C 
ENDBRANCH   8   9
BRANCH   8  11
ATOM     11  C   LIG d   1      -0.584  84.236 110.990  0.00  0.00     0.028 C 
ATOM     12  C   LIG d   1      -0.593  85.478 110.085  0.00  0.00     0.006 C 
ENDBRANCH   8  11
ENDBRANCH   7   8
ENDBRANCH   1   7
BRANCH   6  13
ATOM     13  N   LIG d   1      -0.217  79.918 112.480  0.00  0.00    -0.311 N 
ATOM     14  C   LIG d   1      -1.481  79.932 112.898  0.00  0.00     0.210 C 
ATOM     15  C   LIG d   1      -1.750  79.125 114.172  0.00  0.00     0.109 C 
ATOM     16  O   LIG d   1      -2.412  80.509 112.316  0.00  0.00    -0.276 OA
ATOM     17  H   LIG d   1       0.467  79.398 112.994  0.00  0.00     0.149 HD
ENDBRANCH   6  13
BRANCH   5  18
ATOM     18  N   LIG d   1      -0.312  78.832 109.626  0.00  0.00     0.381 N 
ATOM     19  H   LIG d   1      -1.186  79.319 109.642  0.00  0.00    -0.090 HD
ATOM     20  H   LIG d   1      -0.394  78.018 110.210  0.00  0.00    -0.090 HD
ATOM     21  H   LIG d   1      -0.091  78.560 108.693  0.00  0.00    -0.090 HD
ENDBRANCH   5  18
BRANCH   3  22
ATOM     22  C   LIG d   1       3.231  81.857 108.514  0.00  0.00     0.382 C 
ATOM     23  O   LIG d   1       4.399  81.424 108.667  0.00  0.00    -0.241 OA
ATOM     24  O   LIG d   1       2.986  82.645 107.581  0.00  0.00    -0.241 OA
ENDBRANCH   3  22
TORSDOF 7
ENDMDL
MODEL 3
REMARK VINA RESULT:      -6.2      1.862      4.720
REMARK  7 active torsions:
REMARK  status: ('A' for Active; 'I' for Inactive)
REMARK    1  A    between atoms: C_2  and  C_3 
REMARK    2  A    between atoms: C_3  and  O_6 
REMARK    3  A    between atoms: C_3  and  C_4 
REMARK    4  A    between atoms: C_7  and  O_6 
REMARK    5  A    between atoms: C_9  and  C_10 
REMARK    6  A    between atoms: N_15  and  C_14 
REMARK    7  A    between atoms: N_20  and  C_19 
REMARK       I    between atoms: C_22  and  N_20 
ROOT
ATOM      1  C   LIG d   1       0.712  82.528 110.942  0.00  0.00     0.161 C 
ATOM      2  C   LIG d   1       1.511  82.958 109.870  0.00  0.00     0.016 C 
ATOM      3  C   LIG d   1       2.099  82.075 108.935  0.00  0.00     0.038 C 
ATOM      4  C   LIG d   1       1.801  80.705 108.920  0.00  0.00     0.028 C 
ATOM      5  C   LIG d   1       1.402  80.157 110.286  0.00  0.00    -0.047 C 
ATOM      6  C   LIG d   1       0.285  81.046 110.877  0.00  0.00     0.091 C 
ENDROOT
BRANCH   1   7
ATOM      7  O   LIG d   1      -0.446  83.378 111.060  0.00  0.00    -0.368 OA
BRANCH   7   8
ATOM      8  C   LIG d   1      -0.393  84.387 112.098  0.00  0.00     0.119 C 
BRANCH   8   9
ATOM      9  C   LIG d   1      -0.473  85.764 111.410  0.00  0.00     0.028 C 
ATOM     10  C   LIG d   1      -0.828  85.654 109.918  0.00  0.00     0.006 C 
ENDBRANCH   8   9
BRANCH   8  11
ATOM     11  C   LIG d   1       0.958  84.373 112.820  0.00  0.00     0.028 C 
ATOM     12  C   LIG d   1       1.754  85.672 112.620  0.00  0.00     0.006 C 
ENDBRANCH   8  11
ENDBRANCH   7   8
ENDBRANCH   1   7
BRANCH   6  13
ATOM     13  N   LIG d   1      -0.105  80.630 112.249  0.00  0.00    -0.311 N 
ATOM     14  C   LIG d   1      -1.067  79.743 112.501  0.00  0.00     0.210 C 
ATOM     15  C   LIG d   1      -1.323  79.471 113.986  0.00  0.00     0.109 C 
ATOM     16  O   LIG d   1      -1.710  79.132 111.634  0.00  0.00    -0.276 OA
ATOM     17  H   LIG d   1       0.387  81.053 113.011  0.00  0.00     0.149 HD
ENDBRANCH   6  13
BRANCH   5  18
ATOM     18  N   LIG d   1       0.987  78.754 110.099  0.00  0.00     0.381 N 
ATOM     19  H   LIG d   1       1.792  78.160 110.094  0.00  0.00    -0.090 HD
ATOM     20  H   LIG d   1       0.524  78.667 109.211  0.00  0.00    -0.090 HD
ATOM     21  H   LIG d   1       0.369  78.481 110.832  0.00  0.00    -0.090 HD
ENDBRANCH   5  18
BRANCH   3  22
ATOM     22  C   LIG d   1       3.027  82.557 108.025  0.00  0.00     0.382 C 
ATOM     23  O   LIG d   1       2.641  83.169 107.000  0.00  0.00    -0.241 OA
ATOM     24  O   LIG d   1       4.244  82.349 108.193  0.00  0.00    -0.241 OA
ENDBRANCH   3  22
TORSDOF 7
ENDMDL
MODEL 4
REMARK VINA RESULT:      -6.1      2.372      4.312
REMARK  7 active torsions:
REMARK  status: ('A' for Active; 'I' for Inactive)
REMARK    1  A    between atoms: C_2  and  C_3 
REMARK    2  A    between atoms: C_3  and  O_6 
REMARK    3  A    between atoms: C_3  and  C_4 
REMARK    4  A    between atoms: C_7  and  O_6 
REMARK    5  A    between atoms: C_9  and  C_10 
REMARK    6  A    between atoms: N_15  and  C_14 
REMARK    7  A    between atoms: N_20  and  C_19 
REMARK       I    between atoms: C_22  and  N_20 
ROOT
ATOM      1  C   LIG d   1       1.967  82.779 111.853  0.00  0.00     0.161 C 
ATOM      2  C   LIG d   1       0.911  81.853 111.846  0.00  0.00     0.016 C 
ATOM      3  C   LIG d   1      -0.452  82.227 111.810  0.00  0.00     0.038 C 
ATOM      4  C   LIG d   1      -0.851  83.559 111.626  0.00  0.00     0.028 C 
ATOM      5  C   LIG d   1       0.168  84.572 112.136  0.00  0.00    -0.047 C 
ATOM      6  C   LIG d   1       1.554  84.233 111.541  0.00  0.00     0.091 C 
ENDROOT
BRANCH   1   7
ATOM      7  O   LIG d   1       3.002  82.348 110.949  0.00  0.00    -0.368 OA
BRANCH   7   8
ATOM      8  C   LIG d   1       2.557  81.687 109.739  0.00  0.00     0.119 C 
BRANCH   8   9
ATOM      9  C   LIG d   1       3.315  80.349 109.636  0.00  0.00     0.028 C 
ATOM     10  C   LIG d   1       2.366  79.149 109.474  0.00  0.00     0.006 C 
ENDBRANCH   8   9
BRANCH   8  11
ATOM     11  C   LIG d   1       2.961  82.478 108.491  0.00  0.00     0.028 C 
ATOM     12  C   LIG d   1       1.813  83.332 107.929  0.00  0.00     0.006 C 
ENDBRANCH   8  11
ENDBRANCH   7   8
ENDBRANCH   1   7
BRANCH   6  13
ATOM     13  N   LIG d   1       2.625  85.125 112.055  0.00  0.00    -0.311 N 
ATOM     14  C   LIG d   1       2.858  86.345 111.573  0.00  0.00     0.210 C 
ATOM     15  C   LIG d   1       4.023  87.089 112.232  0.00  0.00     0.109 C 
ATOM     16  O   LIG d   1       2.190  86.893 110.684  0.00  0.00    -0.276 OA
ATOM     17  H   LIG d   1       3.195  84.772 112.799  0.00  0.00     0.149 HD
ENDBRANCH   6  13
BRANCH   5  18
ATOM     18  N   LIG d   1      -0.311  85.915 111.758  0.00  0.00     0.381 N 
ATOM     19  H   LIG d   1       0.344  86.607 112.064  0.00  0.00    -0.090 HD
ATOM     20  H   LIG d   1      -1.189  86.088 112.214  0.00  0.00    -0.090 HD
ATOM     21  H   LIG d   1      -0.426  85.970 110.769  0.00  0.00    -0.090 HD
ENDBRANCH   5  18
BRANCH   3  22
ATOM     22  C   LIG d   1      -1.434  81.265 111.999  0.00  0.00     0.382 C 
ATOM     23  O   LIG d   1      -1.159  80.051 111.846  0.00  0.00    -0.241 OA
ATOM     24  O   LIG d   1      -2.600  81.600 112.279  0.00  0.00    -0.241 OA
ENDBRANCH   3  22
TORSDOF 7
ENDMDL
MODEL 5
REMARK VINA RESULT:      -6.1      2.106      4.532
REMARK  7 active torsions:
REMARK  status: ('A' for Active; 'I' for Inactive)
REMARK    1  A    between atoms: C_2  and  C_3 
REMARK    2  A    between atoms: C_3  and  O_6 
REMARK    3  A    between atoms: C_3  and  C_4 
REMARK    4  A    between atoms: C_7  and  O_6 
REMARK    5  A    between atoms: C_9  and  C_10 
REMARK    6  A    between atoms: N_15  and  C_14 
REMARK    7  A    between atoms: N_20  and  C_19 
REMARK       I    between atoms: C_22  and  N_20 
ROOT
ATOM      1  C   LIG d   1       1.133  82.918 110.077  0.00  0.00     0.161 C 
ATOM      2  C   LIG d   1       1.049  84.303 110.299  0.00  0.00     0.016 C 
ATOM      3  C   LIG d   1       0.087  84.898 111.146  0.00  0.00     0.038 C 
ATOM      4  C   LIG d   1      -0.767  84.131 111.952  0.00  0.00     0.028 C 
ATOM      5  C   LIG d   1      -1.057  82.747 111.382  0.00  0.00    -0.047 C 
ATOM      6  C   LIG d   1       0.282  82.057 111.034  0.00  0.00     0.091 C 
ENDROOT
BRANCH   1   7
ATOM      7  O   LIG d   1       2.512  82.499 110.119  0.00  0.00    -0.368 OA
BRANCH   7   8
ATOM      8  C   LIG d   1       3.441  83.288 109.336  0.00  0.00     0.119 C 
BRANCH   8   9
ATOM      9  C   LIG d   1       4.075  82.353 108.288  0.00  0.00     0.028 C 
ATOM     10  C   LIG d   1       4.153  80.896 108.773  0.00  0.00     0.006 C 
ENDBRANCH   8   9
BRANCH   8  11
ATOM     11  C   LIG d   1       4.609  83.786 110.193  0.00  0.00     0.028 C 
ATOM     12  C   LIG d   1       4.181  84.836 111.231  0.00  0.00     0.006 C 
ENDBRANCH   8  11
ENDBRANCH   7   8
ENDBRANCH   1   7
BRANCH   6  13
ATOM     13  N   LIG d   1       0.087  80.731 110.392  0.00  0.00    -0.311 N 
ATOM     14  C   LIG d   1      -0.229  79.628 111.069  0.00  0.00     0.210 C 
ATOM     15  C   LIG d   1      -0.364  78.363 110.216  0.00  0.00     0.109 C 
ATOM     16  O   LIG d   1      -0.441  79.584 112.290  0.00  0.00    -0.276 OA
ATOM     17  H   LIG d   1       0.209  80.682 109.399  0.00  0.00     0.149 HD
ENDBRANCH   6  13
BRANCH   5  18
ATOM     18  N   LIG d   1      -1.844  82.007 112.387  0.00  0.00     0.381 N 
ATOM     19  H   LIG d   1      -2.638  81.583 111.950  0.00  0.00    -0.090 HD
ATOM     20  H   LIG d   1      -2.174  82.653 113.082  0.00  0.00    -0.090 HD
ATOM     21  H   LIG d   1      -1.279  81.307 112.815  0.00  0.00    -0.090 HD
ENDBRANCH   5  18
BRANCH   3  22
ATOM     22  C   LIG d   1      -0.055  86.277 111.162  0.00  0.00     0.382 C 
ATOM     23  O   LIG d   1       0.941  87.008 111.382  0.00  0.00    -0.241 OA
ATOM     24  O   LIG d   1      -1.175  86.799 111.004  0.00  0.00    -0.241 OA
ENDBRANCH   3  22
TORSDOF 7
ENDMDL
MODEL 6
REMARK VINA RESULT:      -5.6      2.048      4.117
REMARK  7 active torsions:
REMARK  status: ('A' for Active; 'I' for Inactive)
REMARK    1  A    between atoms: C_2  and  C_3 
REMARK    2  A    between atoms: C_3  and  O_6 
REMARK    3  A    between atoms: C_3  and  C_4 
REMARK    4  A    between atoms: C_7  and  O_6 
REMARK    5  A    between atoms: C_9  and  C_10 
REMARK    6  A    between atoms: N_15  and  C_14 
REMARK    7  A    between atoms: N_20  and  C_19 
REMARK       I    between atoms: C_22  and  N_20 
ROOT
ATOM      1  C   LIG d   1       1.618  82.146 110.943  0.00  0.00     0.161 C 
ATOM      2  C   LIG d   1       0.712  81.193 111.439  0.00  0.00     0.016 C 
ATOM      3  C   LIG d   1      -0.555  81.527 111.970  0.00  0.00     0.038 C 
ATOM      4  C   LIG d   1      -1.067  82.831 111.903  0.00  0.00     0.028 C 
ATOM      5  C   LIG d   1       0.014  83.905 111.871  0.00  0.00    -0.047 C 
ATOM      6  C   LIG d   1       1.031  83.561 110.759  0.00  0.00     0.091 C 
ENDROOT
BRANCH   1   7
ATOM      7  O   LIG d   1       2.192  81.676 109.707  0.00  0.00    -0.368 OA
BRANCH   7   8
ATOM      8  C   LIG d   1       3.471  81.004 109.813  0.00  0.00     0.119 C 
BRANCH   8   9
ATOM      9  C   LIG d   1       4.383  81.566 108.705  0.00  0.00     0.028 C 
ATOM     10  C   LIG d   1       4.883  82.986 109.021  0.00  0.00     0.006 C 
ENDBRANCH   8   9
BRANCH   8  11
ATOM     11  C   LIG d   1       3.341  79.508 109.511  0.00  0.00     0.028 C 
ATOM     12  C   LIG d   1       2.039  79.161 108.772  0.00  0.00     0.006 C 
ENDBRANCH   8  11
ENDBRANCH   7   8
ENDBRANCH   1   7
BRANCH   6  13
ATOM     13  N   LIG d   1       2.169  84.517 110.714  0.00  0.00    -0.311 N 
ATOM     14  C   LIG d   1       2.954  84.770 111.760  0.00  0.00     0.210 C 
ATOM     15  C   LIG d   1       4.056  85.804 111.505  0.00  0.00     0.109 C 
ATOM     16  O   LIG d   1       2.863  84.214 112.864  0.00  0.00    -0.276 OA
ATOM     17  H   LIG d   1       2.333  84.990 109.848  0.00  0.00     0.149 HD
ENDBRANCH   6  13
BRANCH   5  18
ATOM     18  N   LIG d   1      -0.654  85.204 111.661  0.00  0.00     0.381 N 
ATOM     19  H   LIG d   1      -0.603  85.459 110.695  0.00  0.00    -0.090 HD
ATOM     20  H   LIG d   1      -0.176  85.906 112.198  0.00  0.00    -0.090 HD
ATOM     21  H   LIG d   1      -1.606  85.147 111.948  0.00  0.00    -0.090 HD
ENDBRANCH   5  18
BRANCH   3  22
ATOM     22  C   LIG d   1      -1.307  80.556 112.614  0.00  0.00     0.382 C 
ATOM     23  O   LIG d   1      -2.512  80.390 112.306  0.00  0.00    -0.241 OA
ATOM     24  O   LIG d   1      -0.809  79.875 113.530  0.00  0.00    -0.241 OA
ENDBRANCH   3  22
TORSDOF 7
ENDMDL
MODEL 7
REMARK VINA RESULT:      -5.5      2.526      4.387
REMARK  7 active torsions:
REMARK  status: ('A' for Active; 'I' for Inactive)
REMARK    1  A    between atoms: C_2  and  C_3 
REMARK    2  A    between atoms: C_3  and  O_6 
REMARK    3  A    between atoms: C_3  and  C_4 
REMARK    4  A    between atoms: C_7  and  O_6 
REMARK    5  A    between atoms: C_9  and  C_10 
REMARK    6  A    between atoms: N_15  and  C_14 
REMARK    7  A    between atoms: N_20  and  C_19 
REMARK       I    between atoms: C_22  and  N_20 
ROOT
ATOM      1  C   LIG d   1       1.578  82.210 110.375  0.00  0.00     0.161 C 
ATOM      2  C   LIG d   1       1.904  81.035 109.677  0.00  0.00     0.016 C 
ATOM      3  C   LIG d   1       1.219  79.811 109.852  0.00  0.00     0.038 C 
ATOM      4  C   LIG d   1       0.056  79.717 110.630  0.00  0.00     0.028 C 
ATOM      5  C   LIG d   1      -0.012  80.754 111.746  0.00  0.00    -0.047 C 
ATOM      6  C   LIG d   1       0.242  82.155 111.145  0.00  0.00     0.091 C 
ENDROOT
BRANCH   1   7
ATOM      7  O   LIG d   1       1.590  83.334 109.472  0.00  0.00    -0.368 OA
BRANCH   7   8
ATOM      8  C   LIG d   1       2.756  84.191 109.537  0.00  0.00     0.119 C 
BRANCH   8   9
ATOM      9  C   LIG d   1       3.904  83.366 110.149  0.00  0.00     0.028 C 
ATOM     10  C   LIG d   1       4.923  82.905 109.094  0.00  0.00     0.006 C 
ENDBRANCH   8   9
BRANCH   8  11
ATOM     11  C   LIG d   1       2.536  85.359 110.503  0.00  0.00     0.028 C 
ATOM     12  C   LIG d   1       3.480  85.315 111.715  0.00  0.00     0.006 C 
ENDBRANCH   8  11
ENDBRANCH   7   8
ENDBRANCH   1   7
BRANCH   6  13
ATOM     13  N   LIG d   1       0.277  83.219 112.182  0.00  0.00    -0.311 N 
ATOM     14  C   LIG d   1      -0.349  84.387 112.055  0.00  0.00     0.210 C 
ATOM     15  C   LIG d   1      -0.168  85.350 113.233  0.00  0.00     0.109 C 
ATOM     16  O   LIG d   1      -1.064  84.706 111.093  0.00  0.00    -0.276 OA
ATOM     17  H   LIG d   1       0.809  83.032 113.010  0.00  0.00     0.149 HD
ENDBRANCH   6  13
BRANCH   5  18
ATOM     18  N   LIG d   1      -1.334  80.631 112.389  0.00  0.00     0.381 N 
ATOM     19  H   LIG d   1      -1.722  79.730 112.195  0.00  0.00    -0.090 HD
ATOM     20  H   LIG d   1      -1.947  81.328 112.006  0.00  0.00    -0.090 HD
ATOM     21  H   LIG d   1      -1.247  80.759 113.373  0.00  0.00    -0.090 HD
ENDBRANCH   5  18
BRANCH   3  22
ATOM     22  C   LIG d   1       1.721  78.654 109.275  0.00  0.00     0.382 C 
ATOM     23  O   LIG d   1       2.216  78.692 108.123  0.00  0.00    -0.241 OA
ATOM     24  O   LIG d   1       1.645  77.565 109.874  0.00  0.00    -0.241 OA
ENDBRANCH   3  22
TORSDOF 7
ENDMDL
MODEL 8
REMARK VINA RESULT:      -5.5      2.044      4.819
REMARK  7 active torsions:
REMARK  status: ('A' for Active; 'I' for Inactive)
REMARK    1  A    between atoms: C_2  and  C_3 
REMARK    2  A    between atoms: C_3  and  O_6 
REMARK    3  A    between atoms: C_3  and  C_4 
REMARK    4  A    between atoms: C_7  and  O_6 
REMARK    5  A    between atoms: C_9  and  C_10 
REMARK    6  A    between atoms: N_15  and  C_14 
REMARK    7  A    between atoms: N_20  and  C_19 
REMARK       I    between atoms: C_22  and  N_20 
ROOT
ATOM      1  C   LIG d   1       0.189  82.028 111.491  0.00  0.00     0.161 C 
ATOM      2  C   LIG d   1      -0.520  83.198 111.810  0.00  0.00     0.016 C 
ATOM      3  C   LIG d   1      -0.198  84.470 111.285  0.00  0.00     0.038 C 
ATOM      4  C   LIG d   1       0.768  84.635 110.281  0.00  0.00     0.028 C 
ATOM      5  C   LIG d   1       1.849  83.560 110.298  0.00  0.00    -0.047 C 
ATOM      6  C   LIG d   1       1.174  82.170 110.312  0.00  0.00     0.091 C 
ENDROOT
BRANCH   1   7
ATOM      7  O   LIG d   1      -0.735  80.949 111.245  0.00  0.00    -0.368 OA
BRANCH   7   8
ATOM      8  C   LIG d   1      -0.708  79.857 112.197  0.00  0.00     0.119 C 
BRANCH   8   9
ATOM      9  C   LIG d   1      -1.228  78.600 111.474  0.00  0.00     0.028 C 
ATOM     10  C   LIG d   1      -0.523  78.362 110.128  0.00  0.00     0.006 C 
ENDBRANCH   8   9
BRANCH   8  11
ATOM     11  C   LIG d   1      -1.688  80.098 113.349  0.00  0.00     0.028 C 
ATOM     12  C   LIG d   1      -3.022  80.699 112.880  0.00  0.00     0.006 C 
ENDBRANCH   8  11
ENDBRANCH   7   8
ENDBRANCH   1   7
BRANCH   6  13
ATOM     13  N   LIG d   1       2.160  81.062 110.414  0.00  0.00    -0.311 N 
ATOM     14  C   LIG d   1       2.376  80.181 109.439  0.00  0.00     0.210 C 
ATOM     15  C   LIG d   1       3.421  79.107 109.757  0.00  0.00     0.109 C 
ATOM     16  O   LIG d   1       1.824  80.206 108.328  0.00  0.00    -0.276 OA
ATOM     17  H   LIG d   1       2.674  80.987 111.269  0.00  0.00     0.149 HD
ENDBRANCH   6  13
BRANCH   5  18
ATOM     18  N   LIG d   1       2.708  83.774 109.118  0.00  0.00     0.381 N 
ATOM     19  H   LIG d   1       3.227  84.622 109.225  0.00  0.00    -0.090 HD
ATOM     20  H   LIG d   1       2.126  83.861 108.303  0.00  0.00    -0.090 HD
ATOM     21  H   LIG d   1       3.333  83.006 109.007  0.00  0.00    -0.090 HD
ENDBRANCH   5  18
BRANCH   3  22
ATOM     22  C   LIG d   1      -0.818  85.601 111.795  0.00  0.00     0.382 C 
ATOM     23  O   LIG d   1      -1.137  85.648 113.007  0.00  0.00    -0.241 OA
ATOM     24  O   LIG d   1      -1.101  86.557 111.048  0.00  0.00    -0.241 OA
ENDBRANCH   3  22
TORSDOF 7
ENDMDL
MODEL 9
REMARK VINA RESULT:      -5.3      2.191      5.391
REMARK  7 active torsions:
REMARK  status: ('A' for Active; 'I' for Inactive)
REMARK    1  A    between atoms: C_2  and  C_3 
REMARK    2  A    between atoms: C_3  and  O_6 
REMARK    3  A    between atoms: C_3  and  C_4 
REMARK    4  A    between atoms: C_7  and  O_6 
REMARK    5  A    between atoms: C_9  and  C_10 
REMARK    6  A    between atoms: N_15  and  C_14 
REMARK    7  A    between atoms: N_20  and  C_19 
REMARK       I    between atoms: C_22  and  N_20 
ROOT
ATOM      1  C   LIG d   1       0.055  81.624 110.792  0.00  0.00     0.161 C 
ATOM      2  C   LIG d   1       0.766  80.448 110.505  0.00  0.00     0.016 C 
ATOM      3  C   LIG d   1       2.117  80.438 110.086  0.00  0.00     0.038 C 
ATOM      4  C   LIG d   1       2.897  81.603 110.071  0.00  0.00     0.028 C 
ATOM      5  C   LIG d   1       2.082  82.876 109.868  0.00  0.00    -0.047 C 
ATOM      6  C   LIG d   1       0.922  82.897 110.889  0.00  0.00     0.091 C 
ENDROOT
BRANCH   1   7
ATOM      7  O   LIG d   1      -0.713  81.448 111.999  0.00  0.00    -0.368 OA
BRANCH   7   8
ATOM      8  C   LIG d   1      -0.933  80.080 112.421  0.00  0.00     0.119 C 
BRANCH   8   9
ATOM      9  C   LIG d   1      -2.456  79.846 112.459  0.00  0.00     0.028 C 
ATOM     10  C   LIG d   1      -3.236  81.119 112.826  0.00  0.00     0.006 C 
ENDBRANCH   8   9
BRANCH   8  11
ATOM     11  C   LIG d   1      -0.452  79.855 113.858  0.00  0.00     0.028 C 
ATOM     12  C   LIG d   1      -1.177  78.692 114.554  0.00  0.00     0.006 C 
ENDBRANCH   8  11
ENDBRANCH   7   8
ENDBRANCH   1   7
BRANCH   6  13
ATOM     13  N   LIG d   1       0.024  84.067 110.704  0.00  0.00    -0.311 N 
ATOM     14  C   LIG d   1       0.187  85.224 111.343  0.00  0.00     0.210 C 
ATOM     15  C   LIG d   1      -0.862  86.294 111.022  0.00  0.00     0.109 C 
ATOM     16  O   LIG d   1       1.119  85.477 112.122  0.00  0.00    -0.276 OA
ATOM     17  H   LIG d   1      -0.740  83.960 110.066  0.00  0.00     0.149 HD
ENDBRANCH   6  13
BRANCH   5  18
ATOM     18  N   LIG d   1       3.000  84.021 110.011  0.00  0.00     0.381 N 
ATOM     19  H   LIG d   1       3.431  83.998 110.913  0.00  0.00    -0.090 HD
ATOM     20  H   LIG d   1       2.471  84.873 109.936  0.00  0.00    -0.090 HD
ATOM     21  H   LIG d   1       3.697  83.991 109.300  0.00  0.00    -0.090 HD
ENDBRANCH   5  18
BRANCH   3  22
ATOM     22  C   LIG d   1       2.688  79.257 109.637  0.00  0.00     0.382 C 
ATOM     23  O   LIG d   1       1.963  78.263 109.391  0.00  0.00    -0.241 OA
ATOM     24  O   LIG d   1       3.924  79.158 109.519  0.00  0.00    -0.241 OA
ENDBRANCH   3  22
TORSDOF 7
ENDMDL
