MODEL 1
REMARK VINA RESULT:      -6.2      0.000      0.000
REMARK  7 active torsions:
REMARK  status: ('A' for Active; 'I' for Inactive)
REMARK    1  A    between atoms: C_2  and  C_3 
REMARK    2  A    between atoms: C_3  and  O_6 
REMARK    3  A    between atoms: C_3  and  C_4 
REMARK    4  A    between atoms: C_7  and  O_6 
REMARK    5  A    between atoms: C_9  and  C_10 
REMARK    6  A    between atoms: N_15  and  C_14 
REMARK    7  A    between atoms: N_20  and  C_19 
REMARK       I    between atoms: C_22  and  N_20 
ROOT
ATOM      1  C   LIG d   1       2.682  84.902 110.350  0.00  0.00     0.161 C 
ATOM      2  C   LIG d   1       1.614  85.792 110.552  0.00  0.00     0.016 C 
ATOM      3  C   LIG d   1       0.259  85.389 110.574  0.00  0.00     0.038 C 
ATOM      4  C   LIG d   1      -0.113  84.036 110.545  0.00  0.00     0.028 C 
ATOM      5  C   LIG d   1       0.899  83.145 109.835  0.00  0.00    -0.047 C 
ATOM      6  C   LIG d   1       2.302  83.408 110.427  0.00  0.00     0.091 C 
ENDROOT
BRANCH   1   7
ATOM      7  O   LIG d   1       3.746  85.197 111.275  0.00  0.00    -0.368 OA
BRANCH   7   8
ATOM      8  C   LIG d   1       3.399  86.049 112.395  0.00  0.00     0.119 C 
BRANCH   8   9
ATOM      9  C   LIG d   1       4.472  87.152 112.486  0.00  0.00     0.028 C 
ATOM     10  C   LIG d   1       3.992  88.371 113.292  0.00  0.00     0.006 C 
ENDBRANCH   8   9
BRANCH   8  11
ATOM     11  C   LIG d   1       3.485  85.289 113.721  0.00  0.00     0.028 C 
ATOM     12  C   LIG d   1       2.113  84.820 114.229  0.00  0.00     0.006 C 
ENDBRANCH   8  11
ENDBRANCH   7   8
ENDBRANCH   1   7
BRANCH   6  13
ATOM     13  N   LIG d   1       3.365  82.638 109.731  0.00  0.00    -0.311 N 
ATOM     14  C   LIG d   1       3.905  81.523 110.222  0.00  0.00     0.210 C 
ATOM     15  C   LIG d   1       5.000  80.897 109.353  0.00  0.00     0.109 C 
ATOM     16  O   LIG d   1       3.557  80.976 111.279  0.00  0.00    -0.276 OA
ATOM     17  H   LIG d   1       3.685  82.993 108.851  0.00  0.00     0.149 HD
ENDBRANCH   6  13
BRANCH   5  18
ATOM     18  N   LIG d   1       0.455  81.748 109.998  0.00  0.00     0.381 N 
ATOM     19  H   LIG d   1      -0.452  81.728 110.419  0.00  0.00    -0.090 HD
ATOM     20  H   LIG d   1       1.096  81.272 110.609  0.00  0.00    -0.090 HD
ATOM     21  H   LIG d   1       0.429  81.292 109.113  0.00  0.00    -0.090 HD
ENDBRANCH   5  18
BRANCH   3  22
ATOM     22  C   LIG d   1      -0.743  86.347 110.586  0.00  0.00     0.382 C 
ATOM     23  O   LIG d   1      -1.605  86.364 109.675  0.00  0.00    -0.241 OA
ATOM     24  O   LIG d   1      -0.770  87.222 111.472  0.00  0.00    -0.241 OA
ENDBRANCH   3  22
TORSDOF 7
ENDMDL
MODEL 2
REMARK VINA RESULT:      -5.8     12.968     14.548
REMARK  7 active torsions:
REMARK  status: ('A' for Active; 'I' for Inactive)
REMARK    1  A    between atoms: C_2  and  C_3 
REMARK    2  A    between atoms: C_3  and  O_6 
REMARK    3  A    between atoms: C_3  and  C_4 
REMARK    4  A    between atoms: C_7  and  O_6 
REMARK    5  A    between atoms: C_9  and  C_10 
REMARK    6  A    between atoms: N_15  and  C_14 
REMARK    7  A    between atoms: N_20  and  C_19 
REMARK       I    between atoms: C_22  and  N_20 
ROOT
ATOM      1  C   LIG d   1      -7.219  75.820 117.659  0.00  0.00     0.161 C 
ATOM      2  C   LIG d   1      -8.447  76.460 117.899  0.00  0.00     0.016 C 
ATOM      3  C   LIG d   1      -8.604  77.865 117.902  0.00  0.00     0.038 C 
ATOM      4  C   LIG d   1      -7.569  78.728 117.513  0.00  0.00     0.028 C 
ATOM      5  C   LIG d   1      -6.178  78.152 117.753  0.00  0.00    -0.047 C 
ATOM      6  C   LIG d   1      -6.103  76.742 117.123  0.00  0.00     0.091 C 
ENDROOT
BRANCH   1   7
ATOM      7  O   LIG d   1      -7.416  74.703 116.769  0.00  0.00    -0.368 OA
BRANCH   7   8
ATOM      8  C   LIG d   1      -7.380  73.389 117.379  0.00  0.00     0.119 C 
BRANCH   8   9
ATOM      9  C   LIG d   1      -6.637  72.450 116.409  0.00  0.00     0.028 C 
ATOM     10  C   LIG d   1      -5.587  73.190 115.564  0.00  0.00     0.006 C 
ENDBRANCH   8   9
BRANCH   8  11
ATOM     11  C   LIG d   1      -8.786  72.800 117.517  0.00  0.00     0.028 C 
ATOM     12  C   LIG d   1      -8.813  71.274 117.338  0.00  0.00     0.006 C 
ENDBRANCH   8  11
ENDBRANCH   7   8
ENDBRANCH   1   7
BRANCH   6  13
ATOM     13  N   LIG d   1      -4.803  76.072 117.385  0.00  0.00    -0.311 N 
ATOM     14  C   LIG d   1      -3.768  76.129 116.549  0.00  0.00     0.210 C 
ATOM     15  C   LIG d   1      -2.528  75.351 117.001  0.00  0.00     0.109 C 
ATOM     16  O   LIG d   1      -3.748  76.776 115.491  0.00  0.00    -0.276 OA
ATOM     17  H   LIG d   1      -4.721  75.551 118.236  0.00  0.00     0.149 HD
ENDBRANCH   6  13
BRANCH   5  18
ATOM     18  N   LIG d   1      -5.200  79.094 117.178  0.00  0.00     0.381 N 
ATOM     19  H   LIG d   1      -5.657  79.702 116.528  0.00  0.00    -0.090 HD
ATOM     20  H   LIG d   1      -4.498  78.572 116.682  0.00  0.00    -0.090 HD
ATOM     21  H   LIG d   1      -4.775  79.630 117.902  0.00  0.00    -0.090 HD
ENDBRANCH   5  18
BRANCH   3  22
ATOM     22  C   LIG d   1      -9.798  78.422 118.335  0.00  0.00     0.382 C 
ATOM     23  O   LIG d   1     -10.701  77.685 118.801  0.00  0.00    -0.241 OA
ATOM     24  O   LIG d   1     -10.001  79.646 118.226  0.00  0.00    -0.241 OA
ENDBRANCH   3  22
TORSDOF 7
ENDMDL
MODEL 3
REMARK VINA RESULT:      -5.8     12.806     14.514
REMARK  7 active torsions:
REMARK  status: ('A' for Active; 'I' for Inactive)
REMARK    1  A    between atoms: C_2  and  C_3 
REMARK    2  A    between atoms: C_3  and  O_6 
REMARK    3  A    between atoms: C_3  and  C_4 
REMARK    4  A    between atoms: C_7  and  O_6 
REMARK    5  A    between atoms: C_9  and  C_10 
REMARK    6  A    between atoms: N_15  and  C_14 
REMARK    7  A    between atoms: N_20  and  C_19 
REMARK       I    between atoms: C_22  and  N_20 
ROOT
ATOM      1  C   LIG d   1      -6.660  75.817 116.811  0.00  0.00     0.161 C 
ATOM      2  C   LIG d   1      -5.720  76.435 115.970  0.00  0.00     0.016 C 
ATOM      3  C   LIG d   1      -4.879  75.722 115.086  0.00  0.00     0.038 C 
ATOM      4  C   LIG d   1      -5.027  74.343 114.872  0.00  0.00     0.028 C 
ATOM      5  C   LIG d   1      -5.619  73.605 116.068  0.00  0.00    -0.047 C 
ATOM      6  C   LIG d   1      -6.913  74.324 116.511  0.00  0.00     0.091 C 
ENDROOT
BRANCH   1   7
ATOM      7  O   LIG d   1      -7.900  76.551 116.781  0.00  0.00    -0.368 OA
BRANCH   7   8
ATOM      8  C   LIG d   1      -8.189  77.362 117.946  0.00  0.00     0.119 C 
BRANCH   8   9
ATOM      9  C   LIG d   1      -9.678  77.167 118.290  0.00  0.00     0.028 C 
ATOM     10  C   LIG d   1      -9.955  77.295 119.797  0.00  0.00     0.006 C 
ENDBRANCH   8   9
BRANCH   8  11
ATOM     11  C   LIG d   1      -8.036  78.855 117.638  0.00  0.00     0.028 C 
ATOM     12  C   LIG d   1      -6.643  79.397 117.992  0.00  0.00     0.006 C 
ENDBRANCH   8  11
ENDBRANCH   7   8
ENDBRANCH   1   7
BRANCH   6  13
ATOM     13  N   LIG d   1      -7.512  73.716 117.728  0.00  0.00    -0.311 N 
ATOM     14  C   LIG d   1      -8.325  72.662 117.696  0.00  0.00     0.210 C 
ATOM     15  C   LIG d   1      -8.847  72.207 119.063  0.00  0.00     0.109 C 
ATOM     16  O   LIG d   1      -8.639  72.041 116.669  0.00  0.00    -0.276 OA
ATOM     17  H   LIG d   1      -7.285  74.138 118.607  0.00  0.00     0.149 HD
ENDBRANCH   6  13
BRANCH   5  18
ATOM     18  N   LIG d   1      -5.846  72.206 115.660  0.00  0.00     0.381 N 
ATOM     19  H   LIG d   1      -6.827  72.010 115.653  0.00  0.00    -0.090 HD
ATOM     20  H   LIG d   1      -5.408  71.597 116.328  0.00  0.00    -0.090 HD
ATOM     21  H   LIG d   1      -5.462  72.048 114.754  0.00  0.00    -0.090 HD
ENDBRANCH   5  18
BRANCH   3  22
ATOM     22  C   LIG d   1      -3.849  76.383 114.434  0.00  0.00     0.382 C 
ATOM     23  O   LIG d   1      -4.099  77.109 113.442  0.00  0.00    -0.241 OA
ATOM     24  O   LIG d   1      -2.668  76.227 114.799  0.00  0.00    -0.241 OA
ENDBRANCH   3  22
TORSDOF 7
ENDMDL
MODEL 4
REMARK VINA RESULT:      -5.8      2.185      3.374
REMARK  7 active torsions:
REMARK  status: ('A' for Active; 'I' for Inactive)
REMARK    1  A    between atoms: C_2  and  C_3 
REMARK    2  A    between atoms: C_3  and  O_6 
REMARK    3  A    between atoms: C_3  and  C_4 
REMARK    4  A    between atoms: C_7  and  O_6 
REMARK    5  A    between atoms: C_9  and  C_10 
REMARK    6  A    between atoms: N_15  and  C_14 
REMARK    7  A    between atoms: N_20  and  C_19 
REMARK       I    between atoms: C_22  and  N_20 
ROOT
ATOM      1  C   LIG d   1       3.704  84.105 112.124  0.00  0.00     0.161 C 
ATOM      2  C   LIG d   1       3.593  85.436 112.560  0.00  0.00     0.016 C 
ATOM      3  C   LIG d   1       2.700  86.370 111.988  0.00  0.00     0.038 C 
ATOM      4  C   LIG d   1       1.743  85.993 111.034  0.00  0.00     0.028 C 
ATOM      5  C   LIG d   1       2.159  84.782 110.205  0.00  0.00    -0.047 C 
ATOM      6  C   LIG d   1       2.591  83.646 111.159  0.00  0.00     0.091 C 
ENDROOT
BRANCH   1   7
ATOM      7  O   LIG d   1       3.778  83.223 113.261  0.00  0.00    -0.368 OA
BRANCH   7   8
ATOM      8  C   LIG d   1       2.538  82.999 113.976  0.00  0.00     0.119 C 
BRANCH   8   9
ATOM      9  C   LIG d   1       2.781  83.370 115.452  0.00  0.00     0.028 C 
ATOM     10  C   LIG d   1       2.125  84.707 115.837  0.00  0.00     0.006 C 
ENDBRANCH   8   9
BRANCH   8  11
ATOM     11  C   LIG d   1       2.161  81.515 113.987  0.00  0.00     0.028 C 
ATOM     12  C   LIG d   1       2.425  80.844 115.344  0.00  0.00     0.006 C 
ENDBRANCH   8  11
ENDBRANCH   7   8
ENDBRANCH   1   7
BRANCH   6  13
ATOM     13  N   LIG d   1       3.093  82.453 110.429  0.00  0.00    -0.311 N 
ATOM     14  C   LIG d   1       2.346  81.378 110.179  0.00  0.00     0.210 C 
ATOM     15  C   LIG d   1       3.065  80.252 109.429  0.00  0.00     0.109 C 
ATOM     16  O   LIG d   1       1.148  81.265 110.478  0.00  0.00    -0.276 OA
ATOM     17  H   LIG d   1       4.046  82.473 110.122  0.00  0.00     0.149 HD
ENDBRANCH   6  13
BRANCH   5  18
ATOM     18  N   LIG d   1       1.015  84.415 109.349  0.00  0.00     0.381 N 
ATOM     19  H   LIG d   1       0.378  83.840 109.863  0.00  0.00    -0.090 HD
ATOM     20  H   LIG d   1       1.354  83.887 108.564  0.00  0.00    -0.090 HD
ATOM     21  H   LIG d   1       0.550  85.236 109.030  0.00  0.00    -0.090 HD
ENDBRANCH   5  18
BRANCH   3  22
ATOM     22  C   LIG d   1       2.785  87.708 112.341  0.00  0.00     0.382 C 
ATOM     23  O   LIG d   1       3.881  88.188 112.718  0.00  0.00    -0.241 OA
ATOM     24  O   LIG d   1       1.770  88.431 112.331  0.00  0.00    -0.241 OA
ENDBRANCH   3  22
TORSDOF 7
ENDMDL
MODEL 5
REMARK VINA RESULT:      -5.6      3.091      5.522
REMARK  7 active torsions:
REMARK  status: ('A' for Active; 'I' for Inactive)
REMARK    1  A    between atoms: C_2  and  C_3 
REMARK    2  A    between atoms: C_3  and  O_6 
REMARK    3  A    between atoms: C_3  and  C_4 
REMARK    4  A    between atoms: C_7  and  O_6 
REMARK    5  A    between atoms: C_9  and  C_10 
REMARK    6  A    between atoms: N_15  and  C_14 
REMARK    7  A    between atoms: N_20  and  C_19 
REMARK       I    between atoms: C_22  and  N_20 
ROOT
ATOM      1  C   LIG d   1       3.278  84.144 112.909  0.00  0.00     0.161 C 
ATOM      2  C   LIG d   1       3.619  85.445 112.502  0.00  0.00     0.016 C 
ATOM      3  C   LIG d   1       3.824  86.514 113.404  0.00  0.00     0.038 C 
ATOM      4  C   LIG d   1       3.851  86.317 114.793  0.00  0.00     0.028 C 
ATOM      5  C   LIG d   1       3.014  85.128 115.252  0.00  0.00    -0.047 C 
ATOM      6  C   LIG d   1       3.412  83.885 114.424  0.00  0.00     0.091 C 
ENDROOT
BRANCH   1   7
ATOM      7  O   LIG d   1       4.051  83.181 112.165  0.00  0.00    -0.368 OA
BRANCH   7   8
ATOM      8  C   LIG d   1       3.424  82.641 110.976  0.00  0.00     0.119 C 
BRANCH   8   9
ATOM      9  C   LIG d   1       2.676  81.359 111.389  0.00  0.00     0.028 C 
ATOM     10  C   LIG d   1       1.148  81.523 111.323  0.00  0.00     0.006 C 
ENDBRANCH   8   9
BRANCH   8  11
ATOM     11  C   LIG d   1       4.468  82.190 109.951  0.00  0.00     0.028 C 
ATOM     12  C   LIG d   1       4.432  80.675 109.692  0.00  0.00     0.006 C 
ENDBRANCH   8  11
ENDBRANCH   7   8
ENDBRANCH   1   7
BRANCH   6  13
ATOM     13  N   LIG d   1       2.582  82.696 114.752  0.00  0.00    -0.311 N 
ATOM     14  C   LIG d   1       2.980  81.729 115.576  0.00  0.00     0.210 C 
ATOM     15  C   LIG d   1       1.979  80.584 115.761  0.00  0.00     0.109 C 
ATOM     16  O   LIG d   1       4.054  81.726 116.197  0.00  0.00    -0.276 OA
ATOM     17  H   LIG d   1       1.682  82.634 114.316  0.00  0.00     0.149 HD
ENDBRANCH   6  13
BRANCH   5  18
ATOM     18  N   LIG d   1       3.242  84.956 116.699  0.00  0.00     0.381 N 
ATOM     19  H   LIG d   1       3.162  85.839 117.162  0.00  0.00    -0.090 HD
ATOM     20  H   LIG d   1       4.173  84.607 116.843  0.00  0.00    -0.090 HD
ATOM     21  H   LIG d   1       2.578  84.314 117.075  0.00  0.00    -0.090 HD
ENDBRANCH   5  18
BRANCH   3  22
ATOM     22  C   LIG d   1       3.966  87.805 112.919  0.00  0.00     0.382 C 
ATOM     23  O   LIG d   1       2.952  88.516 112.721  0.00  0.00    -0.241 OA
ATOM     24  O   LIG d   1       5.094  88.252 112.634  0.00  0.00    -0.241 OA
ENDBRANCH   3  22
TORSDOF 7
ENDMDL
MODEL 6
REMARK VINA RESULT:      -5.4      2.637      4.718
REMARK  7 active torsions:
REMARK  status: ('A' for Active; 'I' for Inactive)
REMARK    1  A    between atoms: C_2  and  C_3 
REMARK    2  A    between atoms: C_3  and  O_6 
REMARK    3  A    between atoms: C_3  and  C_4 
REMARK    4  A    between atoms: C_7  and  O_6 
REMARK    5  A    between atoms: C_9  and  C_10 
REMARK    6  A    between atoms: N_15  and  C_14 
REMARK    7  A    between atoms: N_20  and  C_19 
REMARK       I    between atoms: C_22  and  N_20 
ROOT
ATOM      1  C   LIG d   1       0.863  83.675 112.695  0.00  0.00     0.161 C 
ATOM      2  C   LIG d   1       0.182  84.387 111.694  0.00  0.00     0.016 C 
ATOM      3  C   LIG d   1       0.069  85.796 111.682  0.00  0.00     0.038 C 
ATOM      4  C   LIG d   1       0.762  86.604 112.595  0.00  0.00     0.028 C 
ATOM      5  C   LIG d   1       1.049  85.909 113.922  0.00  0.00    -0.047 C 
ATOM      6  C   LIG d   1       1.719  84.545 113.639  0.00  0.00     0.091 C 
ENDROOT
BRANCH   1   7
ATOM      7  O   LIG d   1       1.670  82.641 112.097  0.00  0.00    -0.368 OA
BRANCH   7   8
ATOM      8  C   LIG d   1       1.800  82.688 110.655  0.00  0.00     0.119 C 
BRANCH   8   9
ATOM      9  C   LIG d   1       1.556  81.263 110.122  0.00  0.00     0.028 C 
ATOM     10  C   LIG d   1       2.861  80.465 109.964  0.00  0.00     0.006 C 
ENDBRANCH   8   9
BRANCH   8  11
ATOM     11  C   LIG d   1       3.230  83.039 110.235  0.00  0.00     0.028 C 
ATOM     12  C   LIG d   1       3.537  84.540 110.360  0.00  0.00     0.006 C 
ENDBRANCH   8  11
ENDBRANCH   7   8
ENDBRANCH   1   7
BRANCH   6  13
ATOM     13  N   LIG d   1       1.958  83.763 114.880  0.00  0.00    -0.311 N 
ATOM     14  C   LIG d   1       3.163  83.343 115.262  0.00  0.00     0.210 C 
ATOM     15  C   LIG d   1       3.184  82.535 116.563  0.00  0.00     0.109 C 
ATOM     16  O   LIG d   1       4.221  83.592 114.664  0.00  0.00    -0.276 OA
ATOM     17  H   LIG d   1       1.158  83.543 115.442  0.00  0.00     0.149 HD
ENDBRANCH   6  13
BRANCH   5  18
ATOM     18  N   LIG d   1       1.893  86.813 114.725  0.00  0.00     0.381 N 
ATOM     19  H   LIG d   1       2.562  87.266 114.135  0.00  0.00    -0.090 HD
ATOM     20  H   LIG d   1       2.392  86.271 115.409  0.00  0.00    -0.090 HD
ATOM     21  H   LIG d   1       1.327  87.494 115.180  0.00  0.00    -0.090 HD
ENDBRANCH   5  18
BRANCH   3  22
ATOM     22  C   LIG d   1      -0.778  86.409 110.771  0.00  0.00     0.382 C 
ATOM     23  O   LIG d   1      -1.570  87.304 111.155  0.00  0.00    -0.241 OA
ATOM     24  O   LIG d   1      -0.792  86.049 109.579  0.00  0.00    -0.241 OA
ENDBRANCH   3  22
TORSDOF 7
ENDMDL
MODEL 7
REMARK VINA RESULT:      -5.4      2.767      4.498
REMARK  7 active torsions:
REMARK  status: ('A' for Active; 'I' for Inactive)
REMARK    1  A    between atoms: C_2  and  C_3 
REMARK    2  A    between atoms: C_3  and  O_6 
REMARK    3  A    between atoms: C_3  and  C_4 
REMARK    4  A    between atoms: C_7  and  O_6 
REMARK    5  A    between atoms: C_9  and  C_10 
REMARK    6  A    between atoms: N_15  and  C_14 
REMARK    7  A    between atoms: N_20  and  C_19 
REMARK       I    between atoms: C_22  and  N_20 
ROOT
ATOM      1  C   LIG d   1       2.426  84.677 113.090  0.00  0.00     0.161 C 
ATOM      2  C   LIG d   1       2.847  85.924 113.583  0.00  0.00     0.016 C 
ATOM      3  C   LIG d   1       2.614  87.145 112.909  0.00  0.00     0.038 C 
ATOM      4  C   LIG d   1       1.807  87.218 111.764  0.00  0.00     0.028 C 
ATOM      5  C   LIG d   1       1.785  85.926 110.955  0.00  0.00    -0.047 C 
ATOM      6  C   LIG d   1       1.448  84.749 111.899  0.00  0.00     0.091 C 
ENDROOT
BRANCH   1   7
ATOM      7  O   LIG d   1       1.857  83.896 114.159  0.00  0.00    -0.368 OA
BRANCH   7   8
ATOM      8  C   LIG d   1       2.749  82.956 114.807  0.00  0.00     0.119 C 
BRANCH   8   9
ATOM      9  C   LIG d   1       2.308  81.539 114.391  0.00  0.00     0.028 C 
ATOM     10  C   LIG d   1       2.204  80.581 115.591  0.00  0.00     0.006 C 
ENDBRANCH   8   9
BRANCH   8  11
ATOM     11  C   LIG d   1       2.594  82.998 116.330  0.00  0.00     0.028 C 
ATOM     12  C   LIG d   1       2.070  84.351 116.838  0.00  0.00     0.006 C 
ENDBRANCH   8  11
ENDBRANCH   7   8
ENDBRANCH   1   7
BRANCH   6  13
ATOM     13  N   LIG d   1       1.488  83.436 111.204  0.00  0.00    -0.311 N 
ATOM     14  C   LIG d   1       0.405  82.826 110.726  0.00  0.00     0.210 C 
ATOM     15  C   LIG d   1       0.666  81.470 110.062  0.00  0.00     0.109 C 
ATOM     16  O   LIG d   1      -0.743  83.294 110.759  0.00  0.00    -0.276 OA
ATOM     17  H   LIG d   1       2.384  82.999 111.105  0.00  0.00     0.149 HD
ENDBRANCH   6  13
BRANCH   5  18
ATOM     18  N   LIG d   1       0.801  86.097 109.870  0.00  0.00     0.381 N 
ATOM     19  H   LIG d   1       0.108  86.765 110.143  0.00  0.00    -0.090 HD
ATOM     20  H   LIG d   1       0.343  85.218 109.705  0.00  0.00    -0.090 HD
ATOM     21  H   LIG d   1       1.258  86.402 109.039  0.00  0.00    -0.090 HD
ENDBRANCH   5  18
BRANCH   3  22
ATOM     22  C   LIG d   1       3.226  88.305 113.360  0.00  0.00     0.382 C 
ATOM     23  O   LIG d   1       4.266  88.725 112.797  0.00  0.00    -0.241 OA
ATOM     24  O   LIG d   1       2.776  88.913 114.350  0.00  0.00    -0.241 OA
ENDBRANCH   3  22
TORSDOF 7
ENDMDL
MODEL 8
REMARK VINA RESULT:      -5.4      3.035      4.979
REMARK  7 active torsions:
REMARK  status: ('A' for Active; 'I' for Inactive)
REMARK    1  A    between atoms: C_2  and  C_3 
REMARK    2  A    between atoms: C_3  and  O_6 
REMARK    3  A    between atoms: C_3  and  C_4 
REMARK    4  A    between atoms: C_7  and  O_6 
REMARK    5  A    between atoms: C_9  and  C_10 
REMARK    6  A    between atoms: N_15  and  C_14 
REMARK    7  A    between atoms: N_20  and  C_19 
REMARK       I    between atoms: C_22  and  N_20 
ROOT
ATOM      1  C   LIG d   1       3.013  85.271 113.611  0.00  0.00     0.161 C 
ATOM      2  C   LIG d   1       3.796  86.422 113.801  0.00  0.00     0.016 C 
ATOM      3  C   LIG d   1       3.547  87.650 113.146  0.00  0.00     0.038 C 
ATOM      4  C   LIG d   1       2.400  87.854 112.366  0.00  0.00     0.028 C 
ATOM      5  C   LIG d   1       1.854  86.574 111.743  0.00  0.00    -0.047 C 
ATOM      6  C   LIG d   1       1.691  85.507 112.850  0.00  0.00     0.091 C 
ENDROOT
BRANCH   1   7
ATOM      7  O   LIG d   1       2.753  84.641 114.881  0.00  0.00    -0.368 OA
BRANCH   7   8
ATOM      8  C   LIG d   1       2.999  85.452 116.057  0.00  0.00     0.119 C 
BRANCH   8   9
ATOM      9  C   LIG d   1       3.784  84.587 117.061  0.00  0.00     0.028 C 
ATOM     10  C   LIG d   1       4.672  83.541 116.365  0.00  0.00     0.006 C 
ENDBRANCH   8   9
BRANCH   8  11
ATOM     11  C   LIG d   1       1.691  85.813 116.768  0.00  0.00     0.028 C 
ATOM     12  C   LIG d   1       1.128  87.173 116.327  0.00  0.00     0.006 C 
ENDBRANCH   8  11
ENDBRANCH   7   8
ENDBRANCH   1   7
BRANCH   6  13
ATOM     13  N   LIG d   1       1.242  84.197 112.313  0.00  0.00    -0.311 N 
ATOM     14  C   LIG d   1      -0.040  83.865 112.167  0.00  0.00     0.210 C 
ATOM     15  C   LIG d   1      -0.285  82.457 111.614  0.00  0.00     0.109 C 
ATOM     16  O   LIG d   1      -0.997  84.614 112.414  0.00  0.00    -0.276 OA
ATOM     17  H   LIG d   1       1.953  83.540 112.058  0.00  0.00     0.149 HD
ENDBRANCH   6  13
BRANCH   5  18
ATOM     18  N   LIG d   1       0.584  86.910 111.073  0.00  0.00     0.381 N 
ATOM     19  H   LIG d   1       0.169  87.708 111.513  0.00  0.00    -0.090 HD
ATOM     20  H   LIG d   1      -0.049  86.135 111.167  0.00  0.00    -0.090 HD
ATOM     21  H   LIG d   1       0.747  87.101 110.109  0.00  0.00    -0.090 HD
ENDBRANCH   5  18
BRANCH   3  22
ATOM     22  C   LIG d   1       4.474  88.677 113.236  0.00  0.00     0.382 C 
ATOM     23  O   LIG d   1       4.164  89.753 113.802  0.00  0.00    -0.241 OA
ATOM     24  O   LIG d   1       5.602  88.557 112.720  0.00  0.00    -0.241 OA
ENDBRANCH   3  22
TORSDOF 7
ENDMDL
MODEL 9
REMARK VINA RESULT:      -5.3     12.296     13.784
REMARK  7 active torsions:
REMARK  status: ('A' for Active; 'I' for Inactive)
REMARK    1  A    between atoms: C_2  and  C_3 
REMARK    2  A    between atoms: C_3  and  O_6 
REMARK    3  A    between atoms: C_3  and  C_4 
REMARK    4  A    between atoms: C_7  and  O_6 
REMARK    5  A    between atoms: C_9  and  C_10 
REMARK    6  A    between atoms: N_15  and  C_14 
REMARK    7  A    between atoms: N_20  and  C_19 
REMARK       I    between atoms: C_22  and  N_20 
ROOT
ATOM      1  C   LIG d   1      -6.665  77.681 117.279  0.00  0.00     0.161 C 
ATOM      2  C   LIG d   1      -6.619  79.084 117.342  0.00  0.00     0.016 C 
ATOM      3  C   LIG d   1      -7.681  79.877 117.834  0.00  0.00     0.038 C 
ATOM      4  C   LIG d   1      -8.811  79.308 118.441  0.00  0.00     0.028 C 
ATOM      5  C   LIG d   1      -9.123  77.902 117.942  0.00  0.00    -0.047 C 
ATOM      6  C   LIG d   1      -7.844  77.039 118.040  0.00  0.00     0.091 C 
ENDROOT
BRANCH   1   7
ATOM      7  O   LIG d   1      -5.414  77.130 117.736  0.00  0.00    -0.368 OA
BRANCH   7   8
ATOM      8  C   LIG d   1      -4.483  76.721 116.704  0.00  0.00     0.119 C 
BRANCH   8   9
ATOM      9  C   LIG d   1      -4.869  75.293 116.273  0.00  0.00     0.028 C 
ATOM     10  C   LIG d   1      -5.420  75.242 114.838  0.00  0.00     0.006 C 
ENDBRANCH   8   9
BRANCH   8  11
ATOM     11  C   LIG d   1      -3.058  76.608 117.253  0.00  0.00     0.028 C 
ATOM     12  C   LIG d   1      -2.588  75.152 117.394  0.00  0.00     0.006 C 
ENDBRANCH   8  11
ENDBRANCH   7   8
ENDBRANCH   1   7
BRANCH   6  13
ATOM     13  N   LIG d   1      -8.040  75.671 117.493  0.00  0.00    -0.311 N 
ATOM     14  C   LIG d   1      -8.358  74.619 118.246  0.00  0.00     0.210 C 
ATOM     15  C   LIG d   1      -8.493  73.296 117.485  0.00  0.00     0.109 C 
ATOM     16  O   LIG d   1      -8.572  74.662 119.467  0.00  0.00    -0.276 OA
ATOM     17  H   LIG d   1      -7.917  75.552 116.507  0.00  0.00     0.149 HD
ENDBRANCH   6  13
BRANCH   5  18
ATOM     18  N   LIG d   1     -10.237  77.378 118.755  0.00  0.00     0.381 N 
ATOM     19  H   LIG d   1     -10.446  78.017 119.496  0.00  0.00    -0.090 HD
ATOM     20  H   LIG d   1      -9.959  76.502 119.162  0.00  0.00    -0.090 HD
ATOM     21  H   LIG d   1     -11.043  77.246 118.184  0.00  0.00    -0.090 HD
ENDBRANCH   5  18
BRANCH   3  22
ATOM     22  C   LIG d   1      -7.637  81.255 117.684  0.00  0.00     0.382 C 
ATOM     23  O   LIG d   1      -8.403  81.983 118.359  0.00  0.00    -0.241 OA
ATOM     24  O   LIG d   1      -6.872  81.775 116.850  0.00  0.00    -0.241 OA
ENDBRANCH   3  22
TORSDOF 7
ENDMDL
