MODEL 1
REMARK VINA RESULT:      -4.4      0.000      0.000
REMARK  7 active torsions:
REMARK  status: ('A' for Active; 'I' for Inactive)
REMARK    1  A    between atoms: C_2  and  C_3 
REMARK    2  A    between atoms: C_3  and  O_6 
REMARK    3  A    between atoms: C_3  and  C_4 
REMARK    4  A    between atoms: C_7  and  O_6 
REMARK    5  A    between atoms: C_9  and  C_10 
REMARK    6  A    between atoms: N_15  and  C_14 
REMARK    7  A    between atoms: N_20  and  C_19 
REMARK       I    between atoms: C_22  and  N_20 
ROOT
ATOM      1  C   LIG d   1      -5.959  93.130 120.556  0.00  0.00     0.161 C 
ATOM      2  C   LIG d   1      -7.185  93.009 119.882  0.00  0.00     0.016 C 
ATOM      3  C   LIG d   1      -7.787  94.069 119.165  0.00  0.00     0.038 C 
ATOM      4  C   LIG d   1      -7.125  95.287 118.948  0.00  0.00     0.028 C 
ATOM      5  C   LIG d   1      -6.110  95.627 120.034  0.00  0.00    -0.047 C 
ATOM      6  C   LIG d   1      -5.170  94.417 120.238  0.00  0.00     0.091 C 
ENDROOT
BRANCH   1   7
ATOM      7  O   LIG d   1      -5.146  91.967 120.304  0.00  0.00    -0.368 OA
BRANCH   7   8
ATOM      8  C   LIG d   1      -4.317  92.015 119.116  0.00  0.00     0.119 C 
BRANCH   8   9
ATOM      9  C   LIG d   1      -4.659  90.779 118.263  0.00  0.00     0.028 C 
ATOM     10  C   LIG d   1      -5.711  91.084 117.183  0.00  0.00     0.006 C 
ENDBRANCH   8   9
BRANCH   8  11
ATOM     11  C   LIG d   1      -2.833  91.868 119.466  0.00  0.00     0.028 C 
ATOM     12  C   LIG d   1      -2.606  91.363 120.900  0.00  0.00     0.006 C 
ENDBRANCH   8  11
ENDBRANCH   7   8
ENDBRANCH   1   7
BRANCH   6  13
ATOM     13  N   LIG d   1      -4.198  94.634 121.341  0.00  0.00    -0.311 N 
ATOM     14  C   LIG d   1      -2.971  95.116 121.154  0.00  0.00     0.210 C 
ATOM     15  C   LIG d   1      -2.125  95.242 122.424  0.00  0.00     0.109 C 
ATOM     16  O   LIG d   1      -2.515  95.482 120.060  0.00  0.00    -0.276 OA
ATOM     17  H   LIG d   1      -4.497  94.392 122.266  0.00  0.00     0.149 HD
ENDBRANCH   6  13
BRANCH   5  18
ATOM     18  N   LIG d   1      -5.398  96.848 119.612  0.00  0.00     0.381 N 
ATOM     19  H   LIG d   1      -6.040  97.483 119.181  0.00  0.00    -0.090 HD
ATOM     20  H   LIG d   1      -4.699  96.599 118.934  0.00  0.00    -0.090 HD
ATOM     21  H   LIG d   1      -4.968  97.281 120.399  0.00  0.00    -0.090 HD
ENDBRANCH   5  18
BRANCH   3  22
ATOM     22  C   LIG d   1      -9.083  93.930 118.691  0.00  0.00     0.382 C 
ATOM     23  O   LIG d   1      -9.941  93.326 119.380  0.00  0.00    -0.241 OA
ATOM     24  O   LIG d   1      -9.393  94.362 117.565  0.00  0.00    -0.241 OA
ENDBRANCH   3  22
TORSDOF 7
ENDMDL
MODEL 2
REMARK VINA RESULT:      -4.3     26.614     28.874
REMARK  7 active torsions:
REMARK  status: ('A' for Active; 'I' for Inactive)
REMARK    1  A    between atoms: C_2  and  C_3 
REMARK    2  A    between atoms: C_3  and  O_6 
REMARK    3  A    between atoms: C_3  and  C_4 
REMARK    4  A    between atoms: C_7  and  O_6 
REMARK    5  A    between atoms: C_9  and  C_10 
REMARK    6  A    between atoms: N_15  and  C_14 
REMARK    7  A    between atoms: N_20  and  C_19 
REMARK       I    between atoms: C_22  and  N_20 
ROOT
ATOM      1  C   LIG d   1     -12.387  66.618 121.958  0.00  0.00     0.161 C 
ATOM      2  C   LIG d   1     -11.180  66.672 122.675  0.00  0.00     0.016 C 
ATOM      3  C   LIG d   1     -10.327  65.557 122.847  0.00  0.00     0.038 C 
ATOM      4  C   LIG d   1     -10.550  64.343 122.181  0.00  0.00     0.028 C 
ATOM      5  C   LIG d   1     -12.019  64.092 121.855  0.00  0.00    -0.047 C 
ATOM      6  C   LIG d   1     -12.591  65.331 121.131  0.00  0.00     0.091 C 
ENDROOT
BRANCH   1   7
ATOM      7  O   LIG d   1     -12.506  67.780 121.113  0.00  0.00    -0.368 OA
BRANCH   7   8
ATOM      8  C   LIG d   1     -13.173  68.926 121.696  0.00  0.00     0.119 C 
BRANCH   8   9
ATOM      9  C   LIG d   1     -14.499  69.126 120.936  0.00  0.00     0.028 C 
ATOM     10  C   LIG d   1     -14.480  68.473 119.543  0.00  0.00     0.006 C 
ENDBRANCH   8   9
BRANCH   8  11
ATOM     11  C   LIG d   1     -12.376  70.213 121.466  0.00  0.00     0.028 C 
ATOM     12  C   LIG d   1     -11.196  70.018 120.501  0.00  0.00     0.006 C 
ENDBRANCH   8  11
ENDBRANCH   7   8
ENDBRANCH   1   7
BRANCH   6  13
ATOM     13  N   LIG d   1     -14.045  65.203 120.851  0.00  0.00    -0.311 N 
ATOM     14  C   LIG d   1     -14.532  64.734 119.703  0.00  0.00     0.210 C 
ATOM     15  C   LIG d   1     -16.061  64.704 119.614  0.00  0.00     0.109 C 
ATOM     16  O   LIG d   1     -13.843  64.310 118.763  0.00  0.00    -0.276 OA
ATOM     17  H   LIG d   1     -14.676  65.495 121.572  0.00  0.00     0.149 HD
ENDBRANCH   6  13
BRANCH   5  18
ATOM     18  N   LIG d   1     -12.091  62.863 121.042  0.00  0.00     0.381 N 
ATOM     19  H   LIG d   1     -12.874  62.912 120.422  0.00  0.00    -0.090 HD
ATOM     20  H   LIG d   1     -12.222  62.076 121.654  0.00  0.00    -0.090 HD
ATOM     21  H   LIG d   1     -11.250  62.750 120.520  0.00  0.00    -0.090 HD
ENDBRANCH   5  18
BRANCH   3  22
ATOM     22  C   LIG d   1      -9.257  65.640 123.725  0.00  0.00     0.382 C 
ATOM     23  O   LIG d   1      -8.383  64.740 123.734  0.00  0.00    -0.241 OA
ATOM     24  O   LIG d   1      -9.179  66.580 124.539  0.00  0.00    -0.241 OA
ENDBRANCH   3  22
TORSDOF 7
ENDMDL
MODEL 3
REMARK VINA RESULT:      -4.3     34.132     36.121
REMARK  7 active torsions:
REMARK  status: ('A' for Active; 'I' for Inactive)
REMARK    1  A    between atoms: C_2  and  C_3 
REMARK    2  A    between atoms: C_3  and  O_6 
REMARK    3  A    between atoms: C_3  and  C_4 
REMARK    4  A    between atoms: C_7  and  O_6 
REMARK    5  A    between atoms: C_9  and  C_10 
REMARK    6  A    between atoms: N_15  and  C_14 
REMARK    7  A    between atoms: N_20  and  C_19 
REMARK       I    between atoms: C_22  and  N_20 
ROOT
ATOM      1  C   LIG d   1       1.281  58.969 118.699  0.00  0.00     0.161 C 
ATOM      2  C   LIG d   1       2.411  59.062 119.528  0.00  0.00     0.016 C 
ATOM      3  C   LIG d   1       2.362  59.536 120.859  0.00  0.00     0.038 C 
ATOM      4  C   LIG d   1       1.148  59.810 121.505  0.00  0.00     0.028 C 
ATOM      5  C   LIG d   1       0.030  60.212 120.549  0.00  0.00    -0.047 C 
ATOM      6  C   LIG d   1      -0.069  59.158 119.422  0.00  0.00     0.091 C 
ENDROOT
BRANCH   1   7
ATOM      7  O   LIG d   1       1.298  57.715 117.989  0.00  0.00    -0.368 OA
BRANCH   7   8
ATOM      8  C   LIG d   1       1.926  56.603 118.673  0.00  0.00     0.119 C 
BRANCH   8   9
ATOM      9  C   LIG d   1       2.841  55.892 117.657  0.00  0.00     0.028 C 
ATOM     10  C   LIG d   1       4.090  55.286 118.317  0.00  0.00     0.006 C 
ENDBRANCH   8   9
BRANCH   8  11
ATOM     11  C   LIG d   1       0.894  55.553 119.093  0.00  0.00     0.028 C 
ATOM     12  C   LIG d   1       0.486  55.676 120.570  0.00  0.00     0.006 C 
ENDBRANCH   8  11
ENDBRANCH   7   8
ENDBRANCH   1   7
BRANCH   6  13
ATOM     13  N   LIG d   1      -1.082  59.519 118.396  0.00  0.00    -0.311 N 
ATOM     14  C   LIG d   1      -2.323  59.036 118.389  0.00  0.00     0.210 C 
ATOM     15  C   LIG d   1      -3.200  59.522 117.231  0.00  0.00     0.109 C 
ATOM     16  O   LIG d   1      -2.791  58.277 119.251  0.00  0.00    -0.276 OA
ATOM     17  H   LIG d   1      -0.796  60.155 117.677  0.00  0.00     0.149 HD
ENDBRANCH   6  13
BRANCH   5  18
ATOM     18  N   LIG d   1      -1.210  60.333 121.338  0.00  0.00     0.381 N 
ATOM     19  H   LIG d   1      -1.150  59.757 122.153  0.00  0.00    -0.090 HD
ATOM     20  H   LIG d   1      -1.982  60.013 120.781  0.00  0.00    -0.090 HD
ATOM     21  H   LIG d   1      -1.354  61.283 121.603  0.00  0.00    -0.090 HD
ENDBRANCH   5  18
BRANCH   3  22
ATOM     22  C   LIG d   1       3.543  59.779 121.546  0.00  0.00     0.382 C 
ATOM     23  O   LIG d   1       4.470  58.935 121.516  0.00  0.00    -0.241 OA
ATOM     24  O   LIG d   1       3.674  60.811 122.231  0.00  0.00    -0.241 OA
ENDBRANCH   3  22
TORSDOF 7
ENDMDL
MODEL 4
REMARK VINA RESULT:      -4.3      2.681      4.271
REMARK  7 active torsions:
REMARK  status: ('A' for Active; 'I' for Inactive)
REMARK    1  A    between atoms: C_2  and  C_3 
REMARK    2  A    between atoms: C_3  and  O_6 
REMARK    3  A    between atoms: C_3  and  C_4 
REMARK    4  A    between atoms: C_7  and  O_6 
REMARK    5  A    between atoms: C_9  and  C_10 
REMARK    6  A    between atoms: N_15  and  C_14 
REMARK    7  A    between atoms: N_20  and  C_19 
REMARK       I    between atoms: C_22  and  N_20 
ROOT
ATOM      1  C   LIG d   1      -6.925  93.056 120.990  0.00  0.00     0.161 C 
ATOM      2  C   LIG d   1      -8.193  93.577 121.298  0.00  0.00     0.016 C 
ATOM      3  C   LIG d   1      -9.194  93.812 120.328  0.00  0.00     0.038 C 
ATOM      4  C   LIG d   1      -9.047  93.398 118.995  0.00  0.00     0.028 C 
ATOM      5  C   LIG d   1      -7.593  93.330 118.539  0.00  0.00    -0.047 C 
ATOM      6  C   LIG d   1      -6.786  92.495 119.559  0.00  0.00     0.091 C 
ENDROOT
BRANCH   1   7
ATOM      7  O   LIG d   1      -6.560  92.053 121.959  0.00  0.00    -0.368 OA
BRANCH   7   8
ATOM      8  C   LIG d   1      -6.375  92.518 123.318  0.00  0.00     0.119 C 
BRANCH   8   9
ATOM      9  C   LIG d   1      -4.858  92.597 123.577  0.00  0.00     0.028 C 
ATOM     10  C   LIG d   1      -4.068  91.560 122.761  0.00  0.00     0.006 C 
ENDBRANCH   8   9
BRANCH   8  11
ATOM     11  C   LIG d   1      -6.906  91.500 124.333  0.00  0.00     0.028 C 
ATOM     12  C   LIG d   1      -8.179  90.787 123.850  0.00  0.00     0.006 C 
ENDBRANCH   8  11
ENDBRANCH   7   8
ENDBRANCH   1   7
BRANCH   6  13
ATOM     13  N   LIG d   1      -5.337  92.447 119.233  0.00  0.00    -0.311 N 
ATOM     14  C   LIG d   1      -4.784  91.493 118.487  0.00  0.00     0.210 C 
ATOM     15  C   LIG d   1      -3.271  91.622 118.289  0.00  0.00     0.109 C 
ATOM     16  O   LIG d   1      -5.409  90.569 117.943  0.00  0.00    -0.276 OA
ATOM     17  H   LIG d   1      -4.761  93.176 119.607  0.00  0.00     0.149 HD
ENDBRANCH   6  13
BRANCH   5  18
ATOM     18  N   LIG d   1      -7.580  92.754 117.181  0.00  0.00     0.381 N 
ATOM     19  H   LIG d   1      -8.014  91.853 117.190  0.00  0.00    -0.090 HD
ATOM     20  H   LIG d   1      -6.626  92.641 116.886  0.00  0.00    -0.090 HD
ATOM     21  H   LIG d   1      -8.061  93.357 116.550  0.00  0.00    -0.090 HD
ENDBRANCH   5  18
BRANCH   3  22
ATOM     22  C   LIG d   1     -10.342  94.505 120.679  0.00  0.00     0.382 C 
ATOM     23  O   LIG d   1     -11.110  94.939 119.788  0.00  0.00    -0.241 OA
ATOM     24  O   LIG d   1     -10.597  94.740 121.876  0.00  0.00    -0.241 OA
ENDBRANCH   3  22
TORSDOF 7
ENDMDL
MODEL 5
REMARK VINA RESULT:      -4.2     10.827     12.557
REMARK  7 active torsions:
REMARK  status: ('A' for Active; 'I' for Inactive)
REMARK    1  A    between atoms: C_2  and  C_3 
REMARK    2  A    between atoms: C_3  and  O_6 
REMARK    3  A    between atoms: C_3  and  C_4 
REMARK    4  A    between atoms: C_7  and  O_6 
REMARK    5  A    between atoms: C_9  and  C_10 
REMARK    6  A    between atoms: N_15  and  C_14 
REMARK    7  A    between atoms: N_20  and  C_19 
REMARK       I    between atoms: C_22  and  N_20 
ROOT
ATOM      1  C   LIG d   1      -7.003  82.658 118.928  0.00  0.00     0.161 C 
ATOM      2  C   LIG d   1      -8.311  82.176 118.753  0.00  0.00     0.016 C 
ATOM      3  C   LIG d   1      -8.605  80.883 118.262  0.00  0.00     0.038 C 
ATOM      4  C   LIG d   1      -7.603  79.923 118.056  0.00  0.00     0.028 C 
ATOM      5  C   LIG d   1      -6.240  80.529 117.739  0.00  0.00    -0.047 C 
ATOM      6  C   LIG d   1      -5.899  81.586 118.813  0.00  0.00     0.091 C 
ENDROOT
BRANCH   1   7
ATOM      7  O   LIG d   1      -6.902  83.349 120.189  0.00  0.00    -0.368 OA
BRANCH   7   8
ATOM      8  C   LIG d   1      -7.784  82.887 121.241  0.00  0.00     0.119 C 
BRANCH   8   9
ATOM      9  C   LIG d   1      -8.456  84.127 121.860  0.00  0.00     0.028 C 
ATOM     10  C   LIG d   1      -9.913  84.297 121.396  0.00  0.00     0.006 C 
ENDBRANCH   8   9
BRANCH   8  11
ATOM     11  C   LIG d   1      -6.996  82.240 122.385  0.00  0.00     0.028 C 
ATOM     12  C   LIG d   1      -5.506  82.619 122.370  0.00  0.00     0.006 C 
ENDBRANCH   8  11
ENDBRANCH   7   8
ENDBRANCH   1   7
BRANCH   6  13
ATOM     13  N   LIG d   1      -4.619  82.288 118.532  0.00  0.00    -0.311 N 
ATOM     14  C   LIG d   1      -3.457  81.942 119.083  0.00  0.00     0.210 C 
ATOM     15  C   LIG d   1      -2.263  82.810 118.672  0.00  0.00     0.109 C 
ATOM     16  O   LIG d   1      -3.295  80.979 119.847  0.00  0.00    -0.276 OA
ATOM     17  H   LIG d   1      -4.653  83.062 117.898  0.00  0.00     0.149 HD
ENDBRANCH   6  13
BRANCH   5  18
ATOM     18  N   LIG d   1      -5.263  79.424 117.684  0.00  0.00     0.381 N 
ATOM     19  H   LIG d   1      -5.721  78.581 117.400  0.00  0.00    -0.090 HD
ATOM     20  H   LIG d   1      -4.881  79.283 118.602  0.00  0.00    -0.090 HD
ATOM     21  H   LIG d   1      -4.534  79.646 117.042  0.00  0.00    -0.090 HD
ENDBRANCH   5  18
BRANCH   3  22
ATOM     22  C   LIG d   1      -9.911  80.552 117.936  0.00  0.00     0.382 C 
ATOM     23  O   LIG d   1     -10.324  79.381 118.113  0.00  0.00    -0.241 OA
ATOM     24  O   LIG d   1     -10.668  81.399 117.425  0.00  0.00    -0.241 OA
ENDBRANCH   3  22
TORSDOF 7
ENDMDL
MODEL 6
REMARK VINA RESULT:      -4.1      2.657      5.898
REMARK  7 active torsions:
REMARK  status: ('A' for Active; 'I' for Inactive)
REMARK    1  A    between atoms: C_2  and  C_3 
REMARK    2  A    between atoms: C_3  and  O_6 
REMARK    3  A    between atoms: C_3  and  C_4 
REMARK    4  A    between atoms: C_7  and  O_6 
REMARK    5  A    between atoms: C_9  and  C_10 
REMARK    6  A    between atoms: N_15  and  C_14 
REMARK    7  A    between atoms: N_20  and  C_19 
REMARK       I    between atoms: C_22  and  N_20 
ROOT
ATOM      1  C   LIG d   1      -3.347  92.309 120.237  0.00  0.00     0.161 C 
ATOM      2  C   LIG d   1      -2.175  91.892 119.584  0.00  0.00     0.016 C 
ATOM      3  C   LIG d   1      -2.171  91.261 118.319  0.00  0.00     0.038 C 
ATOM      4  C   LIG d   1      -3.337  91.138 117.548  0.00  0.00     0.028 C 
ATOM      5  C   LIG d   1      -4.613  91.088 118.383  0.00  0.00    -0.047 C 
ATOM      6  C   LIG d   1      -4.618  92.283 119.363  0.00  0.00     0.091 C 
ENDROOT
BRANCH   1   7
ATOM      7  O   LIG d   1      -3.152  93.621 120.801  0.00  0.00    -0.368 OA
BRANCH   7   8
ATOM      8  C   LIG d   1      -3.249  94.732 119.876  0.00  0.00     0.119 C 
BRANCH   8   9
ATOM      9  C   LIG d   1      -1.929  95.523 119.963  0.00  0.00     0.028 C 
ATOM     10  C   LIG d   1      -1.071  95.102 121.168  0.00  0.00     0.006 C 
ENDBRANCH   8   9
BRANCH   8  11
ATOM     11  C   LIG d   1      -4.341  95.718 120.303  0.00  0.00     0.028 C 
ATOM     12  C   LIG d   1      -4.828  95.482 121.741  0.00  0.00     0.006 C 
ENDBRANCH   8  11
ENDBRANCH   7   8
ENDBRANCH   1   7
BRANCH   6  13
ATOM     13  N   LIG d   1      -5.791  92.263 120.276  0.00  0.00    -0.311 N 
ATOM     14  C   LIG d   1      -6.933  92.898 120.017  0.00  0.00     0.210 C 
ATOM     15  C   LIG d   1      -8.008  92.763 121.100  0.00  0.00     0.109 C 
ATOM     16  O   LIG d   1      -7.169  93.532 118.978  0.00  0.00    -0.276 OA
ATOM     17  H   LIG d   1      -5.697  91.745 121.128  0.00  0.00     0.149 HD
ENDBRANCH   6  13
BRANCH   5  18
ATOM     18  N   LIG d   1      -5.756  91.099 117.452  0.00  0.00     0.381 N 
ATOM     19  H   LIG d   1      -5.853  90.199 117.024  0.00  0.00    -0.090 HD
ATOM     20  H   LIG d   1      -5.580  91.774 116.729  0.00  0.00    -0.090 HD
ATOM     21  H   LIG d   1      -6.592  91.335 117.940  0.00  0.00    -0.090 HD
ENDBRANCH   5  18
BRANCH   3  22
ATOM     22  C   LIG d   1      -0.998  90.708 117.830  0.00  0.00     0.382 C 
ATOM     23  O   LIG d   1       0.094  91.303 117.999  0.00  0.00    -0.241 OA
ATOM     24  O   LIG d   1      -1.022  89.644 117.183  0.00  0.00    -0.241 OA
ENDBRANCH   3  22
TORSDOF 7
ENDMDL
MODEL 7
REMARK VINA RESULT:      -4.0      1.155      2.124
REMARK  7 active torsions:
REMARK  status: ('A' for Active; 'I' for Inactive)
REMARK    1  A    between atoms: C_2  and  C_3 
REMARK    2  A    between atoms: C_3  and  O_6 
REMARK    3  A    between atoms: C_3  and  C_4 
REMARK    4  A    between atoms: C_7  and  O_6 
REMARK    5  A    between atoms: C_9  and  C_10 
REMARK    6  A    between atoms: N_15  and  C_14 
REMARK    7  A    between atoms: N_20  and  C_19 
REMARK       I    between atoms: C_22  and  N_20 
ROOT
ATOM      1  C   LIG d   1      -5.300  94.092 120.155  0.00  0.00     0.161 C 
ATOM      2  C   LIG d   1      -6.505  93.641 119.588  0.00  0.00     0.016 C 
ATOM      3  C   LIG d   1      -7.471  94.506 119.026  0.00  0.00     0.038 C 
ATOM      4  C   LIG d   1      -7.230  95.878 118.855  0.00  0.00     0.028 C 
ATOM      5  C   LIG d   1      -6.243  96.449 119.868  0.00  0.00    -0.047 C 
ATOM      6  C   LIG d   1      -4.970  95.573 119.877  0.00  0.00     0.091 C 
ENDROOT
BRANCH   1   7
ATOM      7  O   LIG d   1      -4.213  93.247 119.727  0.00  0.00    -0.368 OA
BRANCH   7   8
ATOM      8  C   LIG d   1      -4.437  91.819 119.830  0.00  0.00     0.119 C 
BRANCH   8   9
ATOM      9  C   LIG d   1      -3.576  91.298 120.997  0.00  0.00     0.028 C 
ATOM     10  C   LIG d   1      -2.271  92.094 121.164  0.00  0.00     0.006 C 
ENDBRANCH   8   9
BRANCH   8  11
ATOM     11  C   LIG d   1      -3.925  91.084 118.588  0.00  0.00     0.028 C 
ATOM     12  C   LIG d   1      -5.023  90.851 117.538  0.00  0.00     0.006 C 
ENDBRANCH   8  11
ENDBRANCH   7   8
ENDBRANCH   1   7
BRANCH   6  13
ATOM     13  N   LIG d   1      -3.986  96.014 120.901  0.00  0.00    -0.311 N 
ATOM     14  C   LIG d   1      -2.951  96.807 120.630  0.00  0.00     0.210 C 
ATOM     15  C   LIG d   1      -2.048  97.124 121.826  0.00  0.00     0.109 C 
ATOM     16  O   LIG d   1      -2.714  97.305 119.519  0.00  0.00    -0.276 OA
ATOM     17  H   LIG d   1      -4.121  95.682 121.836  0.00  0.00     0.149 HD
ENDBRANCH   6  13
BRANCH   5  18
ATOM     18  N   LIG d   1      -5.978  97.850 119.489  0.00  0.00     0.381 N 
ATOM     19  H   LIG d   1      -6.664  98.159 118.830  0.00  0.00    -0.090 HD
ATOM     20  H   LIG d   1      -5.074  97.904 119.053  0.00  0.00    -0.090 HD
ATOM     21  H   LIG d   1      -5.999  98.432 120.298  0.00  0.00    -0.090 HD
ENDBRANCH   5  18
BRANCH   3  22
ATOM     22  C   LIG d   1      -8.713  94.006 118.664  0.00  0.00     0.382 C 
ATOM     23  O   LIG d   1      -9.176  94.244 117.522  0.00  0.00    -0.241 OA
ATOM     24  O   LIG d   1      -9.395  93.358 119.480  0.00  0.00    -0.241 OA
ENDBRANCH   3  22
TORSDOF 7
ENDMDL
MODEL 8
REMARK VINA RESULT:      -4.0     10.172     11.905
REMARK  7 active torsions:
REMARK  status: ('A' for Active; 'I' for Inactive)
REMARK    1  A    between atoms: C_2  and  C_3 
REMARK    2  A    between atoms: C_3  and  O_6 
REMARK    3  A    between atoms: C_3  and  C_4 
REMARK    4  A    between atoms: C_7  and  O_6 
REMARK    5  A    between atoms: C_9  and  C_10 
REMARK    6  A    between atoms: N_15  and  C_14 
REMARK    7  A    between atoms: N_20  and  C_19 
REMARK       I    between atoms: C_22  and  N_20 
ROOT
ATOM      1  C   LIG d   1      -7.369  82.998 120.846  0.00  0.00     0.161 C 
ATOM      2  C   LIG d   1      -7.990  84.011 121.594  0.00  0.00     0.016 C 
ATOM      3  C   LIG d   1      -9.333  84.409 121.402  0.00  0.00     0.038 C 
ATOM      4  C   LIG d   1     -10.197  83.712 120.544  0.00  0.00     0.028 C 
ATOM      5  C   LIG d   1      -9.476  83.006 119.401  0.00  0.00    -0.047 C 
ATOM      6  C   LIG d   1      -8.328  82.151 119.983  0.00  0.00     0.091 C 
ENDROOT
BRANCH   1   7
ATOM      7  O   LIG d   1      -6.598  82.149 121.719  0.00  0.00    -0.368 OA
BRANCH   7   8
ATOM      8  C   LIG d   1      -5.176  82.419 121.778  0.00  0.00     0.119 C 
BRANCH   8   9
ATOM      9  C   LIG d   1      -4.462  81.327 120.958  0.00  0.00     0.028 C 
ATOM     10  C   LIG d   1      -3.902  81.862 119.630  0.00  0.00     0.006 C 
ENDBRANCH   8   9
BRANCH   8  11
ATOM     11  C   LIG d   1      -4.640  82.270 123.205  0.00  0.00     0.028 C 
ATOM     12  C   LIG d   1      -4.763  83.563 124.026  0.00  0.00     0.006 C 
ENDBRANCH   8  11
ENDBRANCH   7   8
ENDBRANCH   1   7
BRANCH   6  13
ATOM     13  N   LIG d   1      -7.518  81.493 118.925  0.00  0.00    -0.311 N 
ATOM     14  C   LIG d   1      -7.354  80.174 118.841  0.00  0.00     0.210 C 
ATOM     15  C   LIG d   1      -6.464  79.705 117.686  0.00  0.00     0.109 C 
ATOM     16  O   LIG d   1      -7.886  79.345 119.596  0.00  0.00    -0.276 OA
ATOM     17  H   LIG d   1      -7.076  82.088 118.252  0.00  0.00     0.149 HD
ENDBRANCH   6  13
BRANCH   5  18
ATOM     18  N   LIG d   1     -10.477  82.208 118.668  0.00  0.00     0.381 N 
ATOM     19  H   LIG d   1     -11.393  82.574 118.838  0.00  0.00    -0.090 HD
ATOM     20  H   LIG d   1     -10.448  81.262 119.005  0.00  0.00    -0.090 HD
ATOM     21  H   LIG d   1     -10.280  82.227 117.691  0.00  0.00    -0.090 HD
ENDBRANCH   5  18
BRANCH   3  22
ATOM     22  C   LIG d   1      -9.813  85.541 122.042  0.00  0.00     0.382 C 
ATOM     23  O   LIG d   1      -9.022  86.455 122.378  0.00  0.00    -0.241 OA
ATOM     24  O   LIG d   1     -11.021  85.641 122.328  0.00  0.00    -0.241 OA
ENDBRANCH   3  22
TORSDOF 7
ENDMDL
MODEL 9
REMARK VINA RESULT:      -4.0      2.716      4.495
REMARK  7 active torsions:
REMARK  status: ('A' for Active; 'I' for Inactive)
REMARK    1  A    between atoms: C_2  and  C_3 
REMARK    2  A    between atoms: C_3  and  O_6 
REMARK    3  A    between atoms: C_3  and  C_4 
REMARK    4  A    between atoms: C_7  and  O_6 
REMARK    5  A    between atoms: C_9  and  C_10 
REMARK    6  A    between atoms: N_15  and  C_14 
REMARK    7  A    between atoms: N_20  and  C_19 
REMARK       I    between atoms: C_22  and  N_20 
ROOT
ATOM      1  C   LIG d   1      -6.298  95.846 119.156  0.00  0.00     0.161 C 
ATOM      2  C   LIG d   1      -7.119  96.982 119.063  0.00  0.00     0.016 C 
ATOM      3  C   LIG d   1      -8.525  96.918 118.931  0.00  0.00     0.038 C 
ATOM      4  C   LIG d   1      -9.225  95.706 119.037  0.00  0.00     0.028 C 
ATOM      5  C   LIG d   1      -8.400  94.492 118.625  0.00  0.00    -0.047 C 
ATOM      6  C   LIG d   1      -7.054  94.520 119.384  0.00  0.00     0.091 C 
ENDROOT
BRANCH   1   7
ATOM      7  O   LIG d   1      -5.308  96.041 120.184  0.00  0.00    -0.368 OA
BRANCH   7   8
ATOM      8  C   LIG d   1      -3.960  96.314 119.727  0.00  0.00     0.119 C 
BRANCH   8   9
ATOM      9  C   LIG d   1      -3.031  95.270 120.377  0.00  0.00     0.028 C 
ATOM     10  C   LIG d   1      -2.310  94.398 119.335  0.00  0.00     0.006 C 
ENDBRANCH   8   9
BRANCH   8  11
ATOM     11  C   LIG d   1      -3.463  97.671 120.235  0.00  0.00     0.028 C 
ATOM     12  C   LIG d   1      -3.877  98.837 119.323  0.00  0.00     0.006 C 
ENDBRANCH   8  11
ENDBRANCH   7   8
ENDBRANCH   1   7
BRANCH   6  13
ATOM     13  N   LIG d   1      -6.150  93.412 118.977  0.00  0.00    -0.311 N 
ATOM     14  C   LIG d   1      -5.586  92.570 119.842  0.00  0.00     0.210 C 
ATOM     15  C   LIG d   1      -4.673  91.513 119.213  0.00  0.00     0.109 C 
ATOM     16  O   LIG d   1      -5.781  92.579 121.066  0.00  0.00    -0.276 OA
ATOM     17  H   LIG d   1      -5.963  93.313 117.998  0.00  0.00     0.149 HD
ENDBRANCH   6  13
BRANCH   5  18
ATOM     18  N   LIG d   1      -9.202  93.289 118.914  0.00  0.00     0.381 N 
ATOM     19  H   LIG d   1      -8.630  92.472 118.832  0.00  0.00    -0.090 HD
ATOM     20  H   LIG d   1      -9.944  93.223 118.239  0.00  0.00    -0.090 HD
ATOM     21  H   LIG d   1      -9.583  93.346 119.833  0.00  0.00    -0.090 HD
ENDBRANCH   5  18
BRANCH   3  22
ATOM     22  C   LIG d   1      -9.243  98.071 118.652  0.00  0.00     0.382 C 
ATOM     23  O   LIG d   1      -9.815  98.693 119.579  0.00  0.00    -0.241 OA
ATOM     24  O   LIG d   1      -9.363  98.472 117.479  0.00  0.00    -0.241 OA
ENDBRANCH   3  22
TORSDOF 7
ENDMDL
