MODEL 1
REMARK VINA RESULT:      -4.8      0.000      0.000
REMARK  7 active torsions:
REMARK  status: ('A' for Active; 'I' for Inactive)
REMARK    1  A    between atoms: C_2  and  C_3 
REMARK    2  A    between atoms: C_3  and  O_6 
REMARK    3  A    between atoms: C_3  and  C_4 
REMARK    4  A    between atoms: C_7  and  O_6 
REMARK    5  A    between atoms: C_9  and  C_10 
REMARK    6  A    between atoms: N_15  and  C_14 
REMARK    7  A    between atoms: N_20  and  C_19 
REMARK       I    between atoms: C_22  and  N_20 
ROOT
ATOM      1  C   LIG d   1      -5.783  92.618 120.314  0.00  0.00     0.161 C 
ATOM      2  C   LIG d   1      -4.685  91.911 119.796  0.00  0.00     0.016 C 
ATOM      3  C   LIG d   1      -4.675  91.322 118.511  0.00  0.00     0.038 C 
ATOM      4  C   LIG d   1      -5.713  91.531 117.591  0.00  0.00     0.028 C 
ATOM      5  C   LIG d   1      -7.059  91.814 118.251  0.00  0.00    -0.047 C 
ATOM      6  C   LIG d   1      -6.882  92.951 119.283  0.00  0.00     0.091 C 
ENDROOT
BRANCH   1   7
ATOM      7  O   LIG d   1      -5.327  93.820 120.965  0.00  0.00    -0.368 OA
BRANCH   7   8
ATOM      8  C   LIG d   1      -4.679  94.799 120.116  0.00  0.00     0.119 C 
BRANCH   8   9
ATOM      9  C   LIG d   1      -3.189  94.839 120.509  0.00  0.00     0.028 C 
ATOM     10  C   LIG d   1      -2.257  94.731 119.291  0.00  0.00     0.006 C 
ENDBRANCH   8   9
BRANCH   8  11
ATOM     11  C   LIG d   1      -5.208  96.210 120.388  0.00  0.00     0.028 C 
ATOM     12  C   LIG d   1      -6.407  96.579 119.500  0.00  0.00     0.006 C 
ENDBRANCH   8  11
ENDBRANCH   7   8
ENDBRANCH   1   7
BRANCH   6  13
ATOM     13  N   LIG d   1      -8.133  93.234 120.034  0.00  0.00    -0.311 N 
ATOM     14  C   LIG d   1      -9.109  94.010 119.567  0.00  0.00     0.210 C 
ATOM     15  C   LIG d   1     -10.303  94.186 120.511  0.00  0.00     0.109 C 
ATOM     16  O   LIG d   1      -9.114  94.543 118.447  0.00  0.00    -0.276 OA
ATOM     17  H   LIG d   1      -8.225  92.816 120.940  0.00  0.00     0.149 HD
ENDBRANCH   6  13
BRANCH   5  18
ATOM     18  N   LIG d   1      -8.018  92.148 117.181  0.00  0.00     0.381 N 
ATOM     19  H   LIG d   1      -8.668  91.396 117.063  0.00  0.00    -0.090 HD
ATOM     20  H   LIG d   1      -7.515  92.269 116.320  0.00  0.00    -0.090 HD
ATOM     21  H   LIG d   1      -8.506  92.985 117.410  0.00  0.00    -0.090 HD
ENDBRANCH   5  18
BRANCH   3  22
ATOM     22  C   LIG d   1      -3.634  90.480 118.149  0.00  0.00     0.382 C 
ATOM     23  O   LIG d   1      -3.770  89.695 117.181  0.00  0.00    -0.241 OA
ATOM     24  O   LIG d   1      -2.576  90.466 118.806  0.00  0.00    -0.241 OA
ENDBRANCH   3  22
TORSDOF 7
ENDMDL
MODEL 2
REMARK VINA RESULT:      -4.5      3.117      5.620
REMARK  7 active torsions:
REMARK  status: ('A' for Active; 'I' for Inactive)
REMARK    1  A    between atoms: C_2  and  C_3 
REMARK    2  A    between atoms: C_3  and  O_6 
REMARK    3  A    between atoms: C_3  and  C_4 
REMARK    4  A    between atoms: C_7  and  O_6 
REMARK    5  A    between atoms: C_9  and  C_10 
REMARK    6  A    between atoms: N_15  and  C_14 
REMARK    7  A    between atoms: N_20  and  C_19 
REMARK       I    between atoms: C_22  and  N_20 
ROOT
ATOM      1  C   LIG d   1      -4.316  92.840 119.651  0.00  0.00     0.161 C 
ATOM      2  C   LIG d   1      -5.611  92.552 119.191  0.00  0.00     0.016 C 
ATOM      3  C   LIG d   1      -5.882  91.617 118.165  0.00  0.00     0.038 C 
ATOM      4  C   LIG d   1      -4.882  90.791 117.631  0.00  0.00     0.028 C 
ATOM      5  C   LIG d   1      -3.487  91.403 117.709  0.00  0.00    -0.047 C 
ATOM      6  C   LIG d   1      -3.223  91.869 119.158  0.00  0.00     0.091 C 
ENDROOT
BRANCH   1   7
ATOM      7  O   LIG d   1      -4.313  92.909 121.091  0.00  0.00    -0.368 OA
BRANCH   7   8
ATOM      8  C   LIG d   1      -4.782  91.727 121.786  0.00  0.00     0.119 C 
BRANCH   8   9
ATOM      9  C   LIG d   1      -6.097  92.100 122.498  0.00  0.00     0.028 C 
ATOM     10  C   LIG d   1      -6.344  91.253 123.757  0.00  0.00     0.006 C 
ENDBRANCH   8   9
BRANCH   8  11
ATOM     11  C   LIG d   1      -3.818  91.319 122.904  0.00  0.00     0.028 C 
ATOM     12  C   LIG d   1      -2.838  90.216 122.472  0.00  0.00     0.006 C 
ENDBRANCH   8  11
ENDBRANCH   7   8
ENDBRANCH   1   7
BRANCH   6  13
ATOM     13  N   LIG d   1      -1.913  92.555 119.303  0.00  0.00    -0.311 N 
ATOM     14  C   LIG d   1      -0.778  91.917 119.587  0.00  0.00     0.210 C 
ATOM     15  C   LIG d   1       0.456  92.816 119.712  0.00  0.00     0.109 C 
ATOM     16  O   LIG d   1      -0.671  90.688 119.716  0.00  0.00    -0.276 OA
ATOM     17  H   LIG d   1      -1.902  93.549 119.184  0.00  0.00     0.149 HD
ENDBRANCH   6  13
BRANCH   5  18
ATOM     18  N   LIG d   1      -2.527  90.382 117.245  0.00  0.00     0.381 N 
ATOM     19  H   LIG d   1      -1.867  90.185 117.970  0.00  0.00    -0.090 HD
ATOM     20  H   LIG d   1      -2.027  90.743 116.452  0.00  0.00    -0.090 HD
ATOM     21  H   LIG d   1      -3.011  89.550 116.991  0.00  0.00    -0.090 HD
ENDBRANCH   5  18
BRANCH   3  22
ATOM     22  C   LIG d   1      -7.161  91.530 117.636  0.00  0.00     0.382 C 
ATOM     23  O   LIG d   1      -7.916  92.532 117.653  0.00  0.00    -0.241 OA
ATOM     24  O   LIG d   1      -7.584  90.451 117.181  0.00  0.00    -0.241 OA
ENDBRANCH   3  22
TORSDOF 7
ENDMDL
MODEL 3
REMARK VINA RESULT:      -4.5     19.574     21.307
REMARK  7 active torsions:
REMARK  status: ('A' for Active; 'I' for Inactive)
REMARK    1  A    between atoms: C_2  and  C_3 
REMARK    2  A    between atoms: C_3  and  O_6 
REMARK    3  A    between atoms: C_3  and  C_4 
REMARK    4  A    between atoms: C_7  and  O_6 
REMARK    5  A    between atoms: C_9  and  C_10 
REMARK    6  A    between atoms: N_15  and  C_14 
REMARK    7  A    between atoms: N_20  and  C_19 
REMARK       I    between atoms: C_22  and  N_20 
ROOT
ATOM      1  C   LIG d   1     -15.375  75.262 119.616  0.00  0.00     0.161 C 
ATOM      2  C   LIG d   1     -15.727  74.099 118.912  0.00  0.00     0.016 C 
ATOM      3  C   LIG d   1     -15.700  72.805 119.481  0.00  0.00     0.038 C 
ATOM      4  C   LIG d   1     -15.461  72.602 120.849  0.00  0.00     0.028 C 
ATOM      5  C   LIG d   1     -14.607  73.695 121.483  0.00  0.00    -0.047 C 
ATOM      6  C   LIG d   1     -15.219  75.072 121.140  0.00  0.00     0.091 C 
ENDROOT
BRANCH   1   7
ATOM      7  O   LIG d   1     -16.324  76.310 119.336  0.00  0.00    -0.368 OA
BRANCH   7   8
ATOM      8  C   LIG d   1     -17.468  76.387 120.222  0.00  0.00     0.119 C 
BRANCH   8   9
ATOM      9  C   LIG d   1     -18.710  75.971 119.411  0.00  0.00     0.028 C 
ATOM     10  C   LIG d   1     -19.299  74.631 119.884  0.00  0.00     0.006 C 
ENDBRANCH   8   9
BRANCH   8  11
ATOM     11  C   LIG d   1     -17.735  77.829 120.663  0.00  0.00     0.028 C 
ATOM     12  C   LIG d   1     -19.035  78.400 120.075  0.00  0.00     0.006 C 
ENDBRANCH   8  11
ENDBRANCH   7   8
ENDBRANCH   1   7
BRANCH   6  13
ATOM     13  N   LIG d   1     -14.397  76.200 121.651  0.00  0.00    -0.311 N 
ATOM     14  C   LIG d   1     -14.652  76.833 122.796  0.00  0.00     0.210 C 
ATOM     15  C   LIG d   1     -13.694  77.981 123.127  0.00  0.00     0.109 C 
ATOM     16  O   LIG d   1     -15.561  76.531 123.583  0.00  0.00    -0.276 OA
ATOM     17  H   LIG d   1     -13.621  76.490 121.090  0.00  0.00     0.149 HD
ENDBRANCH   6  13
BRANCH   5  18
ATOM     18  N   LIG d   1     -14.552  73.432 122.934  0.00  0.00     0.381 N 
ATOM     19  H   LIG d   1     -15.041  74.152 123.427  0.00  0.00    -0.090 HD
ATOM     20  H   LIG d   1     -13.592  73.442 123.230  0.00  0.00    -0.090 HD
ATOM     21  H   LIG d   1     -14.961  72.546 123.135  0.00  0.00    -0.090 HD
ENDBRANCH   5  18
BRANCH   3  22
ATOM     22  C   LIG d   1     -15.874  71.694 118.671  0.00  0.00     0.382 C 
ATOM     23  O   LIG d   1     -15.886  70.545 119.176  0.00  0.00    -0.241 OA
ATOM     24  O   LIG d   1     -15.975  71.821 117.436  0.00  0.00    -0.241 OA
ENDBRANCH   3  22
TORSDOF 7
ENDMDL
MODEL 4
REMARK VINA RESULT:      -4.5     11.526     13.885
REMARK  7 active torsions:
REMARK  status: ('A' for Active; 'I' for Inactive)
REMARK    1  A    between atoms: C_2  and  C_3 
REMARK    2  A    between atoms: C_3  and  O_6 
REMARK    3  A    between atoms: C_3  and  C_4 
REMARK    4  A    between atoms: C_7  and  O_6 
REMARK    5  A    between atoms: C_9  and  C_10 
REMARK    6  A    between atoms: N_15  and  C_14 
REMARK    7  A    between atoms: N_20  and  C_19 
REMARK       I    between atoms: C_22  and  N_20 
ROOT
ATOM      1  C   LIG d   1      -9.160  80.827 118.099  0.00  0.00     0.161 C 
ATOM      2  C   LIG d   1      -9.117  82.124 118.639  0.00  0.00     0.016 C 
ATOM      3  C   LIG d   1      -9.342  82.406 120.006  0.00  0.00     0.038 C 
ATOM      4  C   LIG d   1      -9.478  81.387 120.960  0.00  0.00     0.028 C 
ATOM      5  C   LIG d   1     -10.031  80.087 120.385  0.00  0.00    -0.047 C 
ATOM      6  C   LIG d   1      -9.197  79.693 119.145  0.00  0.00     0.091 C 
ENDROOT
BRANCH   1   7
ATOM      7  O   LIG d   1      -8.055  80.638 117.193  0.00  0.00    -0.368 OA
BRANCH   7   8
ATOM      8  C   LIG d   1      -6.782  80.307 117.800  0.00  0.00     0.119 C 
BRANCH   8   9
ATOM      9  C   LIG d   1      -5.790  81.428 117.436  0.00  0.00     0.028 C 
ATOM     10  C   LIG d   1      -5.274  82.180 118.674  0.00  0.00     0.006 C 
ENDBRANCH   8   9
BRANCH   8  11
ATOM     11  C   LIG d   1      -6.191  79.030 117.195  0.00  0.00     0.028 C 
ATOM     12  C   LIG d   1      -5.335  78.238 118.196  0.00  0.00     0.006 C 
ENDBRANCH   8  11
ENDBRANCH   7   8
ENDBRANCH   1   7
BRANCH   6  13
ATOM     13  N   LIG d   1      -9.723  78.477 118.471  0.00  0.00    -0.311 N 
ATOM     14  C   LIG d   1      -9.264  77.250 118.710  0.00  0.00     0.210 C 
ATOM     15  C   LIG d   1      -9.932  76.139 117.893  0.00  0.00     0.109 C 
ATOM     16  O   LIG d   1      -8.390  76.972 119.544  0.00  0.00    -0.276 OA
ATOM     17  H   LIG d   1     -10.456  78.608 117.801  0.00  0.00     0.149 HD
ENDBRANCH   6  13
BRANCH   5  18
ATOM     18  N   LIG d   1      -9.991  79.073 121.455  0.00  0.00     0.381 N 
ATOM     19  H   LIG d   1     -10.149  79.509 122.341  0.00  0.00    -0.090 HD
ATOM     20  H   LIG d   1      -9.078  78.652 121.470  0.00  0.00    -0.090 HD
ATOM     21  H   LIG d   1     -10.684  78.376 121.291  0.00  0.00    -0.090 HD
ENDBRANCH   5  18
BRANCH   3  22
ATOM     22  C   LIG d   1      -9.473  83.721 120.423  0.00  0.00     0.382 C 
ATOM     23  O   LIG d   1      -8.733  84.167 121.332  0.00  0.00    -0.241 OA
ATOM     24  O   LIG d   1     -10.353  84.455 119.933  0.00  0.00    -0.241 OA
ENDBRANCH   3  22
TORSDOF 7
ENDMDL
MODEL 5
REMARK VINA RESULT:      -4.5      2.409      5.353
REMARK  7 active torsions:
REMARK  status: ('A' for Active; 'I' for Inactive)
REMARK    1  A    between atoms: C_2  and  C_3 
REMARK    2  A    between atoms: C_3  and  O_6 
REMARK    3  A    between atoms: C_3  and  C_4 
REMARK    4  A    between atoms: C_7  and  O_6 
REMARK    5  A    between atoms: C_9  and  C_10 
REMARK    6  A    between atoms: N_15  and  C_14 
REMARK    7  A    between atoms: N_20  and  C_19 
REMARK       I    between atoms: C_22  and  N_20 
ROOT
ATOM      1  C   LIG d   1      -5.113  93.067 119.899  0.00  0.00     0.161 C 
ATOM      2  C   LIG d   1      -6.269  92.907 119.118  0.00  0.00     0.016 C 
ATOM      3  C   LIG d   1      -7.218  93.935 118.914  0.00  0.00     0.038 C 
ATOM      4  C   LIG d   1      -6.996  95.248 119.357  0.00  0.00     0.028 C 
ATOM      5  C   LIG d   1      -6.087  95.329 120.578  0.00  0.00    -0.047 C 
ATOM      6  C   LIG d   1      -4.798  94.524 120.299  0.00  0.00     0.091 C 
ENDROOT
BRANCH   1   7
ATOM      7  O   LIG d   1      -3.983  92.477 119.226  0.00  0.00    -0.368 OA
BRANCH   7   8
ATOM      8  C   LIG d   1      -3.578  91.166 119.691  0.00  0.00     0.119 C 
BRANCH   8   9
ATOM      9  C   LIG d   1      -2.076  91.239 120.029  0.00  0.00     0.028 C 
ATOM     10  C   LIG d   1      -1.796  90.967 121.517  0.00  0.00     0.006 C 
ENDBRANCH   8   9
BRANCH   8  11
ATOM     11  C   LIG d   1      -3.692  90.120 118.578  0.00  0.00     0.028 C 
ATOM     12  C   LIG d   1      -3.814  90.747 117.181  0.00  0.00     0.006 C 
ENDBRANCH   8  11
ENDBRANCH   7   8
ENDBRANCH   1   7
BRANCH   6  13
ATOM     13  N   LIG d   1      -3.890  94.481 121.475  0.00  0.00    -0.311 N 
ATOM     14  C   LIG d   1      -2.579  94.703 121.397  0.00  0.00     0.210 C 
ATOM     15  C   LIG d   1      -1.824  94.591 122.725  0.00  0.00     0.109 C 
ATOM     16  O   LIG d   1      -1.974  95.014 120.359  0.00  0.00    -0.276 OA
ATOM     17  H   LIG d   1      -4.302  94.267 122.362  0.00  0.00     0.149 HD
ENDBRANCH   6  13
BRANCH   5  18
ATOM     18  N   LIG d   1      -5.830  96.756 120.848  0.00  0.00     0.381 N 
ATOM     19  H   LIG d   1      -6.694  97.262 120.851  0.00  0.00    -0.090 HD
ATOM     20  H   LIG d   1      -5.250  97.127 120.116  0.00  0.00    -0.090 HD
ATOM     21  H   LIG d   1      -5.373  96.860 121.728  0.00  0.00    -0.090 HD
ENDBRANCH   5  18
BRANCH   3  22
ATOM     22  C   LIG d   1      -8.424  93.645 118.294  0.00  0.00     0.382 C 
ATOM     23  O   LIG d   1      -8.442  92.934 117.260  0.00  0.00    -0.241 OA
ATOM     24  O   LIG d   1      -9.489  94.120 118.730  0.00  0.00    -0.241 OA
ENDBRANCH   3  22
TORSDOF 7
ENDMDL
MODEL 6
REMARK VINA RESULT:      -4.5     11.335     13.466
REMARK  7 active torsions:
REMARK  status: ('A' for Active; 'I' for Inactive)
REMARK    1  A    between atoms: C_2  and  C_3 
REMARK    2  A    between atoms: C_3  and  O_6 
REMARK    3  A    between atoms: C_3  and  C_4 
REMARK    4  A    between atoms: C_7  and  O_6 
REMARK    5  A    between atoms: C_9  and  C_10 
REMARK    6  A    between atoms: N_15  and  C_14 
REMARK    7  A    between atoms: N_20  and  C_19 
REMARK       I    between atoms: C_22  and  N_20 
ROOT
ATOM      1  C   LIG d   1      -9.374  81.430 120.780  0.00  0.00     0.161 C 
ATOM      2  C   LIG d   1      -9.788  82.644 121.352  0.00  0.00     0.016 C 
ATOM      3  C   LIG d   1      -9.939  83.841 120.613  0.00  0.00     0.038 C 
ATOM      4  C   LIG d   1      -9.830  83.868 119.215  0.00  0.00     0.028 C 
ATOM      5  C   LIG d   1      -8.921  82.778 118.657  0.00  0.00    -0.047 C 
ATOM      6  C   LIG d   1      -9.358  81.414 119.237  0.00  0.00     0.091 C 
ENDROOT
BRANCH   1   7
ATOM      7  O   LIG d   1     -10.185  80.350 121.284  0.00  0.00    -0.368 OA
BRANCH   7   8
ATOM      8  C   LIG d   1      -9.654  79.633 122.425  0.00  0.00     0.119 C 
BRANCH   8   9
ATOM      9  C   LIG d   1      -8.124  79.561 122.255  0.00  0.00     0.028 C 
ATOM     10  C   LIG d   1      -7.372  79.934 123.544  0.00  0.00     0.006 C 
ENDBRANCH   8   9
BRANCH   8  11
ATOM     11  C   LIG d   1     -10.129  78.177 122.439  0.00  0.00     0.028 C 
ATOM     12  C   LIG d   1      -9.333  77.281 121.477  0.00  0.00     0.006 C 
ENDBRANCH   8  11
ENDBRANCH   7   8
ENDBRANCH   1   7
BRANCH   6  13
ATOM     13  N   LIG d   1      -8.468  80.304 118.808  0.00  0.00    -0.311 N 
ATOM     14  C   LIG d   1      -8.919  79.125 118.382  0.00  0.00     0.210 C 
ATOM     15  C   LIG d   1      -7.831  78.114 118.007  0.00  0.00     0.109 C 
ATOM     16  O   LIG d   1     -10.116  78.832 118.249  0.00  0.00    -0.276 OA
ATOM     17  H   LIG d   1      -7.481  80.467 118.854  0.00  0.00     0.149 HD
ENDBRANCH   6  13
BRANCH   5  18
ATOM     18  N   LIG d   1      -9.007  82.836 117.186  0.00  0.00     0.381 N 
ATOM     19  H   LIG d   1      -8.588  82.018 116.789  0.00  0.00    -0.090 HD
ATOM     20  H   LIG d   1      -8.499  83.640 116.861  0.00  0.00    -0.090 HD
ATOM     21  H   LIG d   1      -9.960  82.900 116.902  0.00  0.00    -0.090 HD
ENDBRANCH   5  18
BRANCH   3  22
ATOM     22  C   LIG d   1     -10.163  85.036 121.280  0.00  0.00     0.382 C 
ATOM     23  O   LIG d   1      -9.204  85.647 121.811  0.00  0.00    -0.241 OA
ATOM     24  O   LIG d   1     -11.317  85.488 121.395  0.00  0.00    -0.241 OA
ENDBRANCH   3  22
TORSDOF 7
ENDMDL
MODEL 7
REMARK VINA RESULT:      -4.4     19.124     21.285
REMARK  7 active torsions:
REMARK  status: ('A' for Active; 'I' for Inactive)
REMARK    1  A    between atoms: C_2  and  C_3 
REMARK    2  A    between atoms: C_3  and  O_6 
REMARK    3  A    between atoms: C_3  and  C_4 
REMARK    4  A    between atoms: C_7  and  O_6 
REMARK    5  A    between atoms: C_9  and  C_10 
REMARK    6  A    between atoms: N_15  and  C_14 
REMARK    7  A    between atoms: N_20  and  C_19 
REMARK       I    between atoms: C_22  and  N_20 
ROOT
ATOM      1  C   LIG d   1     -17.389  75.947 120.350  0.00  0.00     0.161 C 
ATOM      2  C   LIG d   1     -18.478  76.748 119.970  0.00  0.00     0.016 C 
ATOM      3  C   LIG d   1     -18.622  78.100 120.359  0.00  0.00     0.038 C 
ATOM      4  C   LIG d   1     -17.604  78.790 121.034  0.00  0.00     0.028 C 
ATOM      5  C   LIG d   1     -16.712  77.883 121.874  0.00  0.00    -0.047 C 
ATOM      6  C   LIG d   1     -16.214  76.714 120.994  0.00  0.00     0.091 C 
ENDROOT
BRANCH   1   7
ATOM      7  O   LIG d   1     -16.927  75.181 119.220  0.00  0.00    -0.368 OA
BRANCH   7   8
ATOM      8  C   LIG d   1     -17.227  73.763 119.246  0.00  0.00     0.119 C 
BRANCH   8   9
ATOM      9  C   LIG d   1     -17.608  73.397 120.693  0.00  0.00     0.028 C 
ATOM     10  C   LIG d   1     -16.780  72.221 121.238  0.00  0.00     0.006 C 
ENDBRANCH   8   9
BRANCH   8  11
ATOM     11  C   LIG d   1     -15.984  72.926 118.929  0.00  0.00     0.028 C 
ATOM     12  C   LIG d   1     -16.030  72.298 117.527  0.00  0.00     0.006 C 
ENDBRANCH   8  11
ENDBRANCH   7   8
ENDBRANCH   1   7
BRANCH   6  13
ATOM     13  N   LIG d   1     -15.403  75.733 121.760  0.00  0.00    -0.311 N 
ATOM     14  C   LIG d   1     -14.282  75.184 121.293  0.00  0.00     0.210 C 
ATOM     15  C   LIG d   1     -13.611  74.182 122.237  0.00  0.00     0.109 C 
ATOM     16  O   LIG d   1     -13.764  75.457 120.200  0.00  0.00    -0.276 OA
ATOM     17  H   LIG d   1     -15.734  75.478 122.670  0.00  0.00     0.149 HD
ENDBRANCH   6  13
BRANCH   5  18
ATOM     18  N   LIG d   1     -15.614  78.710 122.410  0.00  0.00     0.381 N 
ATOM     19  H   LIG d   1     -14.978  78.136 122.925  0.00  0.00    -0.090 HD
ATOM     20  H   LIG d   1     -16.000  79.395 123.037  0.00  0.00    -0.090 HD
ATOM     21  H   LIG d   1     -15.134  79.165 121.664  0.00  0.00    -0.090 HD
ENDBRANCH   5  18
BRANCH   3  22
ATOM     22  C   LIG d   1     -19.813  78.764 120.106  0.00  0.00     0.382 C 
ATOM     23  O   LIG d   1     -19.797  79.970 119.760  0.00  0.00    -0.241 OA
ATOM     24  O   LIG d   1     -20.905  78.185 120.263  0.00  0.00    -0.241 OA
ENDBRANCH   3  22
TORSDOF 7
ENDMDL
MODEL 8
REMARK VINA RESULT:      -4.4      1.619      2.265
REMARK  7 active torsions:
REMARK  status: ('A' for Active; 'I' for Inactive)
REMARK    1  A    between atoms: C_2  and  C_3 
REMARK    2  A    between atoms: C_3  and  O_6 
REMARK    3  A    between atoms: C_3  and  C_4 
REMARK    4  A    between atoms: C_7  and  O_6 
REMARK    5  A    between atoms: C_9  and  C_10 
REMARK    6  A    between atoms: N_15  and  C_14 
REMARK    7  A    between atoms: N_20  and  C_19 
REMARK       I    between atoms: C_22  and  N_20 
ROOT
ATOM      1  C   LIG d   1      -5.703  92.546 120.278  0.00  0.00     0.161 C 
ATOM      2  C   LIG d   1      -4.606  91.855 119.738  0.00  0.00     0.016 C 
ATOM      3  C   LIG d   1      -4.611  91.271 118.450  0.00  0.00     0.038 C 
ATOM      4  C   LIG d   1      -5.668  91.471 117.550  0.00  0.00     0.028 C 
ATOM      5  C   LIG d   1      -7.005  91.735 118.235  0.00  0.00    -0.047 C 
ATOM      6  C   LIG d   1      -6.824  92.870 119.269  0.00  0.00     0.091 C 
ENDROOT
BRANCH   1   7
ATOM      7  O   LIG d   1      -5.250  93.751 120.927  0.00  0.00    -0.368 OA
BRANCH   7   8
ATOM      8  C   LIG d   1      -5.256  93.735 122.376  0.00  0.00     0.119 C 
BRANCH   8   9
ATOM      9  C   LIG d   1      -5.976  92.448 122.822  0.00  0.00     0.028 C 
ATOM     10  C   LIG d   1      -5.101  91.572 123.735  0.00  0.00     0.006 C 
ENDBRANCH   8   9
BRANCH   8  11
ATOM     11  C   LIG d   1      -6.093  94.886 122.943  0.00  0.00     0.028 C 
ATOM     12  C   LIG d   1      -7.496  94.440 123.384  0.00  0.00     0.006 C 
ENDBRANCH   8  11
ENDBRANCH   7   8
ENDBRANCH   1   7
BRANCH   6  13
ATOM     13  N   LIG d   1      -8.065  93.134 120.044  0.00  0.00    -0.311 N 
ATOM     14  C   LIG d   1      -9.050  93.916 119.606  0.00  0.00     0.210 C 
ATOM     15  C   LIG d   1     -10.230  94.070 120.570  0.00  0.00     0.109 C 
ATOM     16  O   LIG d   1      -9.072  94.472 118.498  0.00  0.00    -0.276 OA
ATOM     17  H   LIG d   1      -8.143  92.698 120.941  0.00  0.00     0.149 HD
ENDBRANCH   6  13
BRANCH   5  18
ATOM     18  N   LIG d   1      -7.988  92.061 117.184  0.00  0.00     0.381 N 
ATOM     19  H   LIG d   1      -7.609  92.754 116.570  0.00  0.00    -0.090 HD
ATOM     20  H   LIG d   1      -8.812  92.440 117.616  0.00  0.00    -0.090 HD
ATOM     21  H   LIG d   1      -8.220  91.241 116.668  0.00  0.00    -0.090 HD
ENDBRANCH   5  18
BRANCH   3  22
ATOM     22  C   LIG d   1      -3.567  90.444 118.066  0.00  0.00     0.382 C 
ATOM     23  O   LIG d   1      -2.428  90.597 118.571  0.00  0.00    -0.241 OA
ATOM     24  O   LIG d   1      -3.737  89.577 117.189  0.00  0.00    -0.241 OA
ENDBRANCH   3  22
TORSDOF 7
ENDMDL
MODEL 9
REMARK VINA RESULT:      -4.3     10.335     12.122
REMARK  7 active torsions:
REMARK  status: ('A' for Active; 'I' for Inactive)
REMARK    1  A    between atoms: C_2  and  C_3 
REMARK    2  A    between atoms: C_3  and  O_6 
REMARK    3  A    between atoms: C_3  and  C_4 
REMARK    4  A    between atoms: C_7  and  O_6 
REMARK    5  A    between atoms: C_9  and  C_10 
REMARK    6  A    between atoms: N_15  and  C_14 
REMARK    7  A    between atoms: N_20  and  C_19 
REMARK       I    between atoms: C_22  and  N_20 
ROOT
ATOM      1  C   LIG d   1      -7.727  81.446 119.875  0.00  0.00     0.161 C 
ATOM      2  C   LIG d   1      -7.810  80.103 119.471  0.00  0.00     0.016 C 
ATOM      3  C   LIG d   1      -8.713  79.641 118.486  0.00  0.00     0.038 C 
ATOM      4  C   LIG d   1      -9.494  80.522 117.724  0.00  0.00     0.028 C 
ATOM      5  C   LIG d   1      -9.810  81.829 118.445  0.00  0.00    -0.047 C 
ATOM      6  C   LIG d   1      -8.493  82.440 118.976  0.00  0.00     0.091 C 
ENDROOT
BRANCH   1   7
ATOM      7  O   LIG d   1      -6.344  81.837 119.989  0.00  0.00    -0.368 OA
BRANCH   7   8
ATOM      8  C   LIG d   1      -5.657  81.406 121.189  0.00  0.00     0.119 C 
BRANCH   8   9
ATOM      9  C   LIG d   1      -6.269  82.177 122.375  0.00  0.00     0.028 C 
ATOM     10  C   LIG d   1      -5.976  83.686 122.309  0.00  0.00     0.006 C 
ENDBRANCH   8   9
BRANCH   8  11
ATOM     11  C   LIG d   1      -4.180  81.811 121.162  0.00  0.00     0.028 C 
ATOM     12  C   LIG d   1      -3.689  82.177 119.752  0.00  0.00     0.006 C 
ENDBRANCH   8  11
ENDBRANCH   7   8
ENDBRANCH   1   7
BRANCH   6  13
ATOM     13  N   LIG d   1      -8.721  83.677 119.767  0.00  0.00    -0.311 N 
ATOM     14  C   LIG d   1      -9.440  83.710 120.887  0.00  0.00     0.210 C 
ATOM     15  C   LIG d   1      -9.567  85.092 121.535  0.00  0.00     0.109 C 
ATOM     16  O   LIG d   1      -9.959  82.719 121.423  0.00  0.00    -0.276 OA
ATOM     17  H   LIG d   1      -8.309  84.522 119.421  0.00  0.00     0.149 HD
ENDBRANCH   6  13
BRANCH   5  18
ATOM     18  N   LIG d   1     -10.510  82.707 117.489  0.00  0.00     0.381 N 
ATOM     19  H   LIG d   1      -9.842  83.209 116.938  0.00  0.00    -0.090 HD
ATOM     20  H   LIG d   1     -11.060  83.373 118.002  0.00  0.00    -0.090 HD
ATOM     21  H   LIG d   1     -11.099  82.165 116.896  0.00  0.00    -0.090 HD
ENDBRANCH   5  18
BRANCH   3  22
ATOM     22  C   LIG d   1      -8.869  78.278 118.283  0.00  0.00     0.382 C 
ATOM     23  O   LIG d   1     -10.020  77.784 118.209  0.00  0.00    -0.241 OA
ATOM     24  O   LIG d   1      -7.875  77.531 118.216  0.00  0.00    -0.241 OA
ENDBRANCH   3  22
TORSDOF 7
ENDMDL
