MODEL 1
REMARK VINA RESULT:      -6.3      0.000      0.000
REMARK  7 active torsions:
REMARK  status: ('A' for Active; 'I' for Inactive)
REMARK    1  A    between atoms: C_2  and  C_3 
REMARK    2  A    between atoms: C_3  and  O_6 
REMARK    3  A    between atoms: C_3  and  C_4 
REMARK    4  A    between atoms: C_7  and  O_6 
REMARK    5  A    between atoms: C_9  and  C_10 
REMARK    6  A    between atoms: N_15  and  C_14 
REMARK    7  A    between atoms: N_20  and  C_19 
REMARK       I    between atoms: C_22  and  N_20 
ROOT
ATOM      1  C   LIG d   1       1.180  83.493 110.475  0.00  0.00     0.161 C 
ATOM      2  C   LIG d   1       1.874  84.713 110.420  0.00  0.00     0.016 C 
ATOM      3  C   LIG d   1       2.479  85.315 111.547  0.00  0.00     0.038 C 
ATOM      4  C   LIG d   1       2.561  84.659 112.785  0.00  0.00     0.028 C 
ATOM      5  C   LIG d   1       1.436  83.655 113.013  0.00  0.00    -0.047 C 
ATOM      6  C   LIG d   1       1.354  82.709 111.793  0.00  0.00     0.091 C 
ENDROOT
BRANCH   1   7
ATOM      7  O   LIG d   1       1.547  82.670 109.350  0.00  0.00    -0.368 OA
BRANCH   7   8
ATOM      8  C   LIG d   1       2.701  81.814 109.537  0.00  0.00     0.119 C 
BRANCH   8   9
ATOM      9  C   LIG d   1       3.758  82.228 108.494  0.00  0.00     0.028 C 
ATOM     10  C   LIG d   1       5.135  82.489 109.126  0.00  0.00     0.006 C 
ENDBRANCH   8   9
BRANCH   8  11
ATOM     11  C   LIG d   1       2.368  80.353 109.220  0.00  0.00     0.028 C 
ATOM     12  C   LIG d   1       0.916  80.160 108.755  0.00  0.00     0.006 C 
ENDBRANCH   8  11
ENDBRANCH   7   8
ENDBRANCH   1   7
BRANCH   6  13
ATOM     13  N   LIG d   1       0.225  81.748 111.896  0.00  0.00    -0.311 N 
ATOM     14  C   LIG d   1       0.357  80.510 112.371  0.00  0.00     0.210 C 
ATOM     15  C   LIG d   1      -0.929  79.678 112.372  0.00  0.00     0.109 C 
ATOM     16  O   LIG d   1       1.410  80.034 112.820  0.00  0.00    -0.276 OA
ATOM     17  H   LIG d   1      -0.673  82.062 111.583  0.00  0.00     0.149 HD
ENDBRANCH   6  13
BRANCH   5  18
ATOM     18  N   LIG d   1       1.720  82.947 114.275  0.00  0.00     0.381 N 
ATOM     19  H   LIG d   1       1.055  83.217 114.972  0.00  0.00    -0.090 HD
ATOM     20  H   LIG d   1       2.636  83.208 114.595  0.00  0.00    -0.090 HD
ATOM     21  H   LIG d   1       1.679  81.962 114.131  0.00  0.00    -0.090 HD
ENDBRANCH   5  18
BRANCH   3  22
ATOM     22  C   LIG d   1       2.977  86.606 111.452  0.00  0.00     0.382 C 
ATOM     23  O   LIG d   1       4.203  86.819 111.607  0.00  0.00    -0.241 OA
ATOM     24  O   LIG d   1       2.208  87.567 111.258  0.00  0.00    -0.241 OA
ENDBRANCH   3  22
TORSDOF 7
ENDMDL
MODEL 2
REMARK VINA RESULT:      -6.3      2.429      5.664
REMARK  7 active torsions:
REMARK  status: ('A' for Active; 'I' for Inactive)
REMARK    1  A    between atoms: C_2  and  C_3 
REMARK    2  A    between atoms: C_3  and  O_6 
REMARK    3  A    between atoms: C_3  and  C_4 
REMARK    4  A    between atoms: C_7  and  O_6 
REMARK    5  A    between atoms: C_9  and  C_10 
REMARK    6  A    between atoms: N_15  and  C_14 
REMARK    7  A    between atoms: N_20  and  C_19 
REMARK       I    between atoms: C_22  and  N_20 
ROOT
ATOM      1  C   LIG d   1       0.396  82.458 111.175  0.00  0.00     0.161 C 
ATOM      2  C   LIG d   1      -0.771  82.102 111.871  0.00  0.00     0.016 C 
ATOM      3  C   LIG d   1      -1.315  80.797 111.862  0.00  0.00     0.038 C 
ATOM      4  C   LIG d   1      -0.639  79.716 111.276  0.00  0.00     0.028 C 
ATOM      5  C   LIG d   1       0.285  80.127 110.135  0.00  0.00    -0.047 C 
ATOM      6  C   LIG d   1       1.207  81.268 110.622  0.00  0.00     0.091 C 
ENDROOT
BRANCH   1   7
ATOM      7  O   LIG d   1       1.229  83.286 112.010  0.00  0.00    -0.368 OA
BRANCH   7   8
ATOM      8  C   LIG d   1       1.365  84.670 111.602  0.00  0.00     0.119 C 
BRANCH   8   9
ATOM      9  C   LIG d   1       0.592  84.840 110.280  0.00  0.00     0.028 C 
ATOM     10  C   LIG d   1      -0.346  86.059 110.302  0.00  0.00     0.006 C 
ENDBRANCH   8   9
BRANCH   8  11
ATOM     11  C   LIG d   1       2.821  85.011 111.268  0.00  0.00     0.028 C 
ATOM     12  C   LIG d   1       3.826  84.294 112.183  0.00  0.00     0.006 C 
ENDBRANCH   8  11
ENDBRANCH   7   8
ENDBRANCH   1   7
BRANCH   6  13
ATOM     13  N   LIG d   1       2.086  81.786 109.541  0.00  0.00    -0.311 N 
ATOM     14  C   LIG d   1       3.415  81.703 109.574  0.00  0.00     0.210 C 
ATOM     15  C   LIG d   1       4.131  82.319 108.367  0.00  0.00     0.109 C 
ATOM     16  O   LIG d   1       4.067  81.150 110.472  0.00  0.00    -0.276 OA
ATOM     17  H   LIG d   1       1.638  82.223 108.759  0.00  0.00     0.149 HD
ENDBRANCH   6  13
BRANCH   5  18
ATOM     18  N   LIG d   1       1.027  78.925 109.708  0.00  0.00     0.381 N 
ATOM     19  H   LIG d   1       0.503  78.104 109.937  0.00  0.00    -0.090 HD
ATOM     20  H   LIG d   1       1.901  78.890 110.203  0.00  0.00    -0.090 HD
ATOM     21  H   LIG d   1       1.194  78.958 108.726  0.00  0.00    -0.090 HD
ENDBRANCH   5  18
BRANCH   3  22
ATOM     22  C   LIG d   1      -2.568  80.570 112.411  0.00  0.00     0.382 C 
ATOM     23  O   LIG d   1      -3.467  81.438 112.300  0.00  0.00    -0.241 OA
ATOM     24  O   LIG d   1      -2.797  79.529 113.055  0.00  0.00    -0.241 OA
ENDBRANCH   3  22
TORSDOF 7
ENDMDL
MODEL 3
REMARK VINA RESULT:      -6.1      2.403      4.539
REMARK  7 active torsions:
REMARK  status: ('A' for Active; 'I' for Inactive)
REMARK    1  A    between atoms: C_2  and  C_3 
REMARK    2  A    between atoms: C_3  and  O_6 
REMARK    3  A    between atoms: C_3  and  C_4 
REMARK    4  A    between atoms: C_7  and  O_6 
REMARK    5  A    between atoms: C_9  and  C_10 
REMARK    6  A    between atoms: N_15  and  C_14 
REMARK    7  A    between atoms: N_20  and  C_19 
REMARK       I    between atoms: C_22  and  N_20 
ROOT
ATOM      1  C   LIG d   1       1.391  81.673 111.678  0.00  0.00     0.161 C 
ATOM      2  C   LIG d   1       2.505  82.216 111.016  0.00  0.00     0.016 C 
ATOM      3  C   LIG d   1       2.722  82.087 109.625  0.00  0.00     0.038 C 
ATOM      4  C   LIG d   1       1.756  81.533 108.772  0.00  0.00     0.028 C 
ATOM      5  C   LIG d   1       0.846  80.523 109.462  0.00  0.00    -0.047 C 
ATOM      6  C   LIG d   1       0.271  81.162 110.748  0.00  0.00     0.091 C 
ENDROOT
BRANCH   1   7
ATOM      7  O   LIG d   1       0.865  82.634 112.615  0.00  0.00    -0.368 OA
BRANCH   7   8
ATOM      8  C   LIG d   1       1.148  84.025 112.329  0.00  0.00     0.119 C 
BRANCH   8   9
ATOM      9  C   LIG d   1       1.467  84.718 113.668  0.00  0.00     0.028 C 
ATOM     10  C   LIG d   1       0.970  86.173 113.709  0.00  0.00     0.006 C 
ENDBRANCH   8   9
BRANCH   8  11
ATOM     11  C   LIG d   1      -0.089  84.746 111.784  0.00  0.00     0.028 C 
ATOM     12  C   LIG d   1      -0.031  84.961 110.264  0.00  0.00     0.006 C 
ENDBRANCH   8  11
ENDBRANCH   7   8
ENDBRANCH   1   7
BRANCH   6  13
ATOM     13  N   LIG d   1      -0.563  80.212 111.529  0.00  0.00    -0.311 N 
ATOM     14  C   LIG d   1      -1.702  80.558 112.127  0.00  0.00     0.210 C 
ATOM     15  C   LIG d   1      -2.396  79.430 112.897  0.00  0.00     0.109 C 
ATOM     16  O   LIG d   1      -2.220  81.683 112.066  0.00  0.00    -0.276 OA
ATOM     17  H   LIG d   1      -0.234  79.270 111.603  0.00  0.00     0.149 HD
ENDBRANCH   6  13
BRANCH   5  18
ATOM     18  N   LIG d   1      -0.198  80.130 108.497  0.00  0.00     0.381 N 
ATOM     19  H   LIG d   1      -0.929  80.813 108.490  0.00  0.00    -0.090 HD
ATOM     20  H   LIG d   1      -0.590  79.250 108.783  0.00  0.00    -0.090 HD
ATOM     21  H   LIG d   1       0.196  80.046 107.585  0.00  0.00    -0.090 HD
ENDBRANCH   5  18
BRANCH   3  22
ATOM     22  C   LIG d   1       3.935  82.480 109.079  0.00  0.00     0.382 C 
ATOM     23  O   LIG d   1       4.394  81.883 108.076  0.00  0.00    -0.241 OA
ATOM     24  O   LIG d   1       4.597  83.396 109.604  0.00  0.00    -0.241 OA
ENDBRANCH   3  22
TORSDOF 7
ENDMDL
MODEL 4
REMARK VINA RESULT:      -6.1      2.148      3.211
REMARK  7 active torsions:
REMARK  status: ('A' for Active; 'I' for Inactive)
REMARK    1  A    between atoms: C_2  and  C_3 
REMARK    2  A    between atoms: C_3  and  O_6 
REMARK    3  A    between atoms: C_3  and  C_4 
REMARK    4  A    between atoms: C_7  and  O_6 
REMARK    5  A    between atoms: C_9  and  C_10 
REMARK    6  A    between atoms: N_15  and  C_14 
REMARK    7  A    between atoms: N_20  and  C_19 
REMARK       I    between atoms: C_22  and  N_20 
ROOT
ATOM      1  C   LIG d   1       1.339  83.718 109.692  0.00  0.00     0.161 C 
ATOM      2  C   LIG d   1       0.942  84.883 110.369  0.00  0.00     0.016 C 
ATOM      3  C   LIG d   1       0.063  84.878 111.476  0.00  0.00     0.038 C 
ATOM      4  C   LIG d   1      -0.363  83.686 112.080  0.00  0.00     0.028 C 
ATOM      5  C   LIG d   1      -0.392  82.499 111.123  0.00  0.00    -0.047 C 
ATOM      6  C   LIG d   1       0.974  82.399 110.406  0.00  0.00     0.091 C 
ENDROOT
BRANCH   1   7
ATOM      7  O   LIG d   1       2.755  83.767 109.424  0.00  0.00    -0.368 OA
BRANCH   7   8
ATOM      8  C   LIG d   1       3.622  83.310 110.491  0.00  0.00     0.119 C 
BRANCH   8   9
ATOM      9  C   LIG d   1       4.109  84.555 111.258  0.00  0.00     0.028 C 
ATOM     10  C   LIG d   1       3.801  84.476 112.762  0.00  0.00     0.006 C 
ENDBRANCH   8   9
BRANCH   8  11
ATOM     11  C   LIG d   1       4.889  82.653 109.936  0.00  0.00     0.028 C 
ATOM     12  C   LIG d   1       4.748  82.235 108.464  0.00  0.00     0.006 C 
ENDBRANCH   8  11
ENDBRANCH   7   8
ENDBRANCH   1   7
BRANCH   6  13
ATOM     13  N   LIG d   1       1.003  81.316 109.389  0.00  0.00    -0.311 N 
ATOM     14  C   LIG d   1       1.797  80.250 109.476  0.00  0.00     0.210 C 
ATOM     15  C   LIG d   1       1.683  79.262 108.311  0.00  0.00     0.109 C 
ATOM     16  O   LIG d   1       2.561  80.013 110.424  0.00  0.00    -0.276 OA
ATOM     17  H   LIG d   1       0.391  81.412 108.602  0.00  0.00     0.149 HD
ENDBRANCH   6  13
BRANCH   5  18
ATOM     18  N   LIG d   1      -0.718  81.297 111.913  0.00  0.00     0.381 N 
ATOM     19  H   LIG d   1      -1.645  80.989 111.694  0.00  0.00    -0.090 HD
ATOM     20  H   LIG d   1      -0.687  81.531 112.890  0.00  0.00    -0.090 HD
ATOM     21  H   LIG d   1      -0.065  80.572 111.717  0.00  0.00    -0.090 HD
ENDBRANCH   5  18
BRANCH   3  22
ATOM     22  C   LIG d   1      -0.432  86.078 111.966  0.00  0.00     0.382 C 
ATOM     23  O   LIG d   1      -0.142  86.447 113.129  0.00  0.00    -0.241 OA
ATOM     24  O   LIG d   1      -1.201  86.773 111.275  0.00  0.00    -0.241 OA
ENDBRANCH   3  22
TORSDOF 7
ENDMDL
MODEL 5
REMARK VINA RESULT:      -6.1      2.027      4.825
REMARK  7 active torsions:
REMARK  status: ('A' for Active; 'I' for Inactive)
REMARK    1  A    between atoms: C_2  and  C_3 
REMARK    2  A    between atoms: C_3  and  O_6 
REMARK    3  A    between atoms: C_3  and  C_4 
REMARK    4  A    between atoms: C_7  and  O_6 
REMARK    5  A    between atoms: C_9  and  C_10 
REMARK    6  A    between atoms: N_15  and  C_14 
REMARK    7  A    between atoms: N_20  and  C_19 
REMARK       I    between atoms: C_22  and  N_20 
ROOT
ATOM      1  C   LIG d   1       2.342  83.407 111.353  0.00  0.00     0.161 C 
ATOM      2  C   LIG d   1       1.325  82.442 111.260  0.00  0.00     0.016 C 
ATOM      3  C   LIG d   1      -0.005  82.669 111.684  0.00  0.00     0.038 C 
ATOM      4  C   LIG d   1      -0.446  83.937 112.092  0.00  0.00     0.028 C 
ATOM      5  C   LIG d   1       0.662  84.805 112.677  0.00  0.00    -0.047 C 
ATOM      6  C   LIG d   1       1.853  84.830 111.692  0.00  0.00     0.091 C 
ENDROOT
BRANCH   1   7
ATOM      7  O   LIG d   1       3.116  83.419 110.137  0.00  0.00    -0.368 OA
BRANCH   7   8
ATOM      8  C   LIG d   1       2.665  82.530 109.085  0.00  0.00     0.119 C 
BRANCH   8   9
ATOM      9  C   LIG d   1       3.906  81.811 108.523  0.00  0.00     0.028 C 
ATOM     10  C   LIG d   1       5.210  82.568 108.825  0.00  0.00     0.006 C 
ENDBRANCH   8   9
BRANCH   8  11
ATOM     11  C   LIG d   1       2.081  83.314 107.906  0.00  0.00     0.028 C 
ATOM     12  C   LIG d   1       1.296  84.560 108.348  0.00  0.00     0.006 C 
ENDBRANCH   8  11
ENDBRANCH   7   8
ENDBRANCH   1   7
BRANCH   6  13
ATOM     13  N   LIG d   1       3.014  85.589 112.226  0.00  0.00    -0.311 N 
ATOM     14  C   LIG d   1       3.187  86.896 112.033  0.00  0.00     0.210 C 
ATOM     15  C   LIG d   1       4.462  87.477 112.652  0.00  0.00     0.109 C 
ATOM     16  O   LIG d   1       2.390  87.634 111.436  0.00  0.00    -0.276 OA
ATOM     17  H   LIG d   1       3.695  85.073 112.749  0.00  0.00     0.149 HD
ENDBRANCH   6  13
BRANCH   5  18
ATOM     18  N   LIG d   1       0.094  86.142 112.932  0.00  0.00     0.381 N 
ATOM     19  H   LIG d   1      -0.878  86.060 113.154  0.00  0.00    -0.090 HD
ATOM     20  H   LIG d   1       0.182  86.697 112.099  0.00  0.00    -0.090 HD
ATOM     21  H   LIG d   1       0.578  86.580 113.685  0.00  0.00    -0.090 HD
ENDBRANCH   5  18
BRANCH   3  22
ATOM     22  C   LIG d   1      -0.899  81.611 111.739  0.00  0.00     0.382 C 
ATOM     23  O   LIG d   1      -0.568  80.486 111.292  0.00  0.00    -0.241 OA
ATOM     24  O   LIG d   1      -2.048  81.778 112.189  0.00  0.00    -0.241 OA
ENDBRANCH   3  22
TORSDOF 7
ENDMDL
MODEL 6
REMARK VINA RESULT:      -5.5      2.365      5.486
REMARK  7 active torsions:
REMARK  status: ('A' for Active; 'I' for Inactive)
REMARK    1  A    between atoms: C_2  and  C_3 
REMARK    2  A    between atoms: C_3  and  O_6 
REMARK    3  A    between atoms: C_3  and  C_4 
REMARK    4  A    between atoms: C_7  and  O_6 
REMARK    5  A    between atoms: C_9  and  C_10 
REMARK    6  A    between atoms: N_15  and  C_14 
REMARK    7  A    between atoms: N_20  and  C_19 
REMARK       I    between atoms: C_22  and  N_20 
ROOT
ATOM      1  C   LIG d   1       0.895  83.073 110.628  0.00  0.00     0.161 C 
ATOM      2  C   LIG d   1      -0.280  82.612 111.245  0.00  0.00     0.016 C 
ATOM      3  C   LIG d   1      -0.539  81.246 111.503  0.00  0.00     0.038 C 
ATOM      4  C   LIG d   1       0.433  80.255 111.295  0.00  0.00     0.028 C 
ATOM      5  C   LIG d   1       1.440  80.613 110.207  0.00  0.00    -0.047 C 
ATOM      6  C   LIG d   1       2.013  82.019 110.496  0.00  0.00     0.091 C 
ENDROOT
BRANCH   1   7
ATOM      7  O   LIG d   1       1.384  84.239 111.320  0.00  0.00    -0.368 OA
BRANCH   7   8
ATOM      8  C   LIG d   1       1.785  85.354 110.486  0.00  0.00     0.119 C 
BRANCH   8   9
ATOM      9  C   LIG d   1       1.683  86.632 111.341  0.00  0.00     0.028 C 
ATOM     10  C   LIG d   1       1.551  86.325 112.842  0.00  0.00     0.006 C 
ENDBRANCH   8   9
BRANCH   8  11
ATOM     11  C   LIG d   1       0.807  85.562 109.326  0.00  0.00     0.028 C 
ATOM     12  C   LIG d   1      -0.580  86.029 109.793  0.00  0.00     0.006 C 
ENDBRANCH   8  11
ENDBRANCH   7   8
ENDBRANCH   1   7
BRANCH   6  13
ATOM     13  N   LIG d   1       2.944  82.481 109.434  0.00  0.00    -0.311 N 
ATOM     14  C   LIG d   1       4.262  82.298 109.484  0.00  0.00     0.210 C 
ATOM     15  C   LIG d   1       5.040  82.870 108.294  0.00  0.00     0.109 C 
ATOM     16  O   LIG d   1       4.858  81.688 110.384  0.00  0.00    -0.276 OA
ATOM     17  H   LIG d   1       2.542  82.958 108.651  0.00  0.00     0.149 HD
ENDBRANCH   6  13
BRANCH   5  18
ATOM     18  N   LIG d   1       2.472  79.559 110.192  0.00  0.00     0.381 N 
ATOM     19  H   LIG d   1       2.054  78.679 109.966  0.00  0.00    -0.090 HD
ATOM     20  H   LIG d   1       2.879  79.489 111.108  0.00  0.00    -0.090 HD
ATOM     21  H   LIG d   1       3.177  79.782 109.523  0.00  0.00    -0.090 HD
ENDBRANCH   5  18
BRANCH   3  22
ATOM     22  C   LIG d   1      -1.796  80.854 111.936  0.00  0.00     0.382 C 
ATOM     23  O   LIG d   1      -2.153  79.656 111.825  0.00  0.00    -0.241 OA
ATOM     24  O   LIG d   1      -2.596  81.692 112.394  0.00  0.00    -0.241 OA
ENDBRANCH   3  22
TORSDOF 7
ENDMDL
MODEL 7
REMARK VINA RESULT:      -5.4      2.240      5.580
REMARK  7 active torsions:
REMARK  status: ('A' for Active; 'I' for Inactive)
REMARK    1  A    between atoms: C_2  and  C_3 
REMARK    2  A    between atoms: C_3  and  O_6 
REMARK    3  A    between atoms: C_3  and  C_4 
REMARK    4  A    between atoms: C_7  and  O_6 
REMARK    5  A    between atoms: C_9  and  C_10 
REMARK    6  A    between atoms: N_15  and  C_14 
REMARK    7  A    between atoms: N_20  and  C_19 
REMARK       I    between atoms: C_22  and  N_20 
ROOT
ATOM      1  C   LIG d   1       3.025  83.978 111.351  0.00  0.00     0.161 C 
ATOM      2  C   LIG d   1       3.868  83.071 110.687  0.00  0.00     0.016 C 
ATOM      3  C   LIG d   1       3.390  81.995 109.904  0.00  0.00     0.038 C 
ATOM      4  C   LIG d   1       2.028  81.842 109.606  0.00  0.00     0.028 C 
ATOM      5  C   LIG d   1       1.106  82.436 110.666  0.00  0.00    -0.047 C 
ATOM      6  C   LIG d   1       1.538  83.893 110.948  0.00  0.00     0.091 C 
ENDROOT
BRANCH   1   7
ATOM      7  O   LIG d   1       3.517  85.321 111.173  0.00  0.00    -0.368 OA
BRANCH   7   8
ATOM      8  C   LIG d   1       4.163  85.921 112.323  0.00  0.00     0.119 C 
BRANCH   8   9
ATOM      9  C   LIG d   1       3.755  85.102 113.563  0.00  0.00     0.028 C 
ATOM     10  C   LIG d   1       2.888  85.911 114.542  0.00  0.00     0.006 C 
ENDBRANCH   8   9
BRANCH   8  11
ATOM     11  C   LIG d   1       3.639  87.336 112.582  0.00  0.00     0.028 C 
ATOM     12  C   LIG d   1       4.740  88.304 113.045  0.00  0.00     0.006 C 
ENDBRANCH   8  11
ENDBRANCH   7   8
ENDBRANCH   1   7
BRANCH   6  13
ATOM     13  N   LIG d   1       0.741  84.521 112.034  0.00  0.00    -0.311 N 
ATOM     14  C   LIG d   1       0.150  85.709 111.916  0.00  0.00     0.210 C 
ATOM     15  C   LIG d   1      -0.605  86.181 113.162  0.00  0.00     0.109 C 
ATOM     16  O   LIG d   1       0.153  86.402 110.887  0.00  0.00    -0.276 OA
ATOM     17  H   LIG d   1       0.661  84.014 112.893  0.00  0.00     0.149 HD
ENDBRANCH   6  13
BRANCH   5  18
ATOM     18  N   LIG d   1      -0.277  82.330 110.165  0.00  0.00     0.381 N 
ATOM     19  H   LIG d   1      -0.272  82.284 109.165  0.00  0.00    -0.090 HD
ATOM     20  H   LIG d   1      -0.787  83.151 110.441  0.00  0.00    -0.090 HD
ATOM     21  H   LIG d   1      -0.714  81.517 110.539  0.00  0.00    -0.090 HD
ENDBRANCH   5  18
BRANCH   3  22
ATOM     22  C   LIG d   1       4.277  81.035 109.442  0.00  0.00     0.382 C 
ATOM     23  O   LIG d   1       5.213  81.363 108.673  0.00  0.00    -0.241 OA
ATOM     24  O   LIG d   1       4.127  79.837 109.748  0.00  0.00    -0.241 OA
ENDBRANCH   3  22
TORSDOF 7
ENDMDL
MODEL 8
REMARK VINA RESULT:      -5.3      2.574      4.495
REMARK  7 active torsions:
REMARK  status: ('A' for Active; 'I' for Inactive)
REMARK    1  A    between atoms: C_2  and  C_3 
REMARK    2  A    between atoms: C_3  and  O_6 
REMARK    3  A    between atoms: C_3  and  C_4 
REMARK    4  A    between atoms: C_7  and  O_6 
REMARK    5  A    between atoms: C_9  and  C_10 
REMARK    6  A    between atoms: N_15  and  C_14 
REMARK    7  A    between atoms: N_20  and  C_19 
REMARK       I    between atoms: C_22  and  N_20 
ROOT
ATOM      1  C   LIG d   1       0.229  82.270 111.409  0.00  0.00     0.161 C 
ATOM      2  C   LIG d   1      -0.143  83.484 112.011  0.00  0.00     0.016 C 
ATOM      3  C   LIG d   1       0.084  84.747 111.418  0.00  0.00     0.038 C 
ATOM      4  C   LIG d   1       0.566  84.875 110.107  0.00  0.00     0.028 C 
ATOM      5  C   LIG d   1       1.424  83.697 109.659  0.00  0.00    -0.047 C 
ATOM      6  C   LIG d   1       0.655  82.384 109.931  0.00  0.00     0.091 C 
ENDROOT
BRANCH   1   7
ATOM      7  O   LIG d   1      -0.835  81.308 111.552  0.00  0.00    -0.368 OA
BRANCH   7   8
ATOM      8  C   LIG d   1      -0.442  79.982 111.983  0.00  0.00     0.119 C 
BRANCH   8   9
ATOM      9  C   LIG d   1      -1.603  79.403 112.815  0.00  0.00     0.028 C 
ATOM     10  C   LIG d   1      -2.636  78.664 111.947  0.00  0.00     0.006 C 
ENDBRANCH   8   9
BRANCH   8  11
ATOM     11  C   LIG d   1       0.753  80.038 112.939  0.00  0.00     0.028 C 
ATOM     12  C   LIG d   1       0.465  79.371 114.293  0.00  0.00     0.006 C 
ENDBRANCH   8  11
ENDBRANCH   7   8
ENDBRANCH   1   7
BRANCH   6  13
ATOM     13  N   LIG d   1       1.457  81.178 109.599  0.00  0.00    -0.311 N 
ATOM     14  C   LIG d   1       1.014  80.195 108.817  0.00  0.00     0.210 C 
ATOM     15  C   LIG d   1       1.993  79.034 108.620  0.00  0.00     0.109 C 
ATOM     16  O   LIG d   1      -0.085  80.190 108.242  0.00  0.00    -0.276 OA
ATOM     17  H   LIG d   1       2.373  81.116 109.998  0.00  0.00     0.149 HD
ENDBRANCH   6  13
BRANCH   5  18
ATOM     18  N   LIG d   1       1.744  83.896 108.233  0.00  0.00     0.381 N 
ATOM     19  H   LIG d   1       2.279  84.733 108.119  0.00  0.00    -0.090 HD
ATOM     20  H   LIG d   1       0.886  83.997 107.719  0.00  0.00    -0.090 HD
ATOM     21  H   LIG d   1       2.257  83.115 107.886  0.00  0.00    -0.090 HD
ENDBRANCH   5  18
BRANCH   3  22
ATOM     22  C   LIG d   1      -0.134  85.901 112.156  0.00  0.00     0.382 C 
ATOM     23  O   LIG d   1       0.837  86.524 112.647  0.00  0.00    -0.241 OA
ATOM     24  O   LIG d   1      -1.293  86.302 112.373  0.00  0.00    -0.241 OA
ENDBRANCH   3  22
TORSDOF 7
ENDMDL
MODEL 9
REMARK VINA RESULT:      -5.2      2.547      4.244
REMARK  7 active torsions:
REMARK  status: ('A' for Active; 'I' for Inactive)
REMARK    1  A    between atoms: C_2  and  C_3 
REMARK    2  A    between atoms: C_3  and  O_6 
REMARK    3  A    between atoms: C_3  and  C_4 
REMARK    4  A    between atoms: C_7  and  O_6 
REMARK    5  A    between atoms: C_9  and  C_10 
REMARK    6  A    between atoms: N_15  and  C_14 
REMARK    7  A    between atoms: N_20  and  C_19 
REMARK       I    between atoms: C_22  and  N_20 
ROOT
ATOM      1  C   LIG d   1       0.612  82.135 110.602  0.00  0.00     0.161 C 
ATOM      2  C   LIG d   1       0.134  83.423 110.892  0.00  0.00     0.016 C 
ATOM      3  C   LIG d   1       0.481  84.570 110.141  0.00  0.00     0.038 C 
ATOM      4  C   LIG d   1       1.216  84.480 108.950  0.00  0.00     0.028 C 
ATOM      5  C   LIG d   1       2.140  83.268 108.897  0.00  0.00    -0.047 C 
ATOM      6  C   LIG d   1       1.325  82.001 109.241  0.00  0.00     0.091 C 
ENDROOT
BRANCH   1   7
ATOM      7  O   LIG d   1      -0.464  81.181 110.700  0.00  0.00    -0.368 OA
BRANCH   7   8
ATOM      8  C   LIG d   1      -0.553  80.445 111.945  0.00  0.00     0.119 C 
BRANCH   8   9
ATOM      9  C   LIG d   1       0.880  80.284 112.491  0.00  0.00     0.028 C 
ATOM     10  C   LIG d   1       0.903  79.711 113.918  0.00  0.00     0.006 C 
ENDBRANCH   8   9
BRANCH   8  11
ATOM     11  C   LIG d   1      -1.061  79.019 111.715  0.00  0.00     0.028 C 
ATOM     12  C   LIG d   1      -2.580  78.889 111.915  0.00  0.00     0.006 C 
ENDBRANCH   8  11
ENDBRANCH   7   8
ENDBRANCH   1   7
BRANCH   6  13
ATOM     13  N   LIG d   1       2.171  80.780 109.294  0.00  0.00    -0.311 N 
ATOM     14  C   LIG d   1       3.341  80.726 109.928  0.00  0.00     0.210 C 
ATOM     15  C   LIG d   1       4.061  79.377 109.843  0.00  0.00     0.109 C 
ATOM     16  O   LIG d   1       3.835  81.658 110.581  0.00  0.00    -0.276 OA
ATOM     17  H   LIG d   1       1.831  79.968 108.817  0.00  0.00     0.149 HD
ENDBRANCH   6  13
BRANCH   5  18
ATOM     18  N   LIG d   1       2.739  83.223 107.550  0.00  0.00     0.381 N 
ATOM     19  H   LIG d   1       2.399  83.987 107.002  0.00  0.00    -0.090 HD
ATOM     20  H   LIG d   1       2.466  82.367 107.101  0.00  0.00    -0.090 HD
ATOM     21  H   LIG d   1       3.732  83.270 107.617  0.00  0.00    -0.090 HD
ENDBRANCH   5  18
BRANCH   3  22
ATOM     22  C   LIG d   1       0.126  85.828 110.604  0.00  0.00     0.382 C 
ATOM     23  O   LIG d   1      -1.021  86.281 110.370  0.00  0.00    -0.241 OA
ATOM     24  O   LIG d   1       0.952  86.534 111.212  0.00  0.00    -0.241 OA
ENDBRANCH   3  22
TORSDOF 7
ENDMDL
