MODEL 1
REMARK VINA RESULT:      -7.0      0.000      0.000
REMARK  7 active torsions:
REMARK  status: ('A' for Active; 'I' for Inactive)
REMARK    1  A    between atoms: C_2  and  C_3 
REMARK    2  A    between atoms: C_3  and  O_6 
REMARK    3  A    between atoms: C_3  and  C_4 
REMARK    4  A    between atoms: C_7  and  O_6 
REMARK    5  A    between atoms: C_9  and  C_10 
REMARK    6  A    between atoms: N_15  and  C_14 
REMARK    7  A    between atoms: N_20  and  C_19 
REMARK       I    between atoms: C_22  and  N_20 
ROOT
ATOM      1  C   LIG d   1       0.873  84.104 109.176  0.00  0.00     0.161 C 
ATOM      2  C   LIG d   1       0.640  85.397 109.673  0.00  0.00     0.016 C 
ATOM      3  C   LIG d   1      -0.007  85.653 110.904  0.00  0.00     0.038 C 
ATOM      4  C   LIG d   1      -0.331  84.623 111.799  0.00  0.00     0.028 C 
ATOM      5  C   LIG d   1      -0.571  83.280 111.116  0.00  0.00    -0.047 C 
ATOM      6  C   LIG d   1       0.626  82.968 110.190  0.00  0.00     0.091 C 
ENDROOT
BRANCH   1   7
ATOM      7  O   LIG d   1       2.210  84.019 108.644  0.00  0.00    -0.368 OA
BRANCH   7   8
ATOM      8  C   LIG d   1       3.212  83.455 109.525  0.00  0.00     0.119 C 
BRANCH   8   9
ATOM      9  C   LIG d   1       4.061  84.621 110.068  0.00  0.00     0.028 C 
ATOM     10  C   LIG d   1       3.875  84.827 111.581  0.00  0.00     0.006 C 
ENDBRANCH   8   9
BRANCH   8  11
ATOM     11  C   LIG d   1       4.193  82.564 108.757  0.00  0.00     0.028 C 
ATOM     12  C   LIG d   1       4.770  81.431 109.619  0.00  0.00     0.006 C 
ENDBRANCH   8  11
ENDBRANCH   7   8
ENDBRANCH   1   7
BRANCH   6  13
ATOM     13  N   LIG d   1       0.434  81.711 109.419  0.00  0.00    -0.311 N 
ATOM     14  C   LIG d   1       0.945  80.538 109.790  0.00  0.00     0.210 C 
ATOM     15  C   LIG d   1       0.643  79.373 108.842  0.00  0.00     0.109 C 
ATOM     16  O   LIG d   1       1.592  80.346 110.830  0.00  0.00    -0.276 OA
ATOM     17  H   LIG d   1      -0.105  81.771 108.578  0.00  0.00     0.149 HD
ENDBRANCH   6  13
BRANCH   5  18
ATOM     18  N   LIG d   1      -0.763  82.271 112.174  0.00  0.00     0.381 N 
ATOM     19  H   LIG d   1      -1.738  82.080 112.288  0.00  0.00    -0.090 HD
ATOM     20  H   LIG d   1      -0.410  82.637 113.041  0.00  0.00    -0.090 HD
ATOM     21  H   LIG d   1      -0.279  81.433 111.938  0.00  0.00    -0.090 HD
ENDBRANCH   5  18
BRANCH   3  22
ATOM     22  C   LIG d   1      -0.372  86.950 111.232  0.00  0.00     0.382 C 
ATOM     23  O   LIG d   1       0.490  87.754 111.662  0.00  0.00    -0.241 OA
ATOM     24  O   LIG d   1      -1.560  87.313 111.145  0.00  0.00    -0.241 OA
ENDBRANCH   3  22
TORSDOF 7
ENDMDL
MODEL 2
REMARK VINA RESULT:      -6.3      2.504      4.555
REMARK  7 active torsions:
REMARK  status: ('A' for Active; 'I' for Inactive)
REMARK    1  A    between atoms: C_2  and  C_3 
REMARK    2  A    between atoms: C_3  and  O_6 
REMARK    3  A    between atoms: C_3  and  C_4 
REMARK    4  A    between atoms: C_7  and  O_6 
REMARK    5  A    between atoms: C_9  and  C_10 
REMARK    6  A    between atoms: N_15  and  C_14 
REMARK    7  A    between atoms: N_20  and  C_19 
REMARK       I    between atoms: C_22  and  N_20 
ROOT
ATOM      1  C   LIG d   1       0.218  82.617 111.074  0.00  0.00     0.161 C 
ATOM      2  C   LIG d   1      -0.901  82.325 111.873  0.00  0.00     0.016 C 
ATOM      3  C   LIG d   1      -1.369  81.011 112.105  0.00  0.00     0.038 C 
ATOM      4  C   LIG d   1      -0.656  79.883 111.673  0.00  0.00     0.028 C 
ATOM      5  C   LIG d   1       0.199  80.143 110.438  0.00  0.00    -0.047 C 
ATOM      6  C   LIG d   1       1.073  81.393 110.686  0.00  0.00     0.091 C 
ENDROOT
BRANCH   1   7
ATOM      7  O   LIG d   1       1.033  83.614 111.721  0.00  0.00    -0.368 OA
BRANCH   7   8
ATOM      8  C   LIG d   1       1.038  84.928 111.111  0.00  0.00     0.119 C 
BRANCH   8   9
ATOM      9  C   LIG d   1       0.290  85.883 112.061  0.00  0.00     0.028 C 
ATOM     10  C   LIG d   1      -0.806  86.687 111.342  0.00  0.00     0.006 C 
ENDBRANCH   8   9
BRANCH   8  11
ATOM     11  C   LIG d   1       0.233  84.940 109.808  0.00  0.00     0.028 C 
ATOM     12  C   LIG d   1       1.108  85.197 108.570  0.00  0.00     0.006 C 
ENDBRANCH   8  11
ENDBRANCH   7   8
ENDBRANCH   1   7
BRANCH   6  13
ATOM     13  N   LIG d   1       1.880  81.767 109.495  0.00  0.00    -0.311 N 
ATOM     14  C   LIG d   1       3.199  81.943 109.529  0.00  0.00     0.210 C 
ATOM     15  C   LIG d   1       3.833  82.346 108.194  0.00  0.00     0.109 C 
ATOM     16  O   LIG d   1       3.910  81.773 110.531  0.00  0.00    -0.276 OA
ATOM     17  H   LIG d   1       1.387  81.895 108.633  0.00  0.00     0.149 HD
ENDBRANCH   6  13
BRANCH   5  18
ATOM     18  N   LIG d   1       0.992  78.925 110.181  0.00  0.00     0.381 N 
ATOM     19  H   LIG d   1       1.901  79.177 109.849  0.00  0.00    -0.090 HD
ATOM     20  H   LIG d   1       0.535  78.385 109.467  0.00  0.00    -0.090 HD
ATOM     21  H   LIG d   1       1.071  78.387 111.015  0.00  0.00    -0.090 HD
ENDBRANCH   5  18
BRANCH   3  22
ATOM     22  C   LIG d   1      -2.586  80.818 112.742  0.00  0.00     0.382 C 
ATOM     23  O   LIG d   1      -2.711  79.900 113.588  0.00  0.00    -0.241 OA
ATOM     24  O   LIG d   1      -3.571  81.522 112.448  0.00  0.00    -0.241 OA
ENDBRANCH   3  22
TORSDOF 7
ENDMDL
MODEL 3
REMARK VINA RESULT:      -6.0      2.366      4.707
REMARK  7 active torsions:
REMARK  status: ('A' for Active; 'I' for Inactive)
REMARK    1  A    between atoms: C_2  and  C_3 
REMARK    2  A    between atoms: C_3  and  O_6 
REMARK    3  A    between atoms: C_3  and  C_4 
REMARK    4  A    between atoms: C_7  and  O_6 
REMARK    5  A    between atoms: C_9  and  C_10 
REMARK    6  A    between atoms: N_15  and  C_14 
REMARK    7  A    between atoms: N_20  and  C_19 
REMARK       I    between atoms: C_22  and  N_20 
ROOT
ATOM      1  C   LIG d   1       1.306  82.094 111.837  0.00  0.00     0.161 C 
ATOM      2  C   LIG d   1       2.390  82.652 111.139  0.00  0.00     0.016 C 
ATOM      3  C   LIG d   1       2.615  82.448 109.759  0.00  0.00     0.038 C 
ATOM      4  C   LIG d   1       1.681  81.790 108.945  0.00  0.00     0.028 C 
ATOM      5  C   LIG d   1       0.826  80.778 109.700  0.00  0.00    -0.047 C 
ATOM      6  C   LIG d   1       0.216  81.465 110.943  0.00  0.00     0.091 C 
ENDROOT
BRANCH   1   7
ATOM      7  O   LIG d   1       0.727  83.082 112.713  0.00  0.00    -0.368 OA
BRANCH   7   8
ATOM      8  C   LIG d   1       0.871  84.463 112.299  0.00  0.00     0.119 C 
BRANCH   8   9
ATOM      9  C   LIG d   1       1.141  85.299 113.564  0.00  0.00     0.028 C 
ATOM     10  C   LIG d   1       2.182  86.406 113.325  0.00  0.00     0.006 C 
ENDBRANCH   8   9
BRANCH   8  11
ATOM     11  C   LIG d   1      -0.438  85.011 111.722  0.00  0.00     0.028 C 
ATOM     12  C   LIG d   1      -0.392  85.177 110.195  0.00  0.00     0.006 C 
ENDBRANCH   8  11
ENDBRANCH   7   8
ENDBRANCH   1   7
BRANCH   6  13
ATOM     13  N   LIG d   1      -0.567  80.523 111.784  0.00  0.00    -0.311 N 
ATOM     14  C   LIG d   1      -1.710  80.852 112.385  0.00  0.00     0.210 C 
ATOM     15  C   LIG d   1      -2.345  79.738 113.221  0.00  0.00     0.109 C 
ATOM     16  O   LIG d   1      -2.273  81.952 112.278  0.00  0.00    -0.276 OA
ATOM     17  H   LIG d   1      -0.198  79.599 111.900  0.00  0.00     0.149 HD
ENDBRANCH   6  13
BRANCH   5  18
ATOM     18  N   LIG d   1      -0.193  80.268 108.763  0.00  0.00     0.381 N 
ATOM     19  H   LIG d   1      -0.676  79.495 109.175  0.00  0.00    -0.090 HD
ATOM     20  H   LIG d   1       0.264  79.947 107.928  0.00  0.00    -0.090 HD
ATOM     21  H   LIG d   1      -0.841  80.991 108.538  0.00  0.00    -0.090 HD
ENDBRANCH   5  18
BRANCH   3  22
ATOM     22  C   LIG d   1       3.805  82.870 109.187  0.00  0.00     0.382 C 
ATOM     23  O   LIG d   1       4.378  83.899 109.620  0.00  0.00    -0.241 OA
ATOM     24  O   LIG d   1       4.290  82.261 108.214  0.00  0.00    -0.241 OA
ENDBRANCH   3  22
TORSDOF 7
ENDMDL
MODEL 4
REMARK VINA RESULT:      -6.0      2.691      4.917
REMARK  7 active torsions:
REMARK  status: ('A' for Active; 'I' for Inactive)
REMARK    1  A    between atoms: C_2  and  C_3 
REMARK    2  A    between atoms: C_3  and  O_6 
REMARK    3  A    between atoms: C_3  and  C_4 
REMARK    4  A    between atoms: C_7  and  O_6 
REMARK    5  A    between atoms: C_9  and  C_10 
REMARK    6  A    between atoms: N_15  and  C_14 
REMARK    7  A    between atoms: N_20  and  C_19 
REMARK       I    between atoms: C_22  and  N_20 
ROOT
ATOM      1  C   LIG d   1       2.285  83.585 112.322  0.00  0.00     0.161 C 
ATOM      2  C   LIG d   1       1.310  82.590 112.145  0.00  0.00     0.016 C 
ATOM      3  C   LIG d   1      -0.058  82.872 111.926  0.00  0.00     0.038 C 
ATOM      4  C   LIG d   1      -0.522  84.179 111.718  0.00  0.00     0.028 C 
ATOM      5  C   LIG d   1       0.341  85.242 112.389  0.00  0.00    -0.047 C 
ATOM      6  C   LIG d   1       1.817  85.017 111.988  0.00  0.00     0.091 C 
ENDROOT
BRANCH   1   7
ATOM      7  O   LIG d   1       3.465  83.254 111.563  0.00  0.00    -0.368 OA
BRANCH   7   8
ATOM      8  C   LIG d   1       3.253  82.458 110.371  0.00  0.00     0.119 C 
BRANCH   8   9
ATOM      9  C   LIG d   1       4.449  81.495 110.239  0.00  0.00     0.028 C 
ATOM     10  C   LIG d   1       4.523  80.839 108.850  0.00  0.00     0.006 C 
ENDBRANCH   8   9
BRANCH   8  11
ATOM     11  C   LIG d   1       3.289  83.325 109.109  0.00  0.00     0.028 C 
ATOM     12  C   LIG d   1       1.893  83.565 108.511  0.00  0.00     0.006 C 
ENDBRANCH   8  11
ENDBRANCH   7   8
ENDBRANCH   1   7
BRANCH   6  13
ATOM     13  N   LIG d   1       2.740  85.963 112.668  0.00  0.00    -0.311 N 
ATOM     14  C   LIG d   1       3.078  87.148 112.163  0.00  0.00     0.210 C 
ATOM     15  C   LIG d   1       4.059  87.958 113.017  0.00  0.00     0.109 C 
ATOM     16  O   LIG d   1       2.634  87.619 111.105  0.00  0.00    -0.276 OA
ATOM     17  H   LIG d   1       3.123  85.674 113.547  0.00  0.00     0.149 HD
ENDBRANCH   6  13
BRANCH   5  18
ATOM     18  N   LIG d   1      -0.175  86.561 111.978  0.00  0.00     0.381 N 
ATOM     19  H   LIG d   1      -0.761  86.459 111.173  0.00  0.00    -0.090 HD
ATOM     20  H   LIG d   1       0.600  87.151 111.731  0.00  0.00    -0.090 HD
ATOM     21  H   LIG d   1      -0.691  86.973 112.724  0.00  0.00    -0.090 HD
ENDBRANCH   5  18
BRANCH   3  22
ATOM     22  C   LIG d   1      -0.985  81.841 111.954  0.00  0.00     0.382 C 
ATOM     23  O   LIG d   1      -0.662  80.697 111.552  0.00  0.00    -0.241 OA
ATOM     24  O   LIG d   1      -2.152  82.051 112.334  0.00  0.00    -0.241 OA
ENDBRANCH   3  22
TORSDOF 7
ENDMDL
MODEL 5
REMARK VINA RESULT:      -5.8      2.539      5.542
REMARK  7 active torsions:
REMARK  status: ('A' for Active; 'I' for Inactive)
REMARK    1  A    between atoms: C_2  and  C_3 
REMARK    2  A    between atoms: C_3  and  O_6 
REMARK    3  A    between atoms: C_3  and  C_4 
REMARK    4  A    between atoms: C_7  and  O_6 
REMARK    5  A    between atoms: C_9  and  C_10 
REMARK    6  A    between atoms: N_15  and  C_14 
REMARK    7  A    between atoms: N_20  and  C_19 
REMARK       I    between atoms: C_22  and  N_20 
ROOT
ATOM      1  C   LIG d   1       2.879  83.487 110.323  0.00  0.00     0.161 C 
ATOM      2  C   LIG d   1       3.489  82.222 110.315  0.00  0.00     0.016 C 
ATOM      3  C   LIG d   1       3.473  81.357 109.197  0.00  0.00     0.038 C 
ATOM      4  C   LIG d   1       2.971  81.765 107.952  0.00  0.00     0.028 C 
ATOM      5  C   LIG d   1       1.896  82.841 108.055  0.00  0.00    -0.047 C 
ATOM      6  C   LIG d   1       2.424  83.994 108.939  0.00  0.00     0.091 C 
ENDROOT
BRANCH   1   7
ATOM      7  O   LIG d   1       3.756  84.448 110.945  0.00  0.00    -0.368 OA
BRANCH   7   8
ATOM      8  C   LIG d   1       3.364  84.909 112.262  0.00  0.00     0.119 C 
BRANCH   8   9
ATOM      9  C   LIG d   1       2.129  84.093 112.690  0.00  0.00     0.028 C 
ATOM     10  C   LIG d   1       1.022  84.976 113.290  0.00  0.00     0.006 C 
ENDBRANCH   8   9
BRANCH   8  11
ATOM     11  C   LIG d   1       2.895  86.366 112.226  0.00  0.00     0.028 C 
ATOM     12  C   LIG d   1       4.057  87.368 112.319  0.00  0.00     0.006 C 
ENDBRANCH   8  11
ENDBRANCH   7   8
ENDBRANCH   1   7
BRANCH   6  13
ATOM     13  N   LIG d   1       1.403  85.052 109.161  0.00  0.00    -0.311 N 
ATOM     14  C   LIG d   1       0.197  84.810 109.671  0.00  0.00     0.210 C 
ATOM     15  C   LIG d   1      -0.709  86.039 109.797  0.00  0.00     0.109 C 
ATOM     16  O   LIG d   1      -0.198  83.701 110.060  0.00  0.00    -0.276 OA
ATOM     17  H   LIG d   1       1.651  85.986 108.901  0.00  0.00     0.149 HD
ENDBRANCH   6  13
BRANCH   5  18
ATOM     18  N   LIG d   1       1.562  83.270 106.684  0.00  0.00     0.381 N 
ATOM     19  H   LIG d   1       1.072  82.538 106.210  0.00  0.00    -0.090 HD
ATOM     20  H   LIG d   1       2.414  83.454 106.184  0.00  0.00    -0.090 HD
ATOM     21  H   LIG d   1       1.000  84.093 106.711  0.00  0.00    -0.090 HD
ENDBRANCH   5  18
BRANCH   3  22
ATOM     22  C   LIG d   1       3.926  80.053 109.330  0.00  0.00     0.382 C 
ATOM     23  O   LIG d   1       3.106  79.104 109.355  0.00  0.00    -0.241 OA
ATOM     24  O   LIG d   1       5.141  79.818 109.469  0.00  0.00    -0.241 OA
ENDBRANCH   3  22
TORSDOF 7
ENDMDL
MODEL 6
REMARK VINA RESULT:      -5.8      2.359      4.566
REMARK  7 active torsions:
REMARK  status: ('A' for Active; 'I' for Inactive)
REMARK    1  A    between atoms: C_2  and  C_3 
REMARK    2  A    between atoms: C_3  and  O_6 
REMARK    3  A    between atoms: C_3  and  C_4 
REMARK    4  A    between atoms: C_7  and  O_6 
REMARK    5  A    between atoms: C_9  and  C_10 
REMARK    6  A    between atoms: N_15  and  C_14 
REMARK    7  A    between atoms: N_20  and  C_19 
REMARK       I    between atoms: C_22  and  N_20 
ROOT
ATOM      1  C   LIG d   1       1.722  82.436 111.277  0.00  0.00     0.161 C 
ATOM      2  C   LIG d   1       0.578  81.637 111.444  0.00  0.00     0.016 C 
ATOM      3  C   LIG d   1      -0.680  82.151 111.831  0.00  0.00     0.038 C 
ATOM      4  C   LIG d   1      -0.919  83.530 111.933  0.00  0.00     0.028 C 
ATOM      5  C   LIG d   1       0.331  84.338 112.265  0.00  0.00    -0.047 C 
ATOM      6  C   LIG d   1       1.454  83.956 111.275  0.00  0.00     0.091 C 
ENDROOT
BRANCH   1   7
ATOM      7  O   LIG d   1       2.418  82.048 110.076  0.00  0.00    -0.368 OA
BRANCH   7   8
ATOM      8  C   LIG d   1       3.064  80.752 110.104  0.00  0.00     0.119 C 
BRANCH   8   9
ATOM      9  C   LIG d   1       4.580  80.987 109.961  0.00  0.00     0.028 C 
ATOM     10  C   LIG d   1       4.919  82.454 109.649  0.00  0.00     0.006 C 
ENDBRANCH   8   9
BRANCH   8  11
ATOM     11  C   LIG d   1       2.669  79.906 108.890  0.00  0.00     0.028 C 
ATOM     12  C   LIG d   1       1.510  78.941 109.188  0.00  0.00     0.006 C 
ENDBRANCH   8  11
ENDBRANCH   7   8
ENDBRANCH   1   7
BRANCH   6  13
ATOM     13  N   LIG d   1       2.738  84.639 111.582  0.00  0.00    -0.311 N 
ATOM     14  C   LIG d   1       3.102  85.796 111.032  0.00  0.00     0.210 C 
ATOM     15  C   LIG d   1       4.474  86.317 111.472  0.00  0.00     0.109 C 
ATOM     16  O   LIG d   1       2.406  86.457 110.247  0.00  0.00    -0.276 OA
ATOM     17  H   LIG d   1       3.350  84.188 112.233  0.00  0.00     0.149 HD
ENDBRANCH   6  13
BRANCH   5  18
ATOM     18  N   LIG d   1      -0.033  85.767 112.204  0.00  0.00     0.381 N 
ATOM     19  H   LIG d   1      -1.026  85.866 112.262  0.00  0.00    -0.090 HD
ATOM     20  H   LIG d   1       0.272  86.142 111.323  0.00  0.00    -0.090 HD
ATOM     21  H   LIG d   1       0.402  86.261 112.952  0.00  0.00    -0.090 HD
ENDBRANCH   5  18
BRANCH   3  22
ATOM     22  C   LIG d   1      -1.707  81.280 112.161  0.00  0.00     0.382 C 
ATOM     23  O   LIG d   1      -1.532  80.041 112.066  0.00  0.00    -0.241 OA
ATOM     24  O   LIG d   1      -2.819  81.717 112.511  0.00  0.00    -0.241 OA
ENDBRANCH   3  22
TORSDOF 7
ENDMDL
MODEL 7
REMARK VINA RESULT:      -5.7      1.932      4.087
REMARK  7 active torsions:
REMARK  status: ('A' for Active; 'I' for Inactive)
REMARK    1  A    between atoms: C_2  and  C_3 
REMARK    2  A    between atoms: C_3  and  O_6 
REMARK    3  A    between atoms: C_3  and  C_4 
REMARK    4  A    between atoms: C_7  and  O_6 
REMARK    5  A    between atoms: C_9  and  C_10 
REMARK    6  A    between atoms: N_15  and  C_14 
REMARK    7  A    between atoms: N_20  and  C_19 
REMARK       I    between atoms: C_22  and  N_20 
ROOT
ATOM      1  C   LIG d   1       0.409  83.013 110.590  0.00  0.00     0.161 C 
ATOM      2  C   LIG d   1      -0.145  83.922 111.507  0.00  0.00     0.016 C 
ATOM      3  C   LIG d   1      -0.296  85.302 111.241  0.00  0.00     0.038 C 
ATOM      4  C   LIG d   1      -0.040  85.845 109.973  0.00  0.00     0.028 C 
ATOM      5  C   LIG d   1       0.995  85.059 109.175  0.00  0.00    -0.047 C 
ATOM      6  C   LIG d   1       0.591  83.567 109.161  0.00  0.00     0.091 C 
ENDROOT
BRANCH   1   7
ATOM      7  O   LIG d   1      -0.378  81.806 110.562  0.00  0.00    -0.368 OA
BRANCH   7   8
ATOM      8  C   LIG d   1       0.221  80.641 111.183  0.00  0.00     0.119 C 
BRANCH   8   9
ATOM      9  C   LIG d   1      -0.096  79.426 110.289  0.00  0.00     0.028 C 
ATOM     10  C   LIG d   1       0.917  79.260 109.144  0.00  0.00     0.006 C 
ENDBRANCH   8   9
BRANCH   8  11
ATOM     11  C   LIG d   1      -0.431  80.332 112.534  0.00  0.00     0.028 C 
ATOM     12  C   LIG d   1      -1.837  79.728 112.392  0.00  0.00     0.006 C 
ENDBRANCH   8  11
ENDBRANCH   7   8
ENDBRANCH   1   7
BRANCH   6  13
ATOM     13  N   LIG d   1       1.595  82.714 108.473  0.00  0.00    -0.311 N 
ATOM     14  C   LIG d   1       2.855  82.589 108.883  0.00  0.00     0.210 C 
ATOM     15  C   LIG d   1       3.729  81.676 108.018  0.00  0.00     0.109 C 
ATOM     16  O   LIG d   1       3.324  83.122 109.900  0.00  0.00    -0.276 OA
ATOM     17  H   LIG d   1       1.291  82.221 107.656  0.00  0.00     0.149 HD
ENDBRANCH   6  13
BRANCH   5  18
ATOM     18  N   LIG d   1       1.063  85.653 107.827  0.00  0.00     0.381 N 
ATOM     19  H   LIG d   1       2.000  85.947 107.633  0.00  0.00    -0.090 HD
ATOM     20  H   LIG d   1       0.466  86.461 107.797  0.00  0.00    -0.090 HD
ATOM     21  H   LIG d   1       0.768  84.988 107.146  0.00  0.00    -0.090 HD
ENDBRANCH   5  18
BRANCH   3  22
ATOM     22  C   LIG d   1      -0.669  86.162 112.263  0.00  0.00     0.382 C 
ATOM     23  O   LIG d   1      -1.754  86.788 112.190  0.00  0.00    -0.241 OA
ATOM     24  O   LIG d   1       0.085  86.354 113.235  0.00  0.00    -0.241 OA
ENDBRANCH   3  22
TORSDOF 7
ENDMDL
MODEL 8
REMARK VINA RESULT:      -5.6      2.194      3.371
REMARK  7 active torsions:
REMARK  status: ('A' for Active; 'I' for Inactive)
REMARK    1  A    between atoms: C_2  and  C_3 
REMARK    2  A    between atoms: C_3  and  O_6 
REMARK    3  A    between atoms: C_3  and  C_4 
REMARK    4  A    between atoms: C_7  and  O_6 
REMARK    5  A    between atoms: C_9  and  C_10 
REMARK    6  A    between atoms: N_15  and  C_14 
REMARK    7  A    between atoms: N_20  and  C_19 
REMARK       I    between atoms: C_22  and  N_20 
ROOT
ATOM      1  C   LIG d   1       0.986  82.719 110.331  0.00  0.00     0.161 C 
ATOM      2  C   LIG d   1       1.691  83.908 110.084  0.00  0.00     0.016 C 
ATOM      3  C   LIG d   1       2.418  84.603 111.078  0.00  0.00     0.038 C 
ATOM      4  C   LIG d   1       2.614  84.071 112.361  0.00  0.00     0.028 C 
ATOM      5  C   LIG d   1       1.503  83.124 112.800  0.00  0.00    -0.047 C 
ATOM      6  C   LIG d   1       1.280  82.064 111.697  0.00  0.00     0.091 C 
ENDROOT
BRANCH   1   7
ATOM      7  O   LIG d   1       1.223  81.779 109.264  0.00  0.00    -0.368 OA
BRANCH   7   8
ATOM      8  C   LIG d   1       2.380  80.921 109.416  0.00  0.00     0.119 C 
BRANCH   8   9
ATOM      9  C   LIG d   1       3.370  81.275 108.289  0.00  0.00     0.028 C 
ATOM     10  C   LIG d   1       4.564  82.102 108.796  0.00  0.00     0.006 C 
ENDBRANCH   8   9
BRANCH   8  11
ATOM     11  C   LIG d   1       2.017  79.450 109.189  0.00  0.00     0.028 C 
ATOM     12  C   LIG d   1       0.519  79.243 108.910  0.00  0.00     0.006 C 
ENDBRANCH   8  11
ENDBRANCH   7   8
ENDBRANCH   1   7
BRANCH   6  13
ATOM     13  N   LIG d   1       0.152  81.148 112.009  0.00  0.00    -0.311 N 
ATOM     14  C   LIG d   1      -1.099  81.564 112.194  0.00  0.00     0.210 C 
ATOM     15  C   LIG d   1      -2.105  80.457 112.526  0.00  0.00     0.109 C 
ATOM     16  O   LIG d   1      -1.478  82.739 112.082  0.00  0.00    -0.276 OA
ATOM     17  H   LIG d   1       0.365  80.173 112.088  0.00  0.00     0.149 HD
ENDBRANCH   6  13
BRANCH   5  18
ATOM     18  N   LIG d   1       1.903  82.537 114.093  0.00  0.00     0.381 N 
ATOM     19  H   LIG d   1       1.250  81.826 114.359  0.00  0.00    -0.090 HD
ATOM     20  H   LIG d   1       1.889  83.256 114.795  0.00  0.00    -0.090 HD
ATOM     21  H   LIG d   1       2.817  82.148 114.023  0.00  0.00    -0.090 HD
ENDBRANCH   5  18
BRANCH   3  22
ATOM     22  C   LIG d   1       2.924  85.865 110.804  0.00  0.00     0.382 C 
ATOM     23  O   LIG d   1       4.155  86.083 110.909  0.00  0.00    -0.241 OA
ATOM     24  O   LIG d   1       2.159  86.799 110.496  0.00  0.00    -0.241 OA
ENDBRANCH   3  22
TORSDOF 7
ENDMDL
MODEL 9
REMARK VINA RESULT:      -5.6      2.148      2.720
REMARK  7 active torsions:
REMARK  status: ('A' for Active; 'I' for Inactive)
REMARK    1  A    between atoms: C_2  and  C_3 
REMARK    2  A    between atoms: C_3  and  O_6 
REMARK    3  A    between atoms: C_3  and  C_4 
REMARK    4  A    between atoms: C_7  and  O_6 
REMARK    5  A    between atoms: C_9  and  C_10 
REMARK    6  A    between atoms: N_15  and  C_14 
REMARK    7  A    between atoms: N_20  and  C_19 
REMARK       I    between atoms: C_22  and  N_20 
ROOT
ATOM      1  C   LIG d   1       1.159  83.191 110.666  0.00  0.00     0.161 C 
ATOM      2  C   LIG d   1       1.378  84.564 110.467  0.00  0.00     0.016 C 
ATOM      3  C   LIG d   1       1.645  85.470 111.519  0.00  0.00     0.038 C 
ATOM      4  C   LIG d   1       1.861  85.035 112.835  0.00  0.00     0.028 C 
ATOM      5  C   LIG d   1       1.151  83.726 113.164  0.00  0.00    -0.047 C 
ATOM      6  C   LIG d   1       1.500  82.680 112.081  0.00  0.00     0.091 C 
ENDROOT
BRANCH   1   7
ATOM      7  O   LIG d   1       1.876  82.433 109.672  0.00  0.00    -0.368 OA
BRANCH   7   8
ATOM      8  C   LIG d   1       2.930  83.138 108.971  0.00  0.00     0.119 C 
BRANCH   8   9
ATOM      9  C   LIG d   1       2.935  82.633 107.515  0.00  0.00     0.028 C 
ATOM     10  C   LIG d   1       1.817  83.266 106.670  0.00  0.00     0.006 C 
ENDBRANCH   8   9
BRANCH   8  11
ATOM     11  C   LIG d   1       4.310  82.777 109.530  0.00  0.00     0.028 C 
ATOM     12  C   LIG d   1       4.597  81.268 109.480  0.00  0.00     0.006 C 
ENDBRANCH   8  11
ENDBRANCH   7   8
ENDBRANCH   1   7
BRANCH   6  13
ATOM     13  N   LIG d   1       0.781  81.395 112.281  0.00  0.00    -0.311 N 
ATOM     14  C   LIG d   1      -0.547  81.287 112.258  0.00  0.00     0.210 C 
ATOM     15  C   LIG d   1      -1.085  79.874 112.506  0.00  0.00     0.109 C 
ATOM     16  O   LIG d   1      -1.328  82.220 112.023  0.00  0.00    -0.276 OA
ATOM     17  H   LIG d   1       1.339  80.580 112.446  0.00  0.00     0.149 HD
ENDBRANCH   6  13
BRANCH   5  18
ATOM     18  N   LIG d   1       1.573  83.318 114.518  0.00  0.00     0.381 N 
ATOM     19  H   LIG d   1       1.215  82.407 114.724  0.00  0.00    -0.090 HD
ATOM     20  H   LIG d   1       1.192  83.966 115.186  0.00  0.00    -0.090 HD
ATOM     21  H   LIG d   1       2.567  83.314 114.579  0.00  0.00    -0.090 HD
ENDBRANCH   5  18
BRANCH   3  22
ATOM     22  C   LIG d   1       1.658  86.833 111.266  0.00  0.00     0.382 C 
ATOM     23  O   LIG d   1       2.681  87.371 110.778  0.00  0.00    -0.241 OA
ATOM     24  O   LIG d   1       0.675  87.540 111.560  0.00  0.00    -0.241 OA
ENDBRANCH   3  22
TORSDOF 7
ENDMDL
