MODEL 1
REMARK VINA RESULT:      -7.2      0.000      0.000
REMARK  7 active torsions:
REMARK  status: ('A' for Active; 'I' for Inactive)
REMARK    1  A    between atoms: C_2  and  C_3 
REMARK    2  A    between atoms: C_3  and  O_6 
REMARK    3  A    between atoms: C_3  and  C_4 
REMARK    4  A    between atoms: C_7  and  O_6 
REMARK    5  A    between atoms: C_9  and  C_10 
REMARK    6  A    between atoms: N_15  and  C_14 
REMARK    7  A    between atoms: N_20  and  C_19 
REMARK       I    between atoms: C_22  and  N_20 
ROOT
ATOM      1  C   LIG d   1       0.819  83.979 109.365  0.00  0.00     0.161 C 
ATOM      2  C   LIG d   1       0.588  85.232 109.958  0.00  0.00     0.016 C 
ATOM      3  C   LIG d   1      -0.164  85.405 111.143  0.00  0.00     0.038 C 
ATOM      4  C   LIG d   1      -0.612  84.314 111.903  0.00  0.00     0.028 C 
ATOM      5  C   LIG d   1      -0.836  83.052 111.077  0.00  0.00    -0.047 C 
ATOM      6  C   LIG d   1       0.432  82.768 110.240  0.00  0.00     0.091 C 
ENDROOT
BRANCH   1   7
ATOM      7  O   LIG d   1       2.197  83.880 108.953  0.00  0.00    -0.368 OA
BRANCH   7   8
ATOM      8  C   LIG d   1       3.138  83.463 109.973  0.00  0.00     0.119 C 
BRANCH   8   9
ATOM      9  C   LIG d   1       3.694  84.737 110.639  0.00  0.00     0.028 C 
ATOM     10  C   LIG d   1       3.554  84.706 112.170  0.00  0.00     0.006 C 
ENDBRANCH   8   9
BRANCH   8  11
ATOM     11  C   LIG d   1       4.354  82.765 109.356  0.00  0.00     0.028 C 
ATOM     12  C   LIG d   1       4.022  82.040 108.042  0.00  0.00     0.006 C 
ENDBRANCH   8  11
ENDBRANCH   7   8
ENDBRANCH   1   7
BRANCH   6  13
ATOM     13  N   LIG d   1       0.267  81.598 109.339  0.00  0.00    -0.311 N 
ATOM     14  C   LIG d   1       1.032  80.509 109.404  0.00  0.00     0.210 C 
ATOM     15  C   LIG d   1       0.706  79.427 108.370  0.00  0.00     0.109 C 
ATOM     16  O   LIG d   1       1.928  80.324 110.241  0.00  0.00    -0.276 OA
ATOM     17  H   LIG d   1      -0.458  81.651 108.651  0.00  0.00     0.149 HD
ENDBRANCH   6  13
BRANCH   5  18
ATOM     18  N   LIG d   1      -1.167  81.960 112.012  0.00  0.00     0.381 N 
ATOM     19  H   LIG d   1      -1.998  82.190 112.520  0.00  0.00    -0.090 HD
ATOM     20  H   LIG d   1      -0.415  81.856 112.670  0.00  0.00    -0.090 HD
ATOM     21  H   LIG d   1      -1.301  81.110 111.510  0.00  0.00    -0.090 HD
ENDBRANCH   5  18
BRANCH   3  22
ATOM     22  C   LIG d   1      -0.509  86.682 111.557  0.00  0.00     0.382 C 
ATOM     23  O   LIG d   1       0.370  87.453 112.012  0.00  0.00    -0.241 OA
ATOM     24  O   LIG d   1      -1.696  87.059 111.523  0.00  0.00    -0.241 OA
ENDBRANCH   3  22
TORSDOF 7
ENDMDL
MODEL 2
REMARK VINA RESULT:      -6.6      2.598      4.928
REMARK  7 active torsions:
REMARK  status: ('A' for Active; 'I' for Inactive)
REMARK    1  A    between atoms: C_2  and  C_3 
REMARK    2  A    between atoms: C_3  and  O_6 
REMARK    3  A    between atoms: C_3  and  C_4 
REMARK    4  A    between atoms: C_7  and  O_6 
REMARK    5  A    between atoms: C_9  and  C_10 
REMARK    6  A    between atoms: N_15  and  C_14 
REMARK    7  A    between atoms: N_20  and  C_19 
REMARK       I    between atoms: C_22  and  N_20 
ROOT
ATOM      1  C   LIG d   1       1.261  81.326 111.972  0.00  0.00     0.161 C 
ATOM      2  C   LIG d   1       2.372  81.849 111.290  0.00  0.00     0.016 C 
ATOM      3  C   LIG d   1       2.553  81.730 109.893  0.00  0.00     0.038 C 
ATOM      4  C   LIG d   1       1.555  81.207 109.057  0.00  0.00     0.028 C 
ATOM      5  C   LIG d   1       0.637  80.212 109.759  0.00  0.00    -0.047 C 
ATOM      6  C   LIG d   1       0.108  80.851 111.063  0.00  0.00     0.091 C 
ENDROOT
BRANCH   1   7
ATOM      7  O   LIG d   1       0.778  82.289 112.930  0.00  0.00    -0.368 OA
BRANCH   7   8
ATOM      8  C   LIG d   1       0.935  83.683 112.567  0.00  0.00     0.119 C 
BRANCH   8   9
ATOM      9  C   LIG d   1       1.357  84.447 113.837  0.00  0.00     0.028 C 
ATOM     10  C   LIG d   1       0.737  85.853 113.909  0.00  0.00     0.006 C 
ENDBRANCH   8   9
BRANCH   8  11
ATOM     11  C   LIG d   1      -0.401  84.302 112.146  0.00  0.00     0.028 C 
ATOM     12  C   LIG d   1      -0.529  84.464 110.623  0.00  0.00     0.006 C 
ENDBRANCH   8  11
ENDBRANCH   7   8
ENDBRANCH   1   7
BRANCH   6  13
ATOM     13  N   LIG d   1      -0.731  79.913 111.854  0.00  0.00    -0.311 N 
ATOM     14  C   LIG d   1      -1.879  80.265 112.431  0.00  0.00     0.210 C 
ATOM     15  C   LIG d   1      -2.576  79.150 113.217  0.00  0.00     0.109 C 
ATOM     16  O   LIG d   1      -2.401  81.386 112.341  0.00  0.00    -0.276 OA
ATOM     17  H   LIG d   1      -0.397  78.974 111.952  0.00  0.00     0.149 HD
ENDBRANCH   6  13
BRANCH   5  18
ATOM     18  N   LIG d   1      -0.437  79.853 108.814  0.00  0.00     0.381 N 
ATOM     19  H   LIG d   1      -1.310  79.796 109.299  0.00  0.00    -0.090 HD
ATOM     20  H   LIG d   1      -0.235  78.951 108.419  0.00  0.00    -0.090 HD
ATOM     21  H   LIG d   1      -0.496  80.535 108.089  0.00  0.00    -0.090 HD
ENDBRANCH   5  18
BRANCH   3  22
ATOM     22  C   LIG d   1       3.762  82.100 109.323  0.00  0.00     0.382 C 
ATOM     23  O   LIG d   1       3.858  82.220 108.078  0.00  0.00    -0.241 OA
ATOM     24  O   LIG d   1       4.770  82.272 110.035  0.00  0.00    -0.241 OA
ENDBRANCH   3  22
TORSDOF 7
ENDMDL
MODEL 3
REMARK VINA RESULT:      -6.3      2.262      3.424
REMARK  7 active torsions:
REMARK  status: ('A' for Active; 'I' for Inactive)
REMARK    1  A    between atoms: C_2  and  C_3 
REMARK    2  A    between atoms: C_3  and  O_6 
REMARK    3  A    between atoms: C_3  and  C_4 
REMARK    4  A    between atoms: C_7  and  O_6 
REMARK    5  A    between atoms: C_9  and  C_10 
REMARK    6  A    between atoms: N_15  and  C_14 
REMARK    7  A    between atoms: N_20  and  C_19 
REMARK       I    between atoms: C_22  and  N_20 
ROOT
ATOM      1  C   LIG d   1       1.109  82.631 110.398  0.00  0.00     0.161 C 
ATOM      2  C   LIG d   1       1.662  83.917 110.276  0.00  0.00     0.016 C 
ATOM      3  C   LIG d   1       2.397  84.549 111.305  0.00  0.00     0.038 C 
ATOM      4  C   LIG d   1       2.759  83.873 112.480  0.00  0.00     0.028 C 
ATOM      5  C   LIG d   1       1.795  82.754 112.857  0.00  0.00    -0.047 C 
ATOM      6  C   LIG d   1       1.589  81.836 111.630  0.00  0.00     0.091 C 
ENDROOT
BRANCH   1   7
ATOM      7  O   LIG d   1       1.348  81.879 109.192  0.00  0.00    -0.368 OA
BRANCH   7   8
ATOM      8  C   LIG d   1       2.321  80.810 109.290  0.00  0.00     0.119 C 
BRANCH   8   9
ATOM      9  C   LIG d   1       3.546  81.220 108.449  0.00  0.00     0.028 C 
ATOM     10  C   LIG d   1       4.610  81.953 109.282  0.00  0.00     0.006 C 
ENDBRANCH   8   9
BRANCH   8  11
ATOM     11  C   LIG d   1       1.800  79.522 108.646  0.00  0.00     0.028 C 
ATOM     12  C   LIG d   1       0.281  79.543 108.416  0.00  0.00     0.006 C 
ENDBRANCH   8  11
ENDBRANCH   7   8
ENDBRANCH   1   7
BRANCH   6  13
ATOM     13  N   LIG d   1       0.594  80.762 111.888  0.00  0.00    -0.311 N 
ATOM     14  C   LIG d   1      -0.710  80.990 112.032  0.00  0.00     0.210 C 
ATOM     15  C   LIG d   1      -1.558  79.744 112.311  0.00  0.00     0.109 C 
ATOM     16  O   LIG d   1      -1.250  82.101 111.925  0.00  0.00    -0.276 OA
ATOM     17  H   LIG d   1       0.942  79.825 111.959  0.00  0.00     0.149 HD
ENDBRANCH   6  13
BRANCH   5  18
ATOM     18  N   LIG d   1       2.366  82.047 114.019  0.00  0.00     0.381 N 
ATOM     19  H   LIG d   1       1.756  82.142 114.806  0.00  0.00    -0.090 HD
ATOM     20  H   LIG d   1       3.250  82.464 114.252  0.00  0.00    -0.090 HD
ATOM     21  H   LIG d   1       2.492  81.082 113.803  0.00  0.00    -0.090 HD
ENDBRANCH   5  18
BRANCH   3  22
ATOM     22  C   LIG d   1       2.743  85.886 111.181  0.00  0.00     0.382 C 
ATOM     23  O   LIG d   1       3.896  86.267 111.495  0.00  0.00    -0.241 OA
ATOM     24  O   LIG d   1       1.902  86.723 110.800  0.00  0.00    -0.241 OA
ENDBRANCH   3  22
TORSDOF 7
ENDMDL
MODEL 4
REMARK VINA RESULT:      -6.1      2.676      4.407
REMARK  7 active torsions:
REMARK  status: ('A' for Active; 'I' for Inactive)
REMARK    1  A    between atoms: C_2  and  C_3 
REMARK    2  A    between atoms: C_3  and  O_6 
REMARK    3  A    between atoms: C_3  and  C_4 
REMARK    4  A    between atoms: C_7  and  O_6 
REMARK    5  A    between atoms: C_9  and  C_10 
REMARK    6  A    between atoms: N_15  and  C_14 
REMARK    7  A    between atoms: N_20  and  C_19 
REMARK       I    between atoms: C_22  and  N_20 
ROOT
ATOM      1  C   LIG d   1       0.425  82.291 111.201  0.00  0.00     0.161 C 
ATOM      2  C   LIG d   1      -0.718  81.984 111.957  0.00  0.00     0.016 C 
ATOM      3  C   LIG d   1      -1.381  80.737 111.893  0.00  0.00     0.038 C 
ATOM      4  C   LIG d   1      -0.853  79.652 111.176  0.00  0.00     0.028 C 
ATOM      5  C   LIG d   1       0.022  80.072 110.000  0.00  0.00    -0.047 C 
ATOM      6  C   LIG d   1       1.080  81.084 110.498  0.00  0.00     0.091 C 
ENDROOT
BRANCH   1   7
ATOM      7  O   LIG d   1       1.389  82.972 112.028  0.00  0.00    -0.368 OA
BRANCH   7   8
ATOM      8  C   LIG d   1       1.713  84.331 111.643  0.00  0.00     0.119 C 
BRANCH   8   9
ATOM      9  C   LIG d   1       3.230  84.519 111.840  0.00  0.00     0.028 C 
ATOM     10  C   LIG d   1       3.681  85.966 111.582  0.00  0.00     0.006 C 
ENDBRANCH   8   9
BRANCH   8  11
ATOM     11  C   LIG d   1       1.054  85.348 112.580  0.00  0.00     0.028 C 
ATOM     12  C   LIG d   1       1.054  84.893 114.048  0.00  0.00     0.006 C 
ENDBRANCH   8  11
ENDBRANCH   7   8
ENDBRANCH   1   7
BRANCH   6  13
ATOM     13  N   LIG d   1       1.925  81.610 109.394  0.00  0.00    -0.311 N 
ATOM     14  C   LIG d   1       3.253  81.686 109.460  0.00  0.00     0.210 C 
ATOM     15  C   LIG d   1       3.929  82.278 108.219  0.00  0.00     0.109 C 
ATOM     16  O   LIG d   1       3.937  81.290 110.415  0.00  0.00    -0.276 OA
ATOM     17  H   LIG d   1       1.453  81.924 108.569  0.00  0.00     0.149 HD
ENDBRANCH   6  13
BRANCH   5  18
ATOM     18  N   LIG d   1       0.616  78.849 109.428  0.00  0.00     0.381 N 
ATOM     19  H   LIG d   1       0.010  78.070 109.592  0.00  0.00    -0.090 HD
ATOM     20  H   LIG d   1       1.493  78.669 109.885  0.00  0.00    -0.090 HD
ATOM     21  H   LIG d   1       0.761  78.966 108.449  0.00  0.00    -0.090 HD
ENDBRANCH   5  18
BRANCH   3  22
ATOM     22  C   LIG d   1      -2.608  80.578 112.520  0.00  0.00     0.382 C 
ATOM     23  O   LIG d   1      -3.234  81.582 112.936  0.00  0.00    -0.241 OA
ATOM     24  O   LIG d   1      -3.075  79.439 112.714  0.00  0.00    -0.241 OA
ENDBRANCH   3  22
TORSDOF 7
ENDMDL
MODEL 5
REMARK VINA RESULT:      -5.8      2.436      5.696
REMARK  7 active torsions:
REMARK  status: ('A' for Active; 'I' for Inactive)
REMARK    1  A    between atoms: C_2  and  C_3 
REMARK    2  A    between atoms: C_3  and  O_6 
REMARK    3  A    between atoms: C_3  and  C_4 
REMARK    4  A    between atoms: C_7  and  O_6 
REMARK    5  A    between atoms: C_9  and  C_10 
REMARK    6  A    between atoms: N_15  and  C_14 
REMARK    7  A    between atoms: N_20  and  C_19 
REMARK       I    between atoms: C_22  and  N_20 
ROOT
ATOM      1  C   LIG d   1       2.350  82.824 111.331  0.00  0.00     0.161 C 
ATOM      2  C   LIG d   1       2.967  81.653 110.861  0.00  0.00     0.016 C 
ATOM      3  C   LIG d   1       2.979  81.272 109.499  0.00  0.00     0.038 C 
ATOM      4  C   LIG d   1       2.501  82.120 108.488  0.00  0.00     0.028 C 
ATOM      5  C   LIG d   1       1.418  83.082 108.965  0.00  0.00    -0.047 C 
ATOM      6  C   LIG d   1       1.921  83.816 110.230  0.00  0.00     0.091 C 
ENDROOT
BRANCH   1   7
ATOM      7  O   LIG d   1       3.207  83.477 112.288  0.00  0.00    -0.368 OA
BRANCH   7   8
ATOM      8  C   LIG d   1       2.611  83.786 113.572  0.00  0.00     0.119 C 
BRANCH   8   9
ATOM      9  C   LIG d   1       3.481  84.868 114.238  0.00  0.00     0.028 C 
ATOM     10  C   LIG d   1       2.737  86.205 114.397  0.00  0.00     0.006 C 
ENDBRANCH   8   9
BRANCH   8  11
ATOM     11  C   LIG d   1       2.667  82.582 114.516  0.00  0.00     0.028 C 
ATOM     12  C   LIG d   1       3.615  82.801 115.706  0.00  0.00     0.006 C 
ENDBRANCH   8  11
ENDBRANCH   7   8
ENDBRANCH   1   7
BRANCH   6  13
ATOM     13  N   LIG d   1       0.890  84.715 110.811  0.00  0.00    -0.311 N 
ATOM     14  C   LIG d   1       1.086  86.015 111.023  0.00  0.00     0.210 C 
ATOM     15  C   LIG d   1      -0.101  86.754 111.649  0.00  0.00     0.109 C 
ATOM     16  O   LIG d   1       2.119  86.632 110.723  0.00  0.00    -0.276 OA
ATOM     17  H   LIG d   1       0.011  84.303 111.055  0.00  0.00     0.149 HD
ENDBRANCH   6  13
BRANCH   5  18
ATOM     18  N   LIG d   1       1.111  83.996 107.850  0.00  0.00     0.381 N 
ATOM     19  H   LIG d   1       1.840  83.953 107.166  0.00  0.00    -0.090 HD
ATOM     20  H   LIG d   1       1.064  84.936 108.203  0.00  0.00    -0.090 HD
ATOM     21  H   LIG d   1       0.241  83.746 107.434  0.00  0.00    -0.090 HD
ENDBRANCH   5  18
BRANCH   3  22
ATOM     22  C   LIG d   1       3.437  80.013 109.141  0.00  0.00     0.382 C 
ATOM     23  O   LIG d   1       4.668  79.775 109.127  0.00  0.00    -0.241 OA
ATOM     24  O   LIG d   1       2.636  79.126 108.790  0.00  0.00    -0.241 OA
ENDBRANCH   3  22
TORSDOF 7
ENDMDL
MODEL 6
REMARK VINA RESULT:      -5.4      2.466      3.368
REMARK  7 active torsions:
REMARK  status: ('A' for Active; 'I' for Inactive)
REMARK    1  A    between atoms: C_2  and  C_3 
REMARK    2  A    between atoms: C_3  and  O_6 
REMARK    3  A    between atoms: C_3  and  C_4 
REMARK    4  A    between atoms: C_7  and  O_6 
REMARK    5  A    between atoms: C_9  and  C_10 
REMARK    6  A    between atoms: N_15  and  C_14 
REMARK    7  A    between atoms: N_20  and  C_19 
REMARK       I    between atoms: C_22  and  N_20 
ROOT
ATOM      1  C   LIG d   1       1.286  82.588 110.907  0.00  0.00     0.161 C 
ATOM      2  C   LIG d   1       1.894  83.843 111.072  0.00  0.00     0.016 C 
ATOM      3  C   LIG d   1       2.499  84.262 112.280  0.00  0.00     0.038 C 
ATOM      4  C   LIG d   1       2.671  83.389 113.364  0.00  0.00     0.028 C 
ATOM      5  C   LIG d   1       1.626  82.279 113.420  0.00  0.00    -0.047 C 
ATOM      6  C   LIG d   1       1.562  81.581 112.043  0.00  0.00     0.091 C 
ENDROOT
BRANCH   1   7
ATOM      7  O   LIG d   1       1.666  82.025 109.635  0.00  0.00    -0.368 OA
BRANCH   7   8
ATOM      8  C   LIG d   1       2.456  82.878 108.771  0.00  0.00     0.119 C 
BRANCH   8   9
ATOM      9  C   LIG d   1       1.595  83.210 107.536  0.00  0.00     0.028 C 
ATOM     10  C   LIG d   1       0.963  84.610 107.620  0.00  0.00     0.006 C 
ENDBRANCH   8   9
BRANCH   8  11
ATOM     11  C   LIG d   1       3.680  82.138 108.224  0.00  0.00     0.028 C 
ATOM     12  C   LIG d   1       4.027  80.880 109.035  0.00  0.00     0.006 C 
ENDBRANCH   8  11
ENDBRANCH   7   8
ENDBRANCH   1   7
BRANCH   6  13
ATOM     13  N   LIG d   1       0.506  80.537 111.985  0.00  0.00    -0.311 N 
ATOM     14  C   LIG d   1      -0.797  80.810 112.025  0.00  0.00     0.210 C 
ATOM     15  C   LIG d   1      -1.716  79.585 111.973  0.00  0.00     0.109 C 
ATOM     16  O   LIG d   1      -1.280  81.952 112.065  0.00  0.00    -0.276 OA
ATOM     17  H   LIG d   1       0.808  79.585 111.920  0.00  0.00     0.149 HD
ENDBRANCH   6  13
BRANCH   5  18
ATOM     18  N   LIG d   1       2.005  81.366 114.515  0.00  0.00     0.381 N 
ATOM     19  H   LIG d   1       1.221  80.799 114.769  0.00  0.00    -0.090 HD
ATOM     20  H   LIG d   1       2.272  81.911 115.316  0.00  0.00    -0.090 HD
ATOM     21  H   LIG d   1       2.764  80.788 114.229  0.00  0.00    -0.090 HD
ENDBRANCH   5  18
BRANCH   3  22
ATOM     22  C   LIG d   1       2.903  85.580 112.425  0.00  0.00     0.382 C 
ATOM     23  O   LIG d   1       2.458  86.272 113.372  0.00  0.00    -0.241 OA
ATOM     24  O   LIG d   1       3.673  86.100 111.595  0.00  0.00    -0.241 OA
ENDBRANCH   3  22
TORSDOF 7
ENDMDL
MODEL 7
REMARK VINA RESULT:      -5.3      2.609      5.382
REMARK  7 active torsions:
REMARK  status: ('A' for Active; 'I' for Inactive)
REMARK    1  A    between atoms: C_2  and  C_3 
REMARK    2  A    between atoms: C_3  and  O_6 
REMARK    3  A    between atoms: C_3  and  C_4 
REMARK    4  A    between atoms: C_7  and  O_6 
REMARK    5  A    between atoms: C_9  and  C_10 
REMARK    6  A    between atoms: N_15  and  C_14 
REMARK    7  A    between atoms: N_20  and  C_19 
REMARK       I    between atoms: C_22  and  N_20 
ROOT
ATOM      1  C   LIG d   1       2.971  83.613 111.921  0.00  0.00     0.161 C 
ATOM      2  C   LIG d   1       3.554  83.129 110.738  0.00  0.00     0.016 C 
ATOM      3  C   LIG d   1       3.158  81.924 110.113  0.00  0.00     0.038 C 
ATOM      4  C   LIG d   1       2.043  81.194 110.548  0.00  0.00     0.028 C 
ATOM      5  C   LIG d   1       1.741  81.376 112.032  0.00  0.00    -0.047 C 
ATOM      6  C   LIG d   1       1.678  82.888 112.349  0.00  0.00     0.091 C 
ENDROOT
BRANCH   1   7
ATOM      7  O   LIG d   1       2.735  85.030 111.805  0.00  0.00    -0.368 OA
BRANCH   7   8
ATOM      8  C   LIG d   1       1.388  85.425 111.443  0.00  0.00     0.119 C 
BRANCH   8   9
ATOM      9  C   LIG d   1       1.379  85.702 109.927  0.00  0.00     0.028 C 
ATOM     10  C   LIG d   1       0.492  84.712 109.155  0.00  0.00     0.006 C 
ENDBRANCH   8   9
BRANCH   8  11
ATOM     11  C   LIG d   1       1.001  86.752 112.101  0.00  0.00     0.028 C 
ATOM     12  C   LIG d   1       2.220  87.569 112.559  0.00  0.00     0.006 C 
ENDBRANCH   8  11
ENDBRANCH   7   8
ENDBRANCH   1   7
BRANCH   6  13
ATOM     13  N   LIG d   1       1.470  83.155 113.797  0.00  0.00    -0.311 N 
ATOM     14  C   LIG d   1       2.289  82.711 114.749  0.00  0.00     0.210 C 
ATOM     15  C   LIG d   1       1.881  83.083 116.178  0.00  0.00     0.109 C 
ATOM     16  O   LIG d   1       3.332  82.072 114.544  0.00  0.00    -0.276 OA
ATOM     17  H   LIG d   1       0.665  83.693 114.050  0.00  0.00     0.149 HD
ENDBRANCH   6  13
BRANCH   5  18
ATOM     18  N   LIG d   1       0.477  80.672 112.320  0.00  0.00     0.381 N 
ATOM     19  H   LIG d   1      -0.130  80.728 111.527  0.00  0.00    -0.090 HD
ATOM     20  H   LIG d   1       0.025  81.120 113.097  0.00  0.00    -0.090 HD
ATOM     21  H   LIG d   1       0.661  79.717 112.539  0.00  0.00    -0.090 HD
ENDBRANCH   5  18
BRANCH   3  22
ATOM     22  C   LIG d   1       3.908  81.417 109.062  0.00  0.00     0.382 C 
ATOM     23  O   LIG d   1       4.488  80.312 109.182  0.00  0.00    -0.241 OA
ATOM     24  O   LIG d   1       4.047  82.073 108.012  0.00  0.00    -0.241 OA
ENDBRANCH   3  22
TORSDOF 7
ENDMDL
MODEL 8
REMARK VINA RESULT:      -5.3      2.463      4.627
REMARK  7 active torsions:
REMARK  status: ('A' for Active; 'I' for Inactive)
REMARK    1  A    between atoms: C_2  and  C_3 
REMARK    2  A    between atoms: C_3  and  O_6 
REMARK    3  A    between atoms: C_3  and  C_4 
REMARK    4  A    between atoms: C_7  and  O_6 
REMARK    5  A    between atoms: C_9  and  C_10 
REMARK    6  A    between atoms: N_15  and  C_14 
REMARK    7  A    between atoms: N_20  and  C_19 
REMARK       I    between atoms: C_22  and  N_20 
ROOT
ATOM      1  C   LIG d   1       1.883  83.605 111.885  0.00  0.00     0.161 C 
ATOM      2  C   LIG d   1       2.136  83.722 110.508  0.00  0.00     0.016 C 
ATOM      3  C   LIG d   1       1.689  82.781 109.552  0.00  0.00     0.038 C 
ATOM      4  C   LIG d   1       0.824  81.730 109.894  0.00  0.00     0.028 C 
ATOM      5  C   LIG d   1       0.956  81.286 111.347  0.00  0.00    -0.047 C 
ATOM      6  C   LIG d   1       0.847  82.526 112.263  0.00  0.00     0.091 C 
ENDROOT
BRANCH   1   7
ATOM      7  O   LIG d   1       1.491  84.885 112.420  0.00  0.00    -0.368 OA
BRANCH   7   8
ATOM      8  C   LIG d   1       1.693  86.028 111.552  0.00  0.00     0.119 C 
BRANCH   8   9
ATOM      9  C   LIG d   1       2.875  86.837 112.120  0.00  0.00     0.028 C 
ATOM     10  C   LIG d   1       2.765  87.051 113.639  0.00  0.00     0.006 C 
ENDBRANCH   8   9
BRANCH   8  11
ATOM     11  C   LIG d   1       0.493  86.979 111.595  0.00  0.00     0.028 C 
ATOM     12  C   LIG d   1      -0.847  86.241 111.750  0.00  0.00     0.006 C 
ENDBRANCH   8  11
ENDBRANCH   7   8
ENDBRANCH   1   7
BRANCH   6  13
ATOM     13  N   LIG d   1       1.050  82.191 113.697  0.00  0.00    -0.311 N 
ATOM     14  C   LIG d   1       2.185  81.689 114.179  0.00  0.00     0.210 C 
ATOM     15  C   LIG d   1       2.176  81.397 115.683  0.00  0.00     0.109 C 
ATOM     16  O   LIG d   1       3.210  81.488 113.510  0.00  0.00    -0.276 OA
ATOM     17  H   LIG d   1       0.280  82.352 114.316  0.00  0.00     0.149 HD
ENDBRANCH   6  13
BRANCH   5  18
ATOM     18  N   LIG d   1      -0.095  80.283 111.604  0.00  0.00     0.381 N 
ATOM     19  H   LIG d   1      -0.443  79.928 110.736  0.00  0.00    -0.090 HD
ATOM     20  H   LIG d   1      -0.855  80.726 112.090  0.00  0.00    -0.090 HD
ATOM     21  H   LIG d   1       0.271  79.538 112.153  0.00  0.00    -0.090 HD
ENDBRANCH   5  18
BRANCH   3  22
ATOM     22  C   LIG d   1       2.141  82.862 108.244  0.00  0.00     0.382 C 
ATOM     23  O   LIG d   1       3.265  82.396 107.939  0.00  0.00    -0.241 OA
ATOM     24  O   LIG d   1       1.458  83.436 107.375  0.00  0.00    -0.241 OA
ENDBRANCH   3  22
TORSDOF 7
ENDMDL
MODEL 9
REMARK VINA RESULT:      -5.3      3.078      5.386
REMARK  7 active torsions:
REMARK  status: ('A' for Active; 'I' for Inactive)
REMARK    1  A    between atoms: C_2  and  C_3 
REMARK    2  A    between atoms: C_3  and  O_6 
REMARK    3  A    between atoms: C_3  and  C_4 
REMARK    4  A    between atoms: C_7  and  O_6 
REMARK    5  A    between atoms: C_9  and  C_10 
REMARK    6  A    between atoms: N_15  and  C_14 
REMARK    7  A    between atoms: N_20  and  C_19 
REMARK       I    between atoms: C_22  and  N_20 
ROOT
ATOM      1  C   LIG d   1      -0.632  81.351 111.610  0.00  0.00     0.161 C 
ATOM      2  C   LIG d   1      -1.491  80.428 112.229  0.00  0.00     0.016 C 
ATOM      3  C   LIG d   1      -1.722  79.125 111.731  0.00  0.00     0.038 C 
ATOM      4  C   LIG d   1      -0.989  78.602 110.655  0.00  0.00     0.028 C 
ATOM      5  C   LIG d   1      -0.480  79.669 109.693  0.00  0.00    -0.047 C 
ATOM      6  C   LIG d   1       0.261  80.760 110.499  0.00  0.00     0.091 C 
ENDROOT
BRANCH   1   7
ATOM      7  O   LIG d   1       0.176  82.011 112.605  0.00  0.00    -0.368 OA
BRANCH   7   8
ATOM      8  C   LIG d   1       0.661  83.331 112.259  0.00  0.00     0.119 C 
BRANCH   8   9
ATOM      9  C   LIG d   1       1.592  83.795 113.396  0.00  0.00     0.028 C 
ATOM     10  C   LIG d   1       1.009  84.978 114.187  0.00  0.00     0.006 C 
ENDBRANCH   8   9
BRANCH   8  11
ATOM     11  C   LIG d   1      -0.480  84.353 112.227  0.00  0.00     0.028 C 
ATOM     12  C   LIG d   1      -0.590  85.081 110.878  0.00  0.00     0.006 C 
ENDBRANCH   8  11
ENDBRANCH   7   8
ENDBRANCH   1   7
BRANCH   6  13
ATOM     13  N   LIG d   1       0.719  81.885 109.643  0.00  0.00    -0.311 N 
ATOM     14  C   LIG d   1       1.912  81.919 109.052  0.00  0.00     0.210 C 
ATOM     15  C   LIG d   1       2.191  83.180 108.229  0.00  0.00     0.109 C 
ATOM     16  O   LIG d   1       2.753  81.009 109.105  0.00  0.00    -0.276 OA
ATOM     17  H   LIG d   1       0.086  82.652 109.520  0.00  0.00     0.149 HD
ENDBRANCH   6  13
BRANCH   5  18
ATOM     18  N   LIG d   1       0.381  78.999 108.700  0.00  0.00     0.381 N 
ATOM     19  H   LIG d   1      -0.048  79.038 107.797  0.00  0.00    -0.090 HD
ATOM     20  H   LIG d   1       0.485  78.033 108.958  0.00  0.00    -0.090 HD
ATOM     21  H   LIG d   1       1.274  79.440 108.670  0.00  0.00    -0.090 HD
ENDBRANCH   5  18
BRANCH   3  22
ATOM     22  C   LIG d   1      -2.725  78.345 112.285  0.00  0.00     0.382 C 
ATOM     23  O   LIG d   1      -3.353  77.528 111.569  0.00  0.00    -0.241 OA
ATOM     24  O   LIG d   1      -3.041  78.480 113.483  0.00  0.00    -0.241 OA
ENDBRANCH   3  22
TORSDOF 7
ENDMDL
