MODEL 1
REMARK VINA RESULT:      -5.8      0.000      0.000
REMARK  7 active torsions:
REMARK  status: ('A' for Active; 'I' for Inactive)
REMARK    1  A    between atoms: C_2  and  C_3 
REMARK    2  A    between atoms: C_3  and  O_6 
REMARK    3  A    between atoms: C_3  and  C_4 
REMARK    4  A    between atoms: C_7  and  O_6 
REMARK    5  A    between atoms: C_9  and  C_10 
REMARK    6  A    between atoms: N_15  and  C_14 
REMARK    7  A    between atoms: N_20  and  C_19 
REMARK       I    between atoms: C_22  and  N_20 
ROOT
ATOM      1  C   LIG d   1      -5.011  91.859 118.104  0.00  0.00     0.161 C 
ATOM      2  C   LIG d   1      -5.200  90.947 117.053  0.00  0.00     0.016 C 
ATOM      3  C   LIG d   1      -6.372  90.903 116.263  0.00  0.00     0.038 C 
ATOM      4  C   LIG d   1      -7.379  91.874 116.374  0.00  0.00     0.028 C 
ATOM      5  C   LIG d   1      -7.458  92.508 117.759  0.00  0.00    -0.047 C 
ATOM      6  C   LIG d   1      -6.051  92.998 118.168  0.00  0.00     0.091 C 
ENDROOT
BRANCH   1   7
ATOM      7  O   LIG d   1      -3.677  92.402 118.046  0.00  0.00    -0.368 OA
BRANCH   7   8
ATOM      8  C   LIG d   1      -2.792  92.036 119.133  0.00  0.00     0.119 C 
BRANCH   8   9
ATOM      9  C   LIG d   1      -2.323  93.341 119.807  0.00  0.00     0.028 C 
ATOM     10  C   LIG d   1      -2.233  94.514 118.816  0.00  0.00     0.006 C 
ENDBRANCH   8   9
BRANCH   8  11
ATOM     11  C   LIG d   1      -1.516  91.367 118.613  0.00  0.00     0.028 C 
ATOM     12  C   LIG d   1      -1.740  89.907 118.188  0.00  0.00     0.006 C 
ENDBRANCH   8  11
ENDBRANCH   7   8
ENDBRANCH   1   7
BRANCH   6  13
ATOM     13  N   LIG d   1      -6.023  93.556 119.546  0.00  0.00    -0.311 N 
ATOM     14  C   LIG d   1      -6.226  94.843 119.820  0.00  0.00     0.210 C 
ATOM     15  C   LIG d   1      -6.134  95.211 121.304  0.00  0.00     0.109 C 
ATOM     16  O   LIG d   1      -6.506  95.710 118.978  0.00  0.00    -0.276 OA
ATOM     17  H   LIG d   1      -5.834  92.916 120.293  0.00  0.00     0.149 HD
ENDBRANCH   6  13
BRANCH   5  18
ATOM     18  N   LIG d   1      -8.453  93.595 117.695  0.00  0.00     0.381 N 
ATOM     19  H   LIG d   1      -9.003  93.503 116.864  0.00  0.00    -0.090 HD
ATOM     20  H   LIG d   1      -7.971  94.475 117.658  0.00  0.00    -0.090 HD
ATOM     21  H   LIG d   1      -9.043  93.565 118.497  0.00  0.00    -0.090 HD
ENDBRANCH   5  18
BRANCH   3  22
ATOM     22  C   LIG d   1      -6.564  89.854 115.376  0.00  0.00     0.382 C 
ATOM     23  O   LIG d   1      -7.709  89.620 114.920  0.00  0.00    -0.241 OA
ATOM     24  O   LIG d   1      -5.614  89.112 115.061  0.00  0.00    -0.241 OA
ENDBRANCH   3  22
TORSDOF 7
ENDMDL
MODEL 2
REMARK VINA RESULT:      -5.6      2.265      4.402
REMARK  7 active torsions:
REMARK  status: ('A' for Active; 'I' for Inactive)
REMARK    1  A    between atoms: C_2  and  C_3 
REMARK    2  A    between atoms: C_3  and  O_6 
REMARK    3  A    between atoms: C_3  and  C_4 
REMARK    4  A    between atoms: C_7  and  O_6 
REMARK    5  A    between atoms: C_9  and  C_10 
REMARK    6  A    between atoms: N_15  and  C_14 
REMARK    7  A    between atoms: N_20  and  C_19 
REMARK       I    between atoms: C_22  and  N_20 
ROOT
ATOM      1  C   LIG d   1      -6.892  93.359 118.079  0.00  0.00     0.161 C 
ATOM      2  C   LIG d   1      -7.635  92.480 117.272  0.00  0.00     0.016 C 
ATOM      3  C   LIG d   1      -7.098  91.301 116.707  0.00  0.00     0.038 C 
ATOM      4  C   LIG d   1      -5.815  90.839 117.036  0.00  0.00     0.028 C 
ATOM      5  C   LIG d   1      -4.856  91.952 117.443  0.00  0.00    -0.047 C 
ATOM      6  C   LIG d   1      -5.524  92.814 118.539  0.00  0.00     0.091 C 
ENDROOT
BRANCH   1   7
ATOM      7  O   LIG d   1      -7.680  93.761 119.217  0.00  0.00    -0.368 OA
BRANCH   7   8
ATOM      8  C   LIG d   1      -8.463  94.969 119.055  0.00  0.00     0.119 C 
BRANCH   8   9
ATOM      9  C   LIG d   1      -7.493  96.101 118.666  0.00  0.00     0.028 C 
ATOM     10  C   LIG d   1      -7.093  96.971 119.869  0.00  0.00     0.006 C 
ENDBRANCH   8   9
BRANCH   8  11
ATOM     11  C   LIG d   1      -9.089  95.409 120.382  0.00  0.00     0.028 C 
ATOM     12  C   LIG d   1      -9.783  94.257 121.125  0.00  0.00     0.006 C 
ENDBRANCH   8  11
ENDBRANCH   7   8
ENDBRANCH   1   7
BRANCH   6  13
ATOM     13  N   LIG d   1      -4.687  93.976 118.935  0.00  0.00    -0.311 N 
ATOM     14  C   LIG d   1      -4.443  94.306 120.202  0.00  0.00     0.210 C 
ATOM     15  C   LIG d   1      -3.572  95.553 120.389  0.00  0.00     0.109 C 
ATOM     16  O   LIG d   1      -4.839  93.667 121.188  0.00  0.00    -0.276 OA
ATOM     17  H   LIG d   1      -4.300  94.532 118.197  0.00  0.00     0.149 HD
ENDBRANCH   6  13
BRANCH   5  18
ATOM     18  N   LIG d   1      -3.601  91.319 117.890  0.00  0.00     0.381 N 
ATOM     19  H   LIG d   1      -3.357  91.656 118.800  0.00  0.00    -0.090 HD
ATOM     20  H   LIG d   1      -2.866  91.569 117.253  0.00  0.00    -0.090 HD
ATOM     21  H   LIG d   1      -3.709  90.328 117.913  0.00  0.00    -0.090 HD
ENDBRANCH   5  18
BRANCH   3  22
ATOM     22  C   LIG d   1      -7.834  90.591 115.770  0.00  0.00     0.382 C 
ATOM     23  O   LIG d   1      -8.419  91.199 114.841  0.00  0.00    -0.241 OA
ATOM     24  O   LIG d   1      -7.956  89.355 115.867  0.00  0.00    -0.241 OA
ENDBRANCH   3  22
TORSDOF 7
ENDMDL
MODEL 3
REMARK VINA RESULT:      -5.6     14.553     17.354
REMARK  7 active torsions:
REMARK  status: ('A' for Active; 'I' for Inactive)
REMARK    1  A    between atoms: C_2  and  C_3 
REMARK    2  A    between atoms: C_3  and  O_6 
REMARK    3  A    between atoms: C_3  and  C_4 
REMARK    4  A    between atoms: C_7  and  O_6 
REMARK    5  A    between atoms: C_9  and  C_10 
REMARK    6  A    between atoms: N_15  and  C_14 
REMARK    7  A    between atoms: N_20  and  C_19 
REMARK       I    between atoms: C_22  and  N_20 
ROOT
ATOM      1  C   LIG d   1      -9.704  76.304 117.680  0.00  0.00     0.161 C 
ATOM      2  C   LIG d   1     -10.505  77.313 118.241  0.00  0.00     0.016 C 
ATOM      3  C   LIG d   1     -10.034  78.617 118.517  0.00  0.00     0.038 C 
ATOM      4  C   LIG d   1      -8.764  79.049 118.107  0.00  0.00     0.028 C 
ATOM      5  C   LIG d   1      -7.747  77.918 117.993  0.00  0.00    -0.047 C 
ATOM      6  C   LIG d   1      -8.348  76.789 117.124  0.00  0.00     0.091 C 
ENDROOT
BRANCH   1   7
ATOM      7  O   LIG d   1     -10.442  75.605 116.659  0.00  0.00    -0.368 OA
BRANCH   7   8
ATOM      8  C   LIG d   1     -10.994  74.320 117.038  0.00  0.00     0.119 C 
BRANCH   8   9
ATOM      9  C   LIG d   1     -12.339  74.583 117.741  0.00  0.00     0.028 C 
ATOM     10  C   LIG d   1     -12.401  73.955 119.144  0.00  0.00     0.006 C 
ENDBRANCH   8   9
BRANCH   8  11
ATOM     11  C   LIG d   1     -10.118  73.625 118.085  0.00  0.00     0.028 C 
ATOM     12  C   LIG d   1      -9.261  72.497 117.490  0.00  0.00     0.006 C 
ENDBRANCH   8  11
ENDBRANCH   7   8
ENDBRANCH   1   7
BRANCH   6  13
ATOM     13  N   LIG d   1      -7.452  75.608 117.031  0.00  0.00    -0.311 N 
ATOM     14  C   LIG d   1      -6.963  75.148 115.880  0.00  0.00     0.210 C 
ATOM     15  C   LIG d   1      -6.075  73.906 116.006  0.00  0.00     0.109 C 
ATOM     16  O   LIG d   1      -7.154  75.669 114.772  0.00  0.00    -0.276 OA
ATOM     17  H   LIG d   1      -7.219  75.143 117.886  0.00  0.00     0.149 HD
ENDBRANCH   6  13
BRANCH   5  18
ATOM     18  N   LIG d   1      -6.510  78.487 117.426  0.00  0.00     0.381 N 
ATOM     19  H   LIG d   1      -6.673  79.430 117.134  0.00  0.00    -0.090 HD
ATOM     20  H   LIG d   1      -6.244  77.949 116.621  0.00  0.00    -0.090 HD
ATOM     21  H   LIG d   1      -5.782  78.464 118.106  0.00  0.00    -0.090 HD
ENDBRANCH   5  18
BRANCH   3  22
ATOM     22  C   LIG d   1     -10.824  79.493 119.246  0.00  0.00     0.382 C 
ATOM     23  O   LIG d   1     -10.849  80.712 118.947  0.00  0.00    -0.241 OA
ATOM     24  O   LIG d   1     -11.479  79.088 120.225  0.00  0.00    -0.241 OA
ENDBRANCH   3  22
TORSDOF 7
ENDMDL
MODEL 4
REMARK VINA RESULT:      -5.6     16.072     18.542
REMARK  7 active torsions:
REMARK  status: ('A' for Active; 'I' for Inactive)
REMARK    1  A    between atoms: C_2  and  C_3 
REMARK    2  A    between atoms: C_3  and  O_6 
REMARK    3  A    between atoms: C_3  and  C_4 
REMARK    4  A    between atoms: C_7  and  O_6 
REMARK    5  A    between atoms: C_9  and  C_10 
REMARK    6  A    between atoms: N_15  and  C_14 
REMARK    7  A    between atoms: N_20  and  C_19 
REMARK       I    between atoms: C_22  and  N_20 
ROOT
ATOM      1  C   LIG d   1      -8.314  74.823 117.605  0.00  0.00     0.161 C 
ATOM      2  C   LIG d   1      -7.182  75.003 116.792  0.00  0.00     0.016 C 
ATOM      3  C   LIG d   1      -6.532  73.943 116.119  0.00  0.00     0.038 C 
ATOM      4  C   LIG d   1      -7.063  72.645 116.091  0.00  0.00     0.028 C 
ATOM      5  C   LIG d   1      -7.920  72.316 117.308  0.00  0.00    -0.047 C 
ATOM      6  C   LIG d   1      -8.973  73.432 117.498  0.00  0.00     0.091 C 
ENDROOT
BRANCH   1   7
ATOM      7  O   LIG d   1      -9.280  75.858 117.333  0.00  0.00    -0.368 OA
BRANCH   7   8
ATOM      8  C   LIG d   1      -9.406  76.893 118.338  0.00  0.00     0.119 C 
BRANCH   8   9
ATOM      9  C   LIG d   1     -10.882  77.333 118.369  0.00  0.00     0.028 C 
ATOM     10  C   LIG d   1     -11.573  76.979 119.697  0.00  0.00     0.006 C 
ENDBRANCH   8   9
BRANCH   8  11
ATOM     11  C   LIG d   1      -8.617  78.147 117.948  0.00  0.00     0.028 C 
ATOM     12  C   LIG d   1      -9.337  79.448 118.336  0.00  0.00     0.006 C 
ENDBRANCH   8  11
ENDBRANCH   7   8
ENDBRANCH   1   7
BRANCH   6  13
ATOM     13  N   LIG d   1      -9.800  73.231 118.716  0.00  0.00    -0.311 N 
ATOM     14  C   LIG d   1     -11.108  73.479 118.763  0.00  0.00     0.210 C 
ATOM     15  C   LIG d   1     -11.765  73.223 120.123  0.00  0.00     0.109 C 
ATOM     16  O   LIG d   1     -11.792  73.856 117.800  0.00  0.00    -0.276 OA
ATOM     17  H   LIG d   1      -9.331  72.897 119.535  0.00  0.00     0.149 HD
ENDBRANCH   6  13
BRANCH   5  18
ATOM     18  N   LIG d   1      -8.521  70.987 117.084  0.00  0.00     0.381 N 
ATOM     19  H   LIG d   1      -8.140  70.579 116.254  0.00  0.00    -0.090 HD
ATOM     20  H   LIG d   1      -9.511  71.095 116.957  0.00  0.00    -0.090 HD
ATOM     21  H   LIG d   1      -8.341  70.396 117.866  0.00  0.00    -0.090 HD
ENDBRANCH   5  18
BRANCH   3  22
ATOM     22  C   LIG d   1      -5.314  74.170 115.496  0.00  0.00     0.382 C 
ATOM     23  O   LIG d   1      -4.308  74.481 116.179  0.00  0.00    -0.241 OA
ATOM     24  O   LIG d   1      -5.218  74.112 114.255  0.00  0.00    -0.241 OA
ENDBRANCH   3  22
TORSDOF 7
ENDMDL
MODEL 5
REMARK VINA RESULT:      -5.6     15.950     17.811
REMARK  7 active torsions:
REMARK  status: ('A' for Active; 'I' for Inactive)
REMARK    1  A    between atoms: C_2  and  C_3 
REMARK    2  A    between atoms: C_3  and  O_6 
REMARK    3  A    between atoms: C_3  and  C_4 
REMARK    4  A    between atoms: C_7  and  O_6 
REMARK    5  A    between atoms: C_9  and  C_10 
REMARK    6  A    between atoms: N_15  and  C_14 
REMARK    7  A    between atoms: N_20  and  C_19 
REMARK       I    between atoms: C_22  and  N_20 
ROOT
ATOM      1  C   LIG d   1      -8.428  75.177 117.081  0.00  0.00     0.161 C 
ATOM      2  C   LIG d   1      -7.623  74.910 115.961  0.00  0.00     0.016 C 
ATOM      3  C   LIG d   1      -6.329  75.452 115.786  0.00  0.00     0.038 C 
ATOM      4  C   LIG d   1      -5.688  76.183 116.798  0.00  0.00     0.028 C 
ATOM      5  C   LIG d   1      -6.656  76.899 117.734  0.00  0.00    -0.047 C 
ATOM      6  C   LIG d   1      -7.702  75.883 118.246  0.00  0.00     0.091 C 
ENDROOT
BRANCH   1   7
ATOM      7  O   LIG d   1      -9.046  73.959 117.540  0.00  0.00    -0.368 OA
BRANCH   7   8
ATOM      8  C   LIG d   1     -10.460  73.815 117.257  0.00  0.00     0.119 C 
BRANCH   8   9
ATOM      9  C   LIG d   1     -10.982  75.191 116.799  0.00  0.00     0.028 C 
ATOM     10  C   LIG d   1     -12.061  75.752 117.741  0.00  0.00     0.006 C 
ENDBRANCH   8   9
BRANCH   8  11
ATOM     11  C   LIG d   1     -11.251  73.482 118.525  0.00  0.00     0.028 C 
ATOM     12  C   LIG d   1     -10.532  72.466 119.426  0.00  0.00     0.006 C 
ENDBRANCH   8  11
ENDBRANCH   7   8
ENDBRANCH   1   7
BRANCH   6  13
ATOM     13  N   LIG d   1      -8.738  76.518 119.102  0.00  0.00    -0.311 N 
ATOM     14  C   LIG d   1      -9.104  76.036 120.288  0.00  0.00     0.210 C 
ATOM     15  C   LIG d   1     -10.204  76.833 120.998  0.00  0.00     0.109 C 
ATOM     16  O   LIG d   1      -8.601  75.043 120.835  0.00  0.00    -0.276 OA
ATOM     17  H   LIG d   1      -9.176  77.346 118.749  0.00  0.00     0.149 HD
ENDBRANCH   6  13
BRANCH   5  18
ATOM     18  N   LIG d   1      -5.861  77.506 118.818  0.00  0.00     0.381 N 
ATOM     19  H   LIG d   1      -6.470  77.935 119.485  0.00  0.00    -0.090 HD
ATOM     20  H   LIG d   1      -5.269  78.218 118.427  0.00  0.00    -0.090 HD
ATOM     21  H   LIG d   1      -5.305  76.810 119.264  0.00  0.00    -0.090 HD
ENDBRANCH   5  18
BRANCH   3  22
ATOM     22  C   LIG d   1      -5.678  75.298 114.572  0.00  0.00     0.382 C 
ATOM     23  O   LIG d   1      -5.864  76.130 113.651  0.00  0.00    -0.241 OA
ATOM     24  O   LIG d   1      -4.941  74.314 114.370  0.00  0.00    -0.241 OA
ENDBRANCH   3  22
TORSDOF 7
ENDMDL
MODEL 6
REMARK VINA RESULT:      -5.4     15.929     18.334
REMARK  7 active torsions:
REMARK  status: ('A' for Active; 'I' for Inactive)
REMARK    1  A    between atoms: C_2  and  C_3 
REMARK    2  A    between atoms: C_3  and  O_6 
REMARK    3  A    between atoms: C_3  and  C_4 
REMARK    4  A    between atoms: C_7  and  O_6 
REMARK    5  A    between atoms: C_9  and  C_10 
REMARK    6  A    between atoms: N_15  and  C_14 
REMARK    7  A    between atoms: N_20  and  C_19 
REMARK       I    between atoms: C_22  and  N_20 
ROOT
ATOM      1  C   LIG d   1     -10.767  74.653 117.419  0.00  0.00     0.161 C 
ATOM      2  C   LIG d   1      -9.547  74.977 116.801  0.00  0.00     0.016 C 
ATOM      3  C   LIG d   1      -8.912  76.231 116.944  0.00  0.00     0.038 C 
ATOM      4  C   LIG d   1      -9.380  77.202 117.841  0.00  0.00     0.028 C 
ATOM      5  C   LIG d   1     -10.880  77.113 118.101  0.00  0.00    -0.047 C 
ATOM      6  C   LIG d   1     -11.237  75.660 118.490  0.00  0.00     0.091 C 
ENDROOT
BRANCH   1   7
ATOM      7  O   LIG d   1     -10.696  73.326 117.975  0.00  0.00    -0.368 OA
BRANCH   7   8
ATOM      8  C   LIG d   1      -9.497  73.012 118.725  0.00  0.00     0.119 C 
BRANCH   8   9
ATOM      9  C   LIG d   1      -9.129  71.548 118.418  0.00  0.00     0.028 C 
ATOM     10  C   LIG d   1      -8.427  71.392 117.059  0.00  0.00     0.006 C 
ENDBRANCH   8   9
BRANCH   8  11
ATOM     11  C   LIG d   1      -9.755  73.058 120.234  0.00  0.00     0.028 C 
ATOM     12  C   LIG d   1      -9.018  74.214 120.930  0.00  0.00     0.006 C 
ENDBRANCH   8  11
ENDBRANCH   7   8
ENDBRANCH   1   7
BRANCH   6  13
ATOM     13  N   LIG d   1     -12.698  75.466 118.679  0.00  0.00    -0.311 N 
ATOM     14  C   LIG d   1     -13.298  75.531 119.867  0.00  0.00     0.210 C 
ATOM     15  C   LIG d   1     -14.809  75.281 119.842  0.00  0.00     0.109 C 
ATOM     16  O   LIG d   1     -12.728  75.804 120.933  0.00  0.00    -0.276 OA
ATOM     17  H   LIG d   1     -13.242  75.271 117.862  0.00  0.00     0.149 HD
ENDBRANCH   6  13
BRANCH   5  18
ATOM     18  N   LIG d   1     -11.209  78.090 119.156  0.00  0.00     0.381 N 
ATOM     19  H   LIG d   1     -10.455  78.147 119.812  0.00  0.00    -0.090 HD
ATOM     20  H   LIG d   1     -12.029  77.778 119.645  0.00  0.00    -0.090 HD
ATOM     21  H   LIG d   1     -11.375  78.986 118.752  0.00  0.00    -0.090 HD
ENDBRANCH   5  18
BRANCH   3  22
ATOM     22  C   LIG d   1      -7.815  76.540 116.153  0.00  0.00     0.382 C 
ATOM     23  O   LIG d   1      -7.010  77.430 116.518  0.00  0.00    -0.241 OA
ATOM     24  O   LIG d   1      -7.646  75.971 115.058  0.00  0.00    -0.241 OA
ENDBRANCH   3  22
TORSDOF 7
ENDMDL
MODEL 7
REMARK VINA RESULT:      -5.4     15.617     18.023
REMARK  7 active torsions:
REMARK  status: ('A' for Active; 'I' for Inactive)
REMARK    1  A    between atoms: C_2  and  C_3 
REMARK    2  A    between atoms: C_3  and  O_6 
REMARK    3  A    between atoms: C_3  and  C_4 
REMARK    4  A    between atoms: C_7  and  O_6 
REMARK    5  A    between atoms: C_9  and  C_10 
REMARK    6  A    between atoms: N_15  and  C_14 
REMARK    7  A    between atoms: N_20  and  C_19 
REMARK       I    between atoms: C_22  and  N_20 
ROOT
ATOM      1  C   LIG d   1      -9.414  75.570 116.777  0.00  0.00     0.161 C 
ATOM      2  C   LIG d   1     -10.675  75.552 117.396  0.00  0.00     0.016 C 
ATOM      3  C   LIG d   1     -11.192  74.425 118.075  0.00  0.00     0.038 C 
ATOM      4  C   LIG d   1     -10.415  73.281 118.313  0.00  0.00     0.028 C 
ATOM      5  C   LIG d   1      -9.322  73.065 117.272  0.00  0.00    -0.047 C 
ATOM      6  C   LIG d   1      -8.507  74.370 117.121  0.00  0.00     0.091 C 
ENDROOT
BRANCH   1   7
ATOM      7  O   LIG d   1      -8.740  76.809 117.076  0.00  0.00    -0.368 OA
BRANCH   7   8
ATOM      8  C   LIG d   1      -9.047  77.407 118.360  0.00  0.00     0.119 C 
BRANCH   8   9
ATOM      9  C   LIG d   1      -9.065  78.936 118.165  0.00  0.00     0.028 C 
ATOM     10  C   LIG d   1     -10.410  79.562 118.569  0.00  0.00     0.006 C 
ENDBRANCH   8   9
BRANCH   8  11
ATOM     11  C   LIG d   1      -7.934  77.141 119.378  0.00  0.00     0.028 C 
ATOM     12  C   LIG d   1      -8.357  76.154 120.478  0.00  0.00     0.006 C 
ENDBRANCH   8  11
ENDBRANCH   7   8
ENDBRANCH   1   7
BRANCH   6  13
ATOM     13  N   LIG d   1      -7.470  74.272 116.061  0.00  0.00    -0.311 N 
ATOM     14  C   LIG d   1      -6.244  74.778 116.185  0.00  0.00     0.210 C 
ATOM     15  C   LIG d   1      -5.338  74.583 114.966  0.00  0.00     0.109 C 
ATOM     16  O   LIG d   1      -5.811  75.341 117.202  0.00  0.00    -0.276 OA
ATOM     17  H   LIG d   1      -7.726  73.803 115.214  0.00  0.00     0.149 HD
ENDBRANCH   6  13
BRANCH   5  18
ATOM     18  N   LIG d   1      -8.503  71.921 117.715  0.00  0.00     0.381 N 
ATOM     19  H   LIG d   1      -8.255  71.356 116.928  0.00  0.00    -0.090 HD
ATOM     20  H   LIG d   1      -9.046  71.359 118.348  0.00  0.00    -0.090 HD
ATOM     21  H   LIG d   1      -7.680  72.247 118.172  0.00  0.00    -0.090 HD
ENDBRANCH   5  18
BRANCH   3  22
ATOM     22  C   LIG d   1     -12.515  74.420 118.491  0.00  0.00     0.382 C 
ATOM     23  O   LIG d   1     -13.363  75.123 117.891  0.00  0.00    -0.241 OA
ATOM     24  O   LIG d   1     -12.862  73.756 119.486  0.00  0.00    -0.241 OA
ENDBRANCH   3  22
TORSDOF 7
ENDMDL
MODEL 8
REMARK VINA RESULT:      -5.3     15.484     17.927
REMARK  7 active torsions:
REMARK  status: ('A' for Active; 'I' for Inactive)
REMARK    1  A    between atoms: C_2  and  C_3 
REMARK    2  A    between atoms: C_3  and  O_6 
REMARK    3  A    between atoms: C_3  and  C_4 
REMARK    4  A    between atoms: C_7  and  O_6 
REMARK    5  A    between atoms: C_9  and  C_10 
REMARK    6  A    between atoms: N_15  and  C_14 
REMARK    7  A    between atoms: N_20  and  C_19 
REMARK       I    between atoms: C_22  and  N_20 
ROOT
ATOM      1  C   LIG d   1      -7.706  75.430 117.172  0.00  0.00     0.161 C 
ATOM      2  C   LIG d   1      -6.661  75.968 116.402  0.00  0.00     0.016 C 
ATOM      3  C   LIG d   1      -5.827  75.187 115.569  0.00  0.00     0.038 C 
ATOM      4  C   LIG d   1      -6.078  73.828 115.333  0.00  0.00     0.028 C 
ATOM      5  C   LIG d   1      -6.811  73.139 116.478  0.00  0.00    -0.047 C 
ATOM      6  C   LIG d   1      -8.066  73.966 116.841  0.00  0.00     0.091 C 
ENDROOT
BRANCH   1   7
ATOM      7  O   LIG d   1      -8.873  76.269 117.066  0.00  0.00    -0.368 OA
BRANCH   7   8
ATOM      8  C   LIG d   1      -9.211  77.042 118.244  0.00  0.00     0.119 C 
BRANCH   8   9
ATOM      9  C   LIG d   1      -8.819  78.506 117.965  0.00  0.00     0.028 C 
ATOM     10  C   LIG d   1      -7.747  79.022 118.939  0.00  0.00     0.006 C 
ENDBRANCH   8   9
BRANCH   8  11
ATOM     11  C   LIG d   1      -8.367  76.618 119.450  0.00  0.00     0.028 C 
ATOM     12  C   LIG d   1      -9.209  76.013 120.584  0.00  0.00     0.006 C 
ENDBRANCH   8  11
ENDBRANCH   7   8
ENDBRANCH   1   7
BRANCH   6  13
ATOM     13  N   LIG d   1      -8.795  73.407 118.009  0.00  0.00    -0.311 N 
ATOM     14  C   LIG d   1     -10.124  73.355 118.087  0.00  0.00     0.210 C 
ATOM     15  C   LIG d   1     -10.672  72.759 119.387  0.00  0.00     0.109 C 
ATOM     16  O   LIG d   1     -10.900  73.718 117.190  0.00  0.00    -0.276 OA
ATOM     17  H   LIG d   1      -8.243  73.062 118.769  0.00  0.00     0.149 HD
ENDBRANCH   6  13
BRANCH   5  18
ATOM     18  N   LIG d   1      -7.130  71.766 116.042  0.00  0.00     0.381 N 
ATOM     19  H   LIG d   1      -7.466  71.780 115.100  0.00  0.00    -0.090 HD
ATOM     20  H   LIG d   1      -7.856  71.398 116.631  0.00  0.00    -0.090 HD
ATOM     21  H   LIG d   1      -6.318  71.191 116.105  0.00  0.00    -0.090 HD
ENDBRANCH   5  18
BRANCH   3  22
ATOM     22  C   LIG d   1      -4.702  75.759 114.995  0.00  0.00     0.382 C 
ATOM     23  O   LIG d   1      -3.793  75.028 114.532  0.00  0.00    -0.241 OA
ATOM     24  O   LIG d   1      -4.564  76.997 114.972  0.00  0.00    -0.241 OA
ENDBRANCH   3  22
TORSDOF 7
ENDMDL
MODEL 9
REMARK VINA RESULT:      -5.0     27.292     30.106
REMARK  7 active torsions:
REMARK  status: ('A' for Active; 'I' for Inactive)
REMARK    1  A    between atoms: C_2  and  C_3 
REMARK    2  A    between atoms: C_3  and  O_6 
REMARK    3  A    between atoms: C_3  and  C_4 
REMARK    4  A    between atoms: C_7  and  O_6 
REMARK    5  A    between atoms: C_9  and  C_10 
REMARK    6  A    between atoms: N_15  and  C_14 
REMARK    7  A    between atoms: N_20  and  C_19 
REMARK       I    between atoms: C_22  and  N_20 
ROOT
ATOM      1  C   LIG d   1     -16.044  64.691 116.646  0.00  0.00     0.161 C 
ATOM      2  C   LIG d   1     -16.082  65.940 116.005  0.00  0.00     0.016 C 
ATOM      3  C   LIG d   1     -15.412  67.086 116.491  0.00  0.00     0.038 C 
ATOM      4  C   LIG d   1     -14.528  67.022 117.578  0.00  0.00     0.028 C 
ATOM      5  C   LIG d   1     -14.852  65.899 118.557  0.00  0.00    -0.047 C 
ATOM      6  C   LIG d   1     -14.995  64.575 117.772  0.00  0.00     0.091 C 
ENDROOT
BRANCH   1   7
ATOM      7  O   LIG d   1     -15.851  63.647 115.672  0.00  0.00    -0.368 OA
BRANCH   7   8
ATOM      8  C   LIG d   1     -16.989  62.784 115.429  0.00  0.00     0.119 C 
BRANCH   8   9
ATOM      9  C   LIG d   1     -18.207  63.414 116.133  0.00  0.00     0.028 C 
ATOM     10  C   LIG d   1     -19.265  63.917 115.137  0.00  0.00     0.006 C 
ENDBRANCH   8   9
BRANCH   8  11
ATOM     11  C   LIG d   1     -16.802  61.415 116.090  0.00  0.00     0.028 C 
ATOM     12  C   LIG d   1     -17.859  61.124 117.167  0.00  0.00     0.006 C 
ENDBRANCH   8  11
ENDBRANCH   7   8
ENDBRANCH   1   7
BRANCH   6  13
ATOM     13  N   LIG d   1     -15.395  63.439 118.644  0.00  0.00    -0.311 N 
ATOM     14  C   LIG d   1     -14.595  62.411 118.922  0.00  0.00     0.210 C 
ATOM     15  C   LIG d   1     -15.212  61.338 119.825  0.00  0.00     0.109 C 
ATOM     16  O   LIG d   1     -13.423  62.302 118.534  0.00  0.00    -0.276 OA
ATOM     17  H   LIG d   1     -16.320  63.463 119.027  0.00  0.00     0.149 HD
ENDBRANCH   6  13
BRANCH   5  18
ATOM     18  N   LIG d   1     -13.775  65.860 119.564  0.00  0.00     0.381 N 
ATOM     19  H   LIG d   1     -13.535  66.792 119.839  0.00  0.00    -0.090 HD
ATOM     20  H   LIG d   1     -12.963  65.432 119.156  0.00  0.00    -0.090 HD
ATOM     21  H   LIG d   1     -14.070  65.338 120.360  0.00  0.00    -0.090 HD
ENDBRANCH   5  18
BRANCH   3  22
ATOM     22  C   LIG d   1     -15.654  68.322 115.911  0.00  0.00     0.382 C 
ATOM     23  O   LIG d   1     -16.557  69.063 116.369  0.00  0.00    -0.241 OA
ATOM     24  O   LIG d   1     -15.011  68.686 114.908  0.00  0.00    -0.241 OA
ENDBRANCH   3  22
TORSDOF 7
ENDMDL
