MODEL 1
REMARK VINA RESULT:      -6.6      0.000      0.000
REMARK  7 active torsions:
REMARK  status: ('A' for Active; 'I' for Inactive)
REMARK    1  A    between atoms: C_2  and  C_3 
REMARK    2  A    between atoms: C_3  and  O_6 
REMARK    3  A    between atoms: C_3  and  C_4 
REMARK    4  A    between atoms: C_7  and  O_6 
REMARK    5  A    between atoms: C_9  and  C_10 
REMARK    6  A    between atoms: N_15  and  C_14 
REMARK    7  A    between atoms: N_20  and  C_19 
REMARK       I    between atoms: C_22  and  N_20 
ROOT
ATOM      1  C   LIG d   1       0.952  83.281 111.334  0.00  0.00     0.161 C 
ATOM      2  C   LIG d   1       1.850  83.173 110.259  0.00  0.00     0.016 C 
ATOM      3  C   LIG d   1       1.847  82.093 109.347  0.00  0.00     0.038 C 
ATOM      4  C   LIG d   1       0.840  81.116 109.359  0.00  0.00     0.028 C 
ATOM      5  C   LIG d   1       0.213  80.910 110.734  0.00  0.00    -0.047 C 
ATOM      6  C   LIG d   1      -0.223  82.282 111.297  0.00  0.00     0.091 C 
ENDROOT
BRANCH   1   7
ATOM      7  O   LIG d   1       0.459  84.632 111.425  0.00  0.00    -0.368 OA
BRANCH   7   8
ATOM      8  C   LIG d   1       1.026  85.582 110.490  0.00  0.00     0.119 C 
BRANCH   8   9
ATOM      9  C   LIG d   1       1.517  86.795 111.303  0.00  0.00     0.028 C 
ATOM     10  C   LIG d   1       2.995  86.670 111.709  0.00  0.00     0.006 C 
ENDBRANCH   8   9
BRANCH   8  11
ATOM     11  C   LIG d   1      -0.042  86.135 109.541  0.00  0.00     0.028 C 
ATOM     12  C   LIG d   1      -1.315  86.586 110.275  0.00  0.00     0.006 C 
ENDBRANCH   8  11
ENDBRANCH   7   8
ENDBRANCH   1   7
BRANCH   6  13
ATOM     13  N   LIG d   1      -0.771  82.180 112.675  0.00  0.00    -0.311 N 
ATOM     14  C   LIG d   1      -2.063  81.995 112.938  0.00  0.00     0.210 C 
ATOM     15  C   LIG d   1      -2.418  81.940 114.428  0.00  0.00     0.109 C 
ATOM     16  O   LIG d   1      -2.945  81.840 112.080  0.00  0.00    -0.276 OA
ATOM     17  H   LIG d   1      -0.121  82.265 113.432  0.00  0.00     0.149 HD
ENDBRANCH   6  13
BRANCH   5  18
ATOM     18  N   LIG d   1      -0.911  79.967 110.574  0.00  0.00     0.381 N 
ATOM     19  H   LIG d   1      -0.718  79.122 111.074  0.00  0.00    -0.090 HD
ATOM     20  H   LIG d   1      -1.009  79.741 109.600  0.00  0.00    -0.090 HD
ATOM     21  H   LIG d   1      -1.752  80.378 110.914  0.00  0.00    -0.090 HD
ENDBRANCH   5  18
BRANCH   3  22
ATOM     22  C   LIG d   1       2.882  81.961 108.434  0.00  0.00     0.382 C 
ATOM     23  O   LIG d   1       3.860  81.221 108.698  0.00  0.00    -0.241 OA
ATOM     24  O   LIG d   1       2.872  82.607 107.369  0.00  0.00    -0.241 OA
ENDBRANCH   3  22
TORSDOF 7
ENDMDL
MODEL 2
REMARK VINA RESULT:      -6.6      1.657      4.904
REMARK  7 active torsions:
REMARK  status: ('A' for Active; 'I' for Inactive)
REMARK    1  A    between atoms: C_2  and  C_3 
REMARK    2  A    between atoms: C_3  and  O_6 
REMARK    3  A    between atoms: C_3  and  C_4 
REMARK    4  A    between atoms: C_7  and  O_6 
REMARK    5  A    between atoms: C_9  and  C_10 
REMARK    6  A    between atoms: N_15  and  C_14 
REMARK    7  A    between atoms: N_20  and  C_19 
REMARK       I    between atoms: C_22  and  N_20 
ROOT
ATOM      1  C   LIG d   1      -0.151  82.886 111.157  0.00  0.00     0.161 C 
ATOM      2  C   LIG d   1      -1.255  82.550 111.958  0.00  0.00     0.016 C 
ATOM      3  C   LIG d   1      -1.721  81.226 112.126  0.00  0.00     0.038 C 
ATOM      4  C   LIG d   1      -1.017  80.123 111.621  0.00  0.00     0.028 C 
ATOM      5  C   LIG d   1      -0.183  80.450 110.386  0.00  0.00    -0.047 C 
ATOM      6  C   LIG d   1       0.697  81.684 110.688  0.00  0.00     0.091 C 
ENDROOT
BRANCH   1   7
ATOM      7  O   LIG d   1       0.677  83.845 111.844  0.00  0.00    -0.368 OA
BRANCH   7   8
ATOM      8  C   LIG d   1       0.707  85.180 111.281  0.00  0.00     0.119 C 
BRANCH   8   9
ATOM      9  C   LIG d   1      -0.278  85.204 110.096  0.00  0.00     0.028 C 
ATOM     10  C   LIG d   1      -1.256  86.388 110.170  0.00  0.00     0.006 C 
ENDBRANCH   8   9
BRANCH   8  11
ATOM     11  C   LIG d   1       2.077  85.500 110.677  0.00  0.00     0.028 C 
ATOM     12  C   LIG d   1       3.242  85.062 111.578  0.00  0.00     0.006 C 
ENDBRANCH   8  11
ENDBRANCH   7   8
ENDBRANCH   1   7
BRANCH   6  13
ATOM     13  N   LIG d   1       1.483  82.123 109.505  0.00  0.00    -0.311 N 
ATOM     14  C   LIG d   1       2.812  82.073 109.449  0.00  0.00     0.210 C 
ATOM     15  C   LIG d   1       3.424  82.593 108.144  0.00  0.00     0.109 C 
ATOM     16  O   LIG d   1       3.542  81.619 110.343  0.00  0.00    -0.276 OA
ATOM     17  H   LIG d   1       0.969  82.477 108.722  0.00  0.00     0.149 HD
ENDBRANCH   6  13
BRANCH   5  18
ATOM     18  N   LIG d   1       0.604  79.248 110.049  0.00  0.00     0.381 N 
ATOM     19  H   LIG d   1       0.934  79.313 109.107  0.00  0.00    -0.090 HD
ATOM     20  H   LIG d   1       0.010  78.440 110.120  0.00  0.00    -0.090 HD
ATOM     21  H   LIG d   1       1.375  79.159 110.673  0.00  0.00    -0.090 HD
ENDBRANCH   5  18
BRANCH   3  22
ATOM     22  C   LIG d   1      -2.926  80.998 112.772  0.00  0.00     0.382 C 
ATOM     23  O   LIG d   1      -3.122  79.912 113.368  0.00  0.00    -0.241 OA
ATOM     24  O   LIG d   1      -3.836  81.847 112.729  0.00  0.00    -0.241 OA
ENDBRANCH   3  22
TORSDOF 7
ENDMDL
MODEL 3
REMARK VINA RESULT:      -6.4      2.504      5.079
REMARK  7 active torsions:
REMARK  status: ('A' for Active; 'I' for Inactive)
REMARK    1  A    between atoms: C_2  and  C_3 
REMARK    2  A    between atoms: C_3  and  O_6 
REMARK    3  A    between atoms: C_3  and  C_4 
REMARK    4  A    between atoms: C_7  and  O_6 
REMARK    5  A    between atoms: C_9  and  C_10 
REMARK    6  A    between atoms: N_15  and  C_14 
REMARK    7  A    between atoms: N_20  and  C_19 
REMARK       I    between atoms: C_22  and  N_20 
ROOT
ATOM      1  C   LIG d   1       1.860  83.696 111.203  0.00  0.00     0.161 C 
ATOM      2  C   LIG d   1       0.936  82.644 111.090  0.00  0.00     0.016 C 
ATOM      3  C   LIG d   1      -0.295  82.611 111.786  0.00  0.00     0.038 C 
ATOM      4  C   LIG d   1      -0.755  83.708 112.531  0.00  0.00     0.028 C 
ATOM      5  C   LIG d   1       0.368  84.582 113.079  0.00  0.00    -0.047 C 
ATOM      6  C   LIG d   1       1.326  84.952 111.924  0.00  0.00     0.091 C 
ENDROOT
BRANCH   1   7
ATOM      7  O   LIG d   1       2.366  84.044 109.899  0.00  0.00    -0.368 OA
BRANCH   7   8
ATOM      8  C   LIG d   1       1.863  83.259 108.790  0.00  0.00     0.119 C 
BRANCH   8   9
ATOM      9  C   LIG d   1       3.081  82.680 108.044  0.00  0.00     0.028 C 
ATOM     10  C   LIG d   1       3.649  81.426 108.731  0.00  0.00     0.006 C 
ENDBRANCH   8   9
BRANCH   8  11
ATOM     11  C   LIG d   1       1.141  84.139 107.766  0.00  0.00     0.028 C 
ATOM     12  C   LIG d   1       0.589  85.435 108.379  0.00  0.00     0.006 C 
ENDBRANCH   8  11
ENDBRANCH   7   8
ENDBRANCH   1   7
BRANCH   6  13
ATOM     13  N   LIG d   1       2.499  85.736 112.389  0.00  0.00    -0.311 N 
ATOM     14  C   LIG d   1       2.703  87.012 112.067  0.00  0.00     0.210 C 
ATOM     15  C   LIG d   1       3.985  87.627 112.637  0.00  0.00     0.109 C 
ATOM     16  O   LIG d   1       1.926  87.703 111.390  0.00  0.00    -0.276 OA
ATOM     17  H   LIG d   1       3.164  85.262 112.969  0.00  0.00     0.149 HD
ENDBRANCH   6  13
BRANCH   5  18
ATOM     18  N   LIG d   1      -0.253  85.759 113.715  0.00  0.00     0.381 N 
ATOM     19  H   LIG d   1      -1.231  85.595 113.848  0.00  0.00    -0.090 HD
ATOM     20  H   LIG d   1      -0.146  86.551 113.106  0.00  0.00    -0.090 HD
ATOM     21  H   LIG d   1       0.182  85.943 114.592  0.00  0.00    -0.090 HD
ENDBRANCH   5  18
BRANCH   3  22
ATOM     22  C   LIG d   1      -1.061  81.456 111.773  0.00  0.00     0.382 C 
ATOM     23  O   LIG d   1      -0.518  80.346 111.559  0.00  0.00    -0.241 OA
ATOM     24  O   LIG d   1      -2.296  81.515 111.928  0.00  0.00    -0.241 OA
ENDBRANCH   3  22
TORSDOF 7
ENDMDL
MODEL 4
REMARK VINA RESULT:      -6.2      2.509      5.498
REMARK  7 active torsions:
REMARK  status: ('A' for Active; 'I' for Inactive)
REMARK    1  A    between atoms: C_2  and  C_3 
REMARK    2  A    between atoms: C_3  and  O_6 
REMARK    3  A    between atoms: C_3  and  C_4 
REMARK    4  A    between atoms: C_7  and  O_6 
REMARK    5  A    between atoms: C_9  and  C_10 
REMARK    6  A    between atoms: N_15  and  C_14 
REMARK    7  A    between atoms: N_20  and  C_19 
REMARK       I    between atoms: C_22  and  N_20 
ROOT
ATOM      1  C   LIG d   1       1.746  82.884 111.982  0.00  0.00     0.161 C 
ATOM      2  C   LIG d   1       0.686  81.963 112.004  0.00  0.00     0.016 C 
ATOM      3  C   LIG d   1      -0.675  82.343 111.974  0.00  0.00     0.038 C 
ATOM      4  C   LIG d   1      -1.070  83.672 111.765  0.00  0.00     0.028 C 
ATOM      5  C   LIG d   1      -0.041  84.692 112.242  0.00  0.00    -0.047 C 
ATOM      6  C   LIG d   1       1.337  84.333 111.641  0.00  0.00     0.091 C 
ENDROOT
BRANCH   1   7
ATOM      7  O   LIG d   1       2.771  82.428 111.077  0.00  0.00    -0.368 OA
BRANCH   7   8
ATOM      8  C   LIG d   1       2.309  81.810 109.850  0.00  0.00     0.119 C 
BRANCH   8   9
ATOM      9  C   LIG d   1       3.090  80.494 109.672  0.00  0.00     0.028 C 
ATOM     10  C   LIG d   1       2.184  79.328 109.242  0.00  0.00     0.006 C 
ENDBRANCH   8   9
BRANCH   8  11
ATOM     11  C   LIG d   1       2.667  82.663 108.629  0.00  0.00     0.028 C 
ATOM     12  C   LIG d   1       1.446  83.367 108.015  0.00  0.00     0.006 C 
ENDBRANCH   8  11
ENDBRANCH   7   8
ENDBRANCH   1   7
BRANCH   6  13
ATOM     13  N   LIG d   1       2.418  85.231 112.125  0.00  0.00    -0.311 N 
ATOM     14  C   LIG d   1       2.710  86.399 111.556  0.00  0.00     0.210 C 
ATOM     15  C   LIG d   1       3.874  87.159 112.200  0.00  0.00     0.109 C 
ATOM     16  O   LIG d   1       2.096  86.892 110.598  0.00  0.00    -0.276 OA
ATOM     17  H   LIG d   1       2.947  84.922 112.918  0.00  0.00     0.149 HD
ENDBRANCH   6  13
BRANCH   5  18
ATOM     18  N   LIG d   1      -0.517  86.028 111.839  0.00  0.00     0.381 N 
ATOM     19  H   LIG d   1       0.122  86.432 111.183  0.00  0.00    -0.090 HD
ATOM     20  H   LIG d   1      -0.552  86.619 112.650  0.00  0.00    -0.090 HD
ATOM     21  H   LIG d   1      -1.423  85.958 111.430  0.00  0.00    -0.090 HD
ENDBRANCH   5  18
BRANCH   3  22
ATOM     22  C   LIG d   1      -1.659  81.391 112.194  0.00  0.00     0.382 C 
ATOM     23  O   LIG d   1      -2.865  81.734 112.237  0.00  0.00    -0.241 OA
ATOM     24  O   LIG d   1      -1.353  80.200 112.394  0.00  0.00    -0.241 OA
ENDBRANCH   3  22
TORSDOF 7
ENDMDL
MODEL 5
REMARK VINA RESULT:      -6.1      2.362      5.711
REMARK  7 active torsions:
REMARK  status: ('A' for Active; 'I' for Inactive)
REMARK    1  A    between atoms: C_2  and  C_3 
REMARK    2  A    between atoms: C_3  and  O_6 
REMARK    3  A    between atoms: C_3  and  C_4 
REMARK    4  A    between atoms: C_7  and  O_6 
REMARK    5  A    between atoms: C_9  and  C_10 
REMARK    6  A    between atoms: N_15  and  C_14 
REMARK    7  A    between atoms: N_20  and  C_19 
REMARK       I    between atoms: C_22  and  N_20 
ROOT
ATOM      1  C   LIG d   1       1.092  82.206 111.303  0.00  0.00     0.161 C 
ATOM      2  C   LIG d   1      -0.072  81.482 111.609  0.00  0.00     0.016 C 
ATOM      3  C   LIG d   1      -1.233  82.071 112.160  0.00  0.00     0.038 C 
ATOM      4  C   LIG d   1      -1.362  83.461 112.303  0.00  0.00     0.028 C 
ATOM      5  C   LIG d   1      -0.028  84.179 112.479  0.00  0.00    -0.047 C 
ATOM      6  C   LIG d   1       0.930  83.740 111.349  0.00  0.00     0.091 C 
ENDROOT
BRANCH   1   7
ATOM      7  O   LIG d   1       1.601  81.794 110.019  0.00  0.00    -0.368 OA
BRANCH   7   8
ATOM      8  C   LIG d   1       2.997  81.406 109.981  0.00  0.00     0.119 C 
BRANCH   8   9
ATOM      9  C   LIG d   1       3.643  82.119 108.777  0.00  0.00     0.028 C 
ATOM     10  C   LIG d   1       2.612  82.867 107.916  0.00  0.00     0.006 C 
ENDBRANCH   8   9
BRANCH   8  11
ATOM     11  C   LIG d   1       3.151  79.909 109.697  0.00  0.00     0.028 C 
ATOM     12  C   LIG d   1       1.884  79.284 109.093  0.00  0.00     0.006 C 
ENDBRANCH   8  11
ENDBRANCH   7   8
ENDBRANCH   1   7
BRANCH   6  13
ATOM     13  N   LIG d   1       2.286  84.332 111.495  0.00  0.00    -0.311 N 
ATOM     14  C   LIG d   1       2.652  85.476 110.920  0.00  0.00     0.210 C 
ATOM     15  C   LIG d   1       4.102  85.897 111.183  0.00  0.00     0.109 C 
ATOM     16  O   LIG d   1       1.905  86.199 110.245  0.00  0.00    -0.276 OA
ATOM     17  H   LIG d   1       2.947  83.826 112.052  0.00  0.00     0.149 HD
ENDBRANCH   6  13
BRANCH   5  18
ATOM     18  N   LIG d   1      -0.299  85.629 112.478  0.00  0.00     0.381 N 
ATOM     19  H   LIG d   1      -0.317  85.971 113.418  0.00  0.00    -0.090 HD
ATOM     20  H   LIG d   1      -1.201  85.791 112.067  0.00  0.00    -0.090 HD
ATOM     21  H   LIG d   1       0.403  86.106 111.956  0.00  0.00    -0.090 HD
ENDBRANCH   5  18
BRANCH   3  22
ATOM     22  C   LIG d   1      -2.265  81.264 112.612  0.00  0.00     0.382 C 
ATOM     23  O   LIG d   1      -3.457  81.619 112.447  0.00  0.00    -0.241 OA
ATOM     24  O   LIG d   1      -2.019  80.206 113.222  0.00  0.00    -0.241 OA
ENDBRANCH   3  22
TORSDOF 7
ENDMDL
MODEL 6
REMARK VINA RESULT:      -5.8      2.499      4.981
REMARK  7 active torsions:
REMARK  status: ('A' for Active; 'I' for Inactive)
REMARK    1  A    between atoms: C_2  and  C_3 
REMARK    2  A    between atoms: C_3  and  O_6 
REMARK    3  A    between atoms: C_3  and  C_4 
REMARK    4  A    between atoms: C_7  and  O_6 
REMARK    5  A    between atoms: C_9  and  C_10 
REMARK    6  A    between atoms: N_15  and  C_14 
REMARK    7  A    between atoms: N_20  and  C_19 
REMARK       I    between atoms: C_22  and  N_20 
ROOT
ATOM      1  C   LIG d   1       2.305  84.052 110.825  0.00  0.00     0.161 C 
ATOM      2  C   LIG d   1       2.949  85.289 110.991  0.00  0.00     0.016 C 
ATOM      3  C   LIG d   1       2.834  86.076 112.160  0.00  0.00     0.038 C 
ATOM      4  C   LIG d   1       2.183  85.605 113.309  0.00  0.00     0.028 C 
ATOM      5  C   LIG d   1       1.093  84.580 113.011  0.00  0.00    -0.047 C 
ATOM      6  C   LIG d   1       1.681  83.470 112.110  0.00  0.00     0.091 C 
ENDROOT
BRANCH   1   7
ATOM      7  O   LIG d   1       3.216  83.102 110.236  0.00  0.00    -0.368 OA
BRANCH   7   8
ATOM      8  C   LIG d   1       3.058  82.864 108.815  0.00  0.00     0.119 C 
BRANCH   8   9
ATOM      9  C   LIG d   1       1.565  83.050 108.478  0.00  0.00     0.028 C 
ATOM     10  C   LIG d   1       1.352  83.767 107.135  0.00  0.00     0.006 C 
ENDBRANCH   8   9
BRANCH   8  11
ATOM     11  C   LIG d   1       3.377  81.410 108.455  0.00  0.00     0.028 C 
ATOM     12  C   LIG d   1       2.538  80.400 109.255  0.00  0.00     0.006 C 
ENDBRANCH   8  11
ENDBRANCH   7   8
ENDBRANCH   1   7
BRANCH   6  13
ATOM     13  N   LIG d   1       0.660  82.471 111.702  0.00  0.00    -0.311 N 
ATOM     14  C   LIG d   1       0.441  81.335 112.362  0.00  0.00     0.210 C 
ATOM     15  C   LIG d   1      -0.644  80.436 111.761  0.00  0.00     0.109 C 
ATOM     16  O   LIG d   1       1.019  81.001 113.407  0.00  0.00    -0.276 OA
ATOM     17  H   LIG d   1       0.123  82.676 110.882  0.00  0.00     0.149 HD
ENDBRANCH   6  13
BRANCH   5  18
ATOM     18  N   LIG d   1       0.594  84.072 114.303  0.00  0.00     0.381 N 
ATOM     19  H   LIG d   1      -0.401  84.171 114.344  0.00  0.00    -0.090 HD
ATOM     20  H   LIG d   1       0.995  84.619 115.044  0.00  0.00    -0.090 HD
ATOM     21  H   LIG d   1       0.845  83.114 114.413  0.00  0.00    -0.090 HD
ENDBRANCH   5  18
BRANCH   3  22
ATOM     22  C   LIG d   1       3.339  87.367 112.172  0.00  0.00     0.382 C 
ATOM     23  O   LIG d   1       2.621  88.318 112.563  0.00  0.00    -0.241 OA
ATOM     24  O   LIG d   1       4.490  87.599 111.755  0.00  0.00    -0.241 OA
ENDBRANCH   3  22
TORSDOF 7
ENDMDL
MODEL 7
REMARK VINA RESULT:      -5.7      2.469      5.254
REMARK  7 active torsions:
REMARK  status: ('A' for Active; 'I' for Inactive)
REMARK    1  A    between atoms: C_2  and  C_3 
REMARK    2  A    between atoms: C_3  and  O_6 
REMARK    3  A    between atoms: C_3  and  C_4 
REMARK    4  A    between atoms: C_7  and  O_6 
REMARK    5  A    between atoms: C_9  and  C_10 
REMARK    6  A    between atoms: N_15  and  C_14 
REMARK    7  A    between atoms: N_20  and  C_19 
REMARK       I    between atoms: C_22  and  N_20 
ROOT
ATOM      1  C   LIG d   1      -0.595  81.156 111.685  0.00  0.00     0.161 C 
ATOM      2  C   LIG d   1      -1.150  79.866 111.631  0.00  0.00     0.016 C 
ATOM      3  C   LIG d   1      -2.215  79.443 112.459  0.00  0.00     0.038 C 
ATOM      4  C   LIG d   1      -2.903  80.333 113.297  0.00  0.00     0.028 C 
ATOM      5  C   LIG d   1      -2.052  81.514 113.753  0.00  0.00    -0.047 C 
ATOM      6  C   LIG d   1      -1.405  82.174 112.514  0.00  0.00     0.091 C 
ENDROOT
BRANCH   1   7
ATOM      7  O   LIG d   1      -0.384  81.653 110.348  0.00  0.00    -0.368 OA
BRANCH   7   8
ATOM      8  C   LIG d   1       0.992  81.907 109.972  0.00  0.00     0.119 C 
BRANCH   8   9
ATOM      9  C   LIG d   1       0.987  83.063 108.954  0.00  0.00     0.028 C 
ATOM     10  C   LIG d   1       1.879  84.236 109.393  0.00  0.00     0.006 C 
ENDBRANCH   8   9
BRANCH   8  11
ATOM     11  C   LIG d   1       1.596  80.712 109.228  0.00  0.00     0.028 C 
ATOM     12  C   LIG d   1       2.955  80.279 109.800  0.00  0.00     0.006 C 
ENDBRANCH   8  11
ENDBRANCH   7   8
ENDBRANCH   1   7
BRANCH   6  13
ATOM     13  N   LIG d   1      -0.489  83.287 112.878  0.00  0.00    -0.311 N 
ATOM     14  C   LIG d   1      -0.522  84.484 112.295  0.00  0.00     0.210 C 
ATOM     15  C   LIG d   1       0.523  85.481 112.806  0.00  0.00     0.109 C 
ATOM     16  O   LIG d   1      -1.337  84.825 111.425  0.00  0.00    -0.276 OA
ATOM     17  H   LIG d   1       0.184  83.107 113.597  0.00  0.00     0.149 HD
ENDBRANCH   6  13
BRANCH   5  18
ATOM     18  N   LIG d   1      -2.930  82.431 114.504  0.00  0.00     0.381 N 
ATOM     19  H   LIG d   1      -3.292  83.133 113.890  0.00  0.00    -0.090 HD
ATOM     20  H   LIG d   1      -2.389  82.886 115.219  0.00  0.00    -0.090 HD
ATOM     21  H   LIG d   1      -3.680  81.923 114.918  0.00  0.00    -0.090 HD
ENDBRANCH   5  18
BRANCH   3  22
ATOM     22  C   LIG d   1      -2.577  78.104 112.482  0.00  0.00     0.382 C 
ATOM     23  O   LIG d   1      -3.706  77.752 112.063  0.00  0.00    -0.241 OA
ATOM     24  O   LIG d   1      -1.806  77.250 112.958  0.00  0.00    -0.241 OA
ENDBRANCH   3  22
TORSDOF 7
ENDMDL
MODEL 8
REMARK VINA RESULT:      -5.6      1.737      4.501
REMARK  7 active torsions:
REMARK  status: ('A' for Active; 'I' for Inactive)
REMARK    1  A    between atoms: C_2  and  C_3 
REMARK    2  A    between atoms: C_3  and  O_6 
REMARK    3  A    between atoms: C_3  and  C_4 
REMARK    4  A    between atoms: C_7  and  O_6 
REMARK    5  A    between atoms: C_9  and  C_10 
REMARK    6  A    between atoms: N_15  and  C_14 
REMARK    7  A    between atoms: N_20  and  C_19 
REMARK       I    between atoms: C_22  and  N_20 
ROOT
ATOM      1  C   LIG d   1      -0.239  83.058 111.249  0.00  0.00     0.161 C 
ATOM      2  C   LIG d   1      -0.773  82.392 112.365  0.00  0.00     0.016 C 
ATOM      3  C   LIG d   1      -0.953  80.991 112.422  0.00  0.00     0.038 C 
ATOM      4  C   LIG d   1      -0.467  80.139 111.419  0.00  0.00     0.028 C 
ATOM      5  C   LIG d   1      -0.377  80.805 110.050  0.00  0.00    -0.047 C 
ATOM      6  C   LIG d   1       0.399  82.135 110.189  0.00  0.00     0.091 C 
ENDROOT
BRANCH   1   7
ATOM      7  O   LIG d   1       0.709  84.054 111.681  0.00  0.00    -0.368 OA
BRANCH   7   8
ATOM      8  C   LIG d   1       0.571  85.367 111.084  0.00  0.00     0.119 C 
BRANCH   8   9
ATOM      9  C   LIG d   1       1.224  86.382 112.042  0.00  0.00     0.028 C 
ATOM     10  C   LIG d   1       2.745  86.486 111.840  0.00  0.00     0.006 C 
ENDBRANCH   8   9
BRANCH   8  11
ATOM     11  C   LIG d   1      -0.899  85.785 110.990  0.00  0.00     0.028 C 
ATOM     12  C   LIG d   1      -1.285  86.299 109.594  0.00  0.00     0.006 C 
ENDBRANCH   8  11
ENDBRANCH   7   8
ENDBRANCH   1   7
BRANCH   6  13
ATOM     13  N   LIG d   1       0.461  82.891 108.912  0.00  0.00    -0.311 N 
ATOM     14  C   LIG d   1       1.571  83.016 108.186  0.00  0.00     0.210 C 
ATOM     15  C   LIG d   1       1.420  83.854 106.913  0.00  0.00     0.109 C 
ATOM     16  O   LIG d   1       2.657  82.484 108.459  0.00  0.00    -0.276 OA
ATOM     17  H   LIG d   1      -0.384  83.329 108.600  0.00  0.00     0.149 HD
ENDBRANCH   6  13
BRANCH   5  18
ATOM     18  N   LIG d   1       0.272  79.850 109.132  0.00  0.00     0.381 N 
ATOM     19  H   LIG d   1      -0.123  79.939 108.217  0.00  0.00    -0.090 HD
ATOM     20  H   LIG d   1       0.100  78.916 109.460  0.00  0.00    -0.090 HD
ATOM     21  H   LIG d   1       1.252  80.023 109.097  0.00  0.00    -0.090 HD
ENDBRANCH   5  18
BRANCH   3  22
ATOM     22  C   LIG d   1      -1.661  80.432 113.475  0.00  0.00     0.382 C 
ATOM     23  O   LIG d   1      -1.069  79.719 114.321  0.00  0.00    -0.241 OA
ATOM     24  O   LIG d   1      -2.893  80.596 113.566  0.00  0.00    -0.241 OA
ENDBRANCH   3  22
TORSDOF 7
ENDMDL
MODEL 9
REMARK VINA RESULT:      -5.5      2.085      4.533
REMARK  7 active torsions:
REMARK  status: ('A' for Active; 'I' for Inactive)
REMARK    1  A    between atoms: C_2  and  C_3 
REMARK    2  A    between atoms: C_3  and  O_6 
REMARK    3  A    between atoms: C_3  and  C_4 
REMARK    4  A    between atoms: C_7  and  O_6 
REMARK    5  A    between atoms: C_9  and  C_10 
REMARK    6  A    between atoms: N_15  and  C_14 
REMARK    7  A    between atoms: N_20  and  C_19 
REMARK       I    between atoms: C_22  and  N_20 
ROOT
ATOM      1  C   LIG d   1       1.077  83.542 111.271  0.00  0.00     0.161 C 
ATOM      2  C   LIG d   1       1.976  84.619 111.191  0.00  0.00     0.016 C 
ATOM      3  C   LIG d   1       1.851  85.796 111.964  0.00  0.00     0.038 C 
ATOM      4  C   LIG d   1       0.897  85.914 112.986  0.00  0.00     0.028 C 
ATOM      5  C   LIG d   1      -0.344  85.058 112.758  0.00  0.00    -0.047 C 
ATOM      6  C   LIG d   1       0.095  83.606 112.460  0.00  0.00     0.091 C 
ENDROOT
BRANCH   1   7
ATOM      7  O   LIG d   1       1.805  82.298 111.289  0.00  0.00    -0.368 OA
BRANCH   7   8
ATOM      8  C   LIG d   1       1.915  81.606 110.021  0.00  0.00     0.119 C 
BRANCH   8   9
ATOM      9  C   LIG d   1       2.588  82.569 109.024  0.00  0.00     0.028 C 
ATOM     10  C   LIG d   1       4.015  82.129 108.656  0.00  0.00     0.006 C 
ENDBRANCH   8   9
BRANCH   8  11
ATOM     11  C   LIG d   1       0.535  81.307 109.428  0.00  0.00     0.028 C 
ATOM     12  C   LIG d   1      -0.084  80.013 109.981  0.00  0.00     0.006 C 
ENDBRANCH   8  11
ENDBRANCH   7   8
ENDBRANCH   1   7
BRANCH   6  13
ATOM     13  N   LIG d   1      -1.054  82.720 112.142  0.00  0.00    -0.311 N 
ATOM     14  C   LIG d   1      -1.690  81.988 113.055  0.00  0.00     0.210 C 
ATOM     15  C   LIG d   1      -2.836  81.128 112.512  0.00  0.00     0.109 C 
ATOM     16  O   LIG d   1      -1.434  81.993 114.269  0.00  0.00    -0.276 OA
ATOM     17  H   LIG d   1      -1.348  82.679 111.186  0.00  0.00     0.149 HD
ENDBRANCH   6  13
BRANCH   5  18
ATOM     18  N   LIG d   1      -1.190  85.170 113.962  0.00  0.00     0.381 N 
ATOM     19  H   LIG d   1      -1.799  84.379 114.023  0.00  0.00    -0.090 HD
ATOM     20  H   LIG d   1      -1.754  85.998 113.886  0.00  0.00    -0.090 HD
ATOM     21  H   LIG d   1      -0.618  85.222 114.776  0.00  0.00    -0.090 HD
ENDBRANCH   5  18
BRANCH   3  22
ATOM     22  C   LIG d   1       2.661  86.888 111.690  0.00  0.00     0.382 C 
ATOM     23  O   LIG d   1       2.169  88.041 111.658  0.00  0.00    -0.241 OA
ATOM     24  O   LIG d   1       3.868  86.728 111.429  0.00  0.00    -0.241 OA
ENDBRANCH   3  22
TORSDOF 7
ENDMDL
