MODEL 1
REMARK VINA RESULT:      -6.2      0.000      0.000
REMARK  7 active torsions:
REMARK  status: ('A' for Active; 'I' for Inactive)
REMARK    1  A    between atoms: C_2  and  C_3 
REMARK    2  A    between atoms: C_3  and  O_6 
REMARK    3  A    between atoms: C_3  and  C_4 
REMARK    4  A    between atoms: C_7  and  O_6 
REMARK    5  A    between atoms: C_9  and  C_10 
REMARK    6  A    between atoms: N_15  and  C_14 
REMARK    7  A    between atoms: N_20  and  C_19 
REMARK       I    between atoms: C_22  and  N_20 
ROOT
ATOM      1  C   LIG d   1       0.671  83.348 111.674  0.00  0.00     0.161 C 
ATOM      2  C   LIG d   1      -0.499  82.985 112.362  0.00  0.00     0.016 C 
ATOM      3  C   LIG d   1      -0.823  81.650 112.695  0.00  0.00     0.038 C 
ATOM      4  C   LIG d   1       0.080  80.595 112.494  0.00  0.00     0.028 C 
ATOM      5  C   LIG d   1       1.055  80.843 111.348  0.00  0.00    -0.047 C 
ATOM      6  C   LIG d   1       1.720  82.224 111.545  0.00  0.00     0.091 C 
ENDROOT
BRANCH   1   7
ATOM      7  O   LIG d   1       1.257  84.513 112.287  0.00  0.00    -0.368 OA
BRANCH   7   8
ATOM      8  C   LIG d   1       1.127  85.754 111.552  0.00  0.00     0.119 C 
BRANCH   8   9
ATOM      9  C   LIG d   1       0.593  85.407 110.149  0.00  0.00     0.028 C 
ATOM     10  C   LIG d   1      -0.811  85.982 109.897  0.00  0.00     0.006 C 
ENDBRANCH   8   9
BRANCH   8  11
ATOM     11  C   LIG d   1       2.492  86.408 111.316  0.00  0.00     0.028 C 
ATOM     12  C   LIG d   1       2.735  87.625 112.222  0.00  0.00     0.006 C 
ENDBRANCH   8  11
ENDBRANCH   7   8
ENDBRANCH   1   7
BRANCH   6  13
ATOM     13  N   LIG d   1       2.626  82.582 110.422  0.00  0.00    -0.311 N 
ATOM     14  C   LIG d   1       3.872  83.019 110.597  0.00  0.00     0.210 C 
ATOM     15  C   LIG d   1       4.628  83.350 109.306  0.00  0.00     0.109 C 
ATOM     16  O   LIG d   1       4.434  83.134 111.697  0.00  0.00    -0.276 OA
ATOM     17  H   LIG d   1       2.262  82.488 109.494  0.00  0.00     0.149 HD
ENDBRANCH   6  13
BRANCH   5  18
ATOM     18  N   LIG d   1       2.023  79.730 111.339  0.00  0.00     0.381 N 
ATOM     19  H   LIG d   1       2.839  79.987 111.859  0.00  0.00    -0.090 HD
ATOM     20  H   LIG d   1       2.299  79.547 110.390  0.00  0.00    -0.090 HD
ATOM     21  H   LIG d   1       1.610  78.915 111.736  0.00  0.00    -0.090 HD
ENDBRANCH   5  18
BRANCH   3  22
ATOM     22  C   LIG d   1      -2.080  81.354 113.200  0.00  0.00     0.382 C 
ATOM     23  O   LIG d   1      -3.089  81.962 112.768  0.00  0.00    -0.241 OA
ATOM     24  O   LIG d   1      -2.213  80.517 114.113  0.00  0.00    -0.241 OA
ENDBRANCH   3  22
TORSDOF 7
ENDMDL
MODEL 2
REMARK VINA RESULT:      -5.9      2.989      6.143
REMARK  7 active torsions:
REMARK  status: ('A' for Active; 'I' for Inactive)
REMARK    1  A    between atoms: C_2  and  C_3 
REMARK    2  A    between atoms: C_3  and  O_6 
REMARK    3  A    between atoms: C_3  and  C_4 
REMARK    4  A    between atoms: C_7  and  O_6 
REMARK    5  A    between atoms: C_9  and  C_10 
REMARK    6  A    between atoms: N_15  and  C_14 
REMARK    7  A    between atoms: N_20  and  C_19 
REMARK       I    between atoms: C_22  and  N_20 
ROOT
ATOM      1  C   LIG d   1       2.369  86.248 112.008  0.00  0.00     0.161 C 
ATOM      2  C   LIG d   1       2.927  87.538 112.009  0.00  0.00     0.016 C 
ATOM      3  C   LIG d   1       3.745  88.031 113.050  0.00  0.00     0.038 C 
ATOM      4  C   LIG d   1       4.189  87.209 114.097  0.00  0.00     0.028 C 
ATOM      5  C   LIG d   1       3.243  86.053 114.401  0.00  0.00    -0.047 C 
ATOM      6  C   LIG d   1       2.932  85.300 113.087  0.00  0.00     0.091 C 
ENDROOT
BRANCH   1   7
ATOM      7  O   LIG d   1       2.506  85.657 110.701  0.00  0.00    -0.368 OA
BRANCH   7   8
ATOM      8  C   LIG d   1       1.426  84.790 110.277  0.00  0.00     0.119 C 
BRANCH   8   9
ATOM      9  C   LIG d   1       2.049  83.637 109.466  0.00  0.00     0.028 C 
ATOM     10  C   LIG d   1       3.517  83.380 109.843  0.00  0.00     0.006 C 
ENDBRANCH   8   9
BRANCH   8  11
ATOM     11  C   LIG d   1       0.484  85.507 109.305  0.00  0.00     0.028 C 
ATOM     12  C   LIG d   1      -0.810  85.991 109.978  0.00  0.00     0.006 C 
ENDBRANCH   8  11
ENDBRANCH   7   8
ENDBRANCH   1   7
BRANCH   6  13
ATOM     13  N   LIG d   1       1.947  84.204 113.281  0.00  0.00    -0.311 N 
ATOM     14  C   LIG d   1       2.293  82.934 113.483  0.00  0.00     0.210 C 
ATOM     15  C   LIG d   1       1.120  81.961 113.639  0.00  0.00     0.109 C 
ATOM     16  O   LIG d   1       3.460  82.526 113.581  0.00  0.00    -0.276 OA
ATOM     17  H   LIG d   1       0.977  84.451 113.248  0.00  0.00     0.149 HD
ENDBRANCH   6  13
BRANCH   5  18
ATOM     18  N   LIG d   1       3.892  85.201 115.416  0.00  0.00     0.381 N 
ATOM     19  H   LIG d   1       4.737  85.633 115.731  0.00  0.00    -0.090 HD
ATOM     20  H   LIG d   1       4.126  84.318 114.997  0.00  0.00    -0.090 HD
ATOM     21  H   LIG d   1       3.276  85.058 116.186  0.00  0.00    -0.090 HD
ENDBRANCH   5  18
BRANCH   3  22
ATOM     22  C   LIG d   1       4.097  89.372 113.072  0.00  0.00     0.382 C 
ATOM     23  O   LIG d   1       3.206  90.255 113.022  0.00  0.00    -0.241 OA
ATOM     24  O   LIG d   1       5.295  89.711 113.095  0.00  0.00    -0.241 OA
ENDBRANCH   3  22
TORSDOF 7
ENDMDL
MODEL 3
REMARK VINA RESULT:      -5.7      3.918      6.595
REMARK  7 active torsions:
REMARK  status: ('A' for Active; 'I' for Inactive)
REMARK    1  A    between atoms: C_2  and  C_3 
REMARK    2  A    between atoms: C_3  and  O_6 
REMARK    3  A    between atoms: C_3  and  C_4 
REMARK    4  A    between atoms: C_7  and  O_6 
REMARK    5  A    between atoms: C_9  and  C_10 
REMARK    6  A    between atoms: N_15  and  C_14 
REMARK    7  A    between atoms: N_20  and  C_19 
REMARK       I    between atoms: C_22  and  N_20 
ROOT
ATOM      1  C   LIG d   1       2.512  86.922 112.941  0.00  0.00     0.161 C 
ATOM      2  C   LIG d   1       2.463  88.321 112.824  0.00  0.00     0.016 C 
ATOM      3  C   LIG d   1       2.819  89.203 113.870  0.00  0.00     0.038 C 
ATOM      4  C   LIG d   1       3.396  88.743 115.063  0.00  0.00     0.028 C 
ATOM      5  C   LIG d   1       2.995  87.316 115.419  0.00  0.00    -0.047 C 
ATOM      6  C   LIG d   1       3.245  86.404 114.196  0.00  0.00     0.091 C 
ENDROOT
BRANCH   1   7
ATOM      7  O   LIG d   1       3.092  86.352 111.751  0.00  0.00    -0.368 OA
BRANCH   7   8
ATOM      8  C   LIG d   1       2.286  85.369 111.057  0.00  0.00     0.119 C 
BRANCH   8   9
ATOM      9  C   LIG d   1       3.239  84.501 110.212  0.00  0.00     0.028 C 
ATOM     10  C   LIG d   1       2.491  83.440 109.388  0.00  0.00     0.006 C 
ENDBRANCH   8   9
BRANCH   8  11
ATOM     11  C   LIG d   1       1.343  86.034 110.049  0.00  0.00     0.028 C 
ATOM     12  C   LIG d   1      -0.135  85.932 110.459  0.00  0.00     0.006 C 
ENDBRANCH   8  11
ENDBRANCH   7   8
ENDBRANCH   1   7
BRANCH   6  13
ATOM     13  N   LIG d   1       2.800  85.006 114.432  0.00  0.00    -0.311 N 
ATOM     14  C   LIG d   1       3.592  83.947 114.266  0.00  0.00     0.210 C 
ATOM     15  C   LIG d   1       2.928  82.594 114.543  0.00  0.00     0.109 C 
ATOM     16  O   LIG d   1       4.789  84.002 113.947  0.00  0.00    -0.276 OA
ATOM     17  H   LIG d   1       1.852  84.871 114.723  0.00  0.00     0.149 HD
ENDBRANCH   6  13
BRANCH   5  18
ATOM     18  N   LIG d   1       3.774  86.917 116.607  0.00  0.00     0.381 N 
ATOM     19  H   LIG d   1       4.609  86.447 116.321  0.00  0.00    -0.090 HD
ATOM     20  H   LIG d   1       3.225  86.280 117.157  0.00  0.00    -0.090 HD
ATOM     21  H   LIG d   1       4.005  87.721 117.148  0.00  0.00    -0.090 HD
ENDBRANCH   5  18
BRANCH   3  22
ATOM     22  C   LIG d   1       2.560  90.559 113.743  0.00  0.00     0.382 C 
ATOM     23  O   LIG d   1       2.357  91.257 114.766  0.00  0.00    -0.241 OA
ATOM     24  O   LIG d   1       2.483  91.085 112.617  0.00  0.00    -0.241 OA
ENDBRANCH   3  22
TORSDOF 7
ENDMDL
MODEL 4
REMARK VINA RESULT:      -5.6      4.307      7.107
REMARK  7 active torsions:
REMARK  status: ('A' for Active; 'I' for Inactive)
REMARK    1  A    between atoms: C_2  and  C_3 
REMARK    2  A    between atoms: C_3  and  O_6 
REMARK    3  A    between atoms: C_3  and  C_4 
REMARK    4  A    between atoms: C_7  and  O_6 
REMARK    5  A    between atoms: C_9  and  C_10 
REMARK    6  A    between atoms: N_15  and  C_14 
REMARK    7  A    between atoms: N_20  and  C_19 
REMARK       I    between atoms: C_22  and  N_20 
ROOT
ATOM      1  C   LIG d   1       3.102  86.895 114.614  0.00  0.00     0.161 C 
ATOM      2  C   LIG d   1       2.611  88.138 114.180  0.00  0.00     0.016 C 
ATOM      3  C   LIG d   1       3.354  89.338 114.256  0.00  0.00     0.038 C 
ATOM      4  C   LIG d   1       4.704  89.351 114.635  0.00  0.00     0.028 C 
ATOM      5  C   LIG d   1       5.085  88.200 115.560  0.00  0.00    -0.047 C 
ATOM      6  C   LIG d   1       4.613  86.871 114.928  0.00  0.00     0.091 C 
ENDROOT
BRANCH   1   7
ATOM      7  O   LIG d   1       2.774  85.876 113.650  0.00  0.00    -0.368 OA
BRANCH   7   8
ATOM      8  C   LIG d   1       2.609  86.322 112.281  0.00  0.00     0.119 C 
BRANCH   8   9
ATOM      9  C   LIG d   1       1.635  85.349 111.591  0.00  0.00     0.028 C 
ATOM     10  C   LIG d   1       0.670  86.066 110.631  0.00  0.00     0.006 C 
ENDBRANCH   8   9
BRANCH   8  11
ATOM     11  C   LIG d   1       3.920  86.208 111.497  0.00  0.00     0.028 C 
ATOM     12  C   LIG d   1       4.150  84.801 110.923  0.00  0.00     0.006 C 
ENDBRANCH   8  11
ENDBRANCH   7   8
ENDBRANCH   1   7
BRANCH   6  13
ATOM     13  N   LIG d   1       4.871  85.702 115.807  0.00  0.00    -0.311 N 
ATOM     14  C   LIG d   1       5.216  84.500 115.347  0.00  0.00     0.210 C 
ATOM     15  C   LIG d   1       5.415  83.429 116.424  0.00  0.00     0.109 C 
ATOM     16  O   LIG d   1       5.406  84.228 114.152  0.00  0.00    -0.276 OA
ATOM     17  H   LIG d   1       4.770  85.841 116.794  0.00  0.00     0.149 HD
ENDBRANCH   6  13
BRANCH   5  18
ATOM     18  N   LIG d   1       6.545  88.257 115.764  0.00  0.00     0.381 N 
ATOM     19  H   LIG d   1       6.751  88.232 116.743  0.00  0.00    -0.090 HD
ATOM     20  H   LIG d   1       6.892  89.123 115.391  0.00  0.00    -0.090 HD
ATOM     21  H   LIG d   1       6.983  87.489 115.305  0.00  0.00    -0.090 HD
ENDBRANCH   5  18
BRANCH   3  22
ATOM     22  C   LIG d   1       2.733  90.549 113.988  0.00  0.00     0.382 C 
ATOM     23  O   LIG d   1       2.359  91.284 114.934  0.00  0.00    -0.241 OA
ATOM     24  O   LIG d   1       2.501  90.894 112.814  0.00  0.00    -0.241 OA
ENDBRANCH   3  22
TORSDOF 7
ENDMDL
MODEL 5
REMARK VINA RESULT:      -5.6      2.611      3.350
REMARK  7 active torsions:
REMARK  status: ('A' for Active; 'I' for Inactive)
REMARK    1  A    between atoms: C_2  and  C_3 
REMARK    2  A    between atoms: C_3  and  O_6 
REMARK    3  A    between atoms: C_3  and  C_4 
REMARK    4  A    between atoms: C_7  and  O_6 
REMARK    5  A    between atoms: C_9  and  C_10 
REMARK    6  A    between atoms: N_15  and  C_14 
REMARK    7  A    between atoms: N_20  and  C_19 
REMARK       I    between atoms: C_22  and  N_20 
ROOT
ATOM      1  C   LIG d   1       3.037  82.930 110.954  0.00  0.00     0.161 C 
ATOM      2  C   LIG d   1       2.352  82.042 110.107  0.00  0.00     0.016 C 
ATOM      3  C   LIG d   1       1.471  81.042 110.577  0.00  0.00     0.038 C 
ATOM      4  C   LIG d   1       1.096  80.959 111.927  0.00  0.00     0.028 C 
ATOM      5  C   LIG d   1       2.148  81.509 112.883  0.00  0.00    -0.047 C 
ATOM      6  C   LIG d   1       2.555  82.927 112.419  0.00  0.00     0.091 C 
ENDROOT
BRANCH   1   7
ATOM      7  O   LIG d   1       2.982  84.264 110.411  0.00  0.00    -0.368 OA
BRANCH   7   8
ATOM      8  C   LIG d   1       1.827  85.056 110.782  0.00  0.00     0.119 C 
BRANCH   8   9
ATOM      9  C   LIG d   1       0.956  85.222 109.522  0.00  0.00     0.028 C 
ATOM     10  C   LIG d   1      -0.461  85.724 109.850  0.00  0.00     0.006 C 
ENDBRANCH   8   9
BRANCH   8  11
ATOM     11  C   LIG d   1       2.232  86.476 111.186  0.00  0.00     0.028 C 
ATOM     12  C   LIG d   1       3.723  86.593 111.542  0.00  0.00     0.006 C 
ENDBRANCH   8  11
ENDBRANCH   7   8
ENDBRANCH   1   7
BRANCH   6  13
ATOM     13  N   LIG d   1       3.643  83.505 113.252  0.00  0.00    -0.311 N 
ATOM     14  C   LIG d   1       3.421  84.284 114.309  0.00  0.00     0.210 C 
ATOM     15  C   LIG d   1       4.683  84.790 115.015  0.00  0.00     0.109 C 
ATOM     16  O   LIG d   1       2.300  84.577 114.749  0.00  0.00    -0.276 OA
ATOM     17  H   LIG d   1       4.584  83.292 112.984  0.00  0.00     0.149 HD
ENDBRANCH   6  13
BRANCH   5  18
ATOM     18  N   LIG d   1       1.572  81.488 114.240  0.00  0.00     0.381 N 
ATOM     19  H   LIG d   1       2.265  81.763 114.907  0.00  0.00    -0.090 HD
ATOM     20  H   LIG d   1       1.282  80.550 114.456  0.00  0.00    -0.090 HD
ATOM     21  H   LIG d   1       0.791  82.104 114.289  0.00  0.00    -0.090 HD
ENDBRANCH   5  18
BRANCH   3  22
ATOM     22  C   LIG d   1       0.986  80.085 109.699  0.00  0.00     0.382 C 
ATOM     23  O   LIG d   1      -0.213  80.123 109.330  0.00  0.00    -0.241 OA
ATOM     24  O   LIG d   1       1.719  79.158 109.306  0.00  0.00    -0.241 OA
ENDBRANCH   3  22
TORSDOF 7
ENDMDL
MODEL 6
REMARK VINA RESULT:      -5.5     23.975     26.764
REMARK  7 active torsions:
REMARK  status: ('A' for Active; 'I' for Inactive)
REMARK    1  A    between atoms: C_2  and  C_3 
REMARK    2  A    between atoms: C_3  and  O_6 
REMARK    3  A    between atoms: C_3  and  C_4 
REMARK    4  A    between atoms: C_7  and  O_6 
REMARK    5  A    between atoms: C_9  and  C_10 
REMARK    6  A    between atoms: N_15  and  C_14 
REMARK    7  A    between atoms: N_20  and  C_19 
REMARK       I    between atoms: C_22  and  N_20 
ROOT
ATOM      1  C   LIG d   1     -25.599  85.787 113.675  0.00  0.00     0.161 C 
ATOM      2  C   LIG d   1     -24.459  86.608 113.657  0.00  0.00     0.016 C 
ATOM      3  C   LIG d   1     -23.152  86.121 113.421  0.00  0.00     0.038 C 
ATOM      4  C   LIG d   1     -22.915  84.793 113.036  0.00  0.00     0.028 C 
ATOM      5  C   LIG d   1     -23.976  83.818 113.535  0.00  0.00    -0.047 C 
ATOM      6  C   LIG d   1     -25.373  84.355 113.148  0.00  0.00     0.091 C 
ENDROOT
BRANCH   1   7
ATOM      7  O   LIG d   1     -26.671  86.424 112.953  0.00  0.00    -0.368 OA
BRANCH   7   8
ATOM      8  C   LIG d   1     -26.279  87.261 111.837  0.00  0.00     0.119 C 
BRANCH   8   9
ATOM      9  C   LIG d   1     -27.124  88.548 111.905  0.00  0.00     0.028 C 
ATOM     10  C   LIG d   1     -26.656  89.610 110.896  0.00  0.00     0.006 C 
ENDBRANCH   8   9
BRANCH   8  11
ATOM     11  C   LIG d   1     -26.640  86.609 110.499  0.00  0.00     0.028 C 
ATOM     12  C   LIG d   1     -28.100  86.135 110.441  0.00  0.00     0.006 C 
ENDBRANCH   8  11
ENDBRANCH   7   8
ENDBRANCH   1   7
BRANCH   6  13
ATOM     13  N   LIG d   1     -26.473  83.504 113.672  0.00  0.00    -0.311 N 
ATOM     14  C   LIG d   1     -27.038  82.522 112.971  0.00  0.00     0.210 C 
ATOM     15  C   LIG d   1     -28.168  81.781 113.691  0.00  0.00     0.109 C 
ATOM     16  O   LIG d   1     -26.688  82.174 111.833  0.00  0.00    -0.276 OA
ATOM     17  H   LIG d   1     -26.797  83.697 114.599  0.00  0.00     0.149 HD
ENDBRANCH   6  13
BRANCH   5  18
ATOM     18  N   LIG d   1     -23.680  82.498 112.948  0.00  0.00     0.381 N 
ATOM     19  H   LIG d   1     -22.962  82.588 112.257  0.00  0.00    -0.090 HD
ATOM     20  H   LIG d   1     -24.508  82.149 112.498  0.00  0.00    -0.090 HD
ATOM     21  H   LIG d   1     -23.389  81.865 113.660  0.00  0.00    -0.090 HD
ENDBRANCH   5  18
BRANCH   3  22
ATOM     22  C   LIG d   1     -22.063  86.957 113.610  0.00  0.00     0.382 C 
ATOM     23  O   LIG d   1     -22.132  87.901 114.433  0.00  0.00    -0.241 OA
ATOM     24  O   LIG d   1     -21.027  86.806 112.935  0.00  0.00    -0.241 OA
ENDBRANCH   3  22
TORSDOF 7
ENDMDL
MODEL 7
REMARK VINA RESULT:      -5.3     22.201     26.126
REMARK  7 active torsions:
REMARK  status: ('A' for Active; 'I' for Inactive)
REMARK    1  A    between atoms: C_2  and  C_3 
REMARK    2  A    between atoms: C_3  and  O_6 
REMARK    3  A    between atoms: C_3  and  C_4 
REMARK    4  A    between atoms: C_7  and  O_6 
REMARK    5  A    between atoms: C_9  and  C_10 
REMARK    6  A    between atoms: N_15  and  C_14 
REMARK    7  A    between atoms: N_20  and  C_19 
REMARK       I    between atoms: C_22  and  N_20 
ROOT
ATOM      1  C   LIG d   1     -16.722  65.708 115.194  0.00  0.00     0.161 C 
ATOM      2  C   LIG d   1     -15.460  66.324 115.210  0.00  0.00     0.016 C 
ATOM      3  C   LIG d   1     -15.138  67.419 116.046  0.00  0.00     0.038 C 
ATOM      4  C   LIG d   1     -16.018  67.878 117.037  0.00  0.00     0.028 C 
ATOM      5  C   LIG d   1     -17.485  67.616 116.714  0.00  0.00    -0.047 C 
ATOM      6  C   LIG d   1     -17.659  66.124 116.348  0.00  0.00     0.091 C 
ENDROOT
BRANCH   1   7
ATOM      7  O   LIG d   1     -16.566  64.276 115.167  0.00  0.00    -0.368 OA
BRANCH   7   8
ATOM      8  C   LIG d   1     -16.914  63.621 113.922  0.00  0.00     0.119 C 
BRANCH   8   9
ATOM      9  C   LIG d   1     -17.489  64.695 112.979  0.00  0.00     0.028 C 
ATOM     10  C   LIG d   1     -18.932  64.383 112.546  0.00  0.00     0.006 C 
ENDBRANCH   8   9
BRANCH   8  11
ATOM     11  C   LIG d   1     -18.045  62.608 114.122  0.00  0.00     0.028 C 
ATOM     12  C   LIG d   1     -17.544  61.156 114.168  0.00  0.00     0.006 C 
ENDBRANCH   8  11
ENDBRANCH   7   8
ENDBRANCH   1   7
BRANCH   6  13
ATOM     13  N   LIG d   1     -19.050  65.800 115.936  0.00  0.00    -0.311 N 
ATOM     14  C   LIG d   1     -19.764  64.815 116.479  0.00  0.00     0.210 C 
ATOM     15  C   LIG d   1     -21.169  64.638 115.895  0.00  0.00     0.109 C 
ATOM     16  O   LIG d   1     -19.380  64.093 117.411  0.00  0.00    -0.276 OA
ATOM     17  H   LIG d   1     -19.452  66.357 115.208  0.00  0.00     0.149 HD
ENDBRANCH   6  13
BRANCH   5  18
ATOM     18  N   LIG d   1     -18.279  68.019 117.890  0.00  0.00     0.381 N 
ATOM     19  H   LIG d   1     -17.872  68.829 118.312  0.00  0.00    -0.090 HD
ATOM     20  H   LIG d   1     -18.267  67.272 118.562  0.00  0.00    -0.090 HD
ATOM     21  H   LIG d   1     -19.218  68.214 117.617  0.00  0.00    -0.090 HD
ENDBRANCH   5  18
BRANCH   3  22
ATOM     22  C   LIG d   1     -13.939  68.092 115.866  0.00  0.00     0.382 C 
ATOM     23  O   LIG d   1     -13.840  68.969 114.975  0.00  0.00    -0.241 OA
ATOM     24  O   LIG d   1     -12.943  67.802 116.554  0.00  0.00    -0.241 OA
ENDBRANCH   3  22
TORSDOF 7
ENDMDL
MODEL 8
REMARK VINA RESULT:      -5.1      4.010      6.608
REMARK  7 active torsions:
REMARK  status: ('A' for Active; 'I' for Inactive)
REMARK    1  A    between atoms: C_2  and  C_3 
REMARK    2  A    between atoms: C_3  and  O_6 
REMARK    3  A    between atoms: C_3  and  C_4 
REMARK    4  A    between atoms: C_7  and  O_6 
REMARK    5  A    between atoms: C_9  and  C_10 
REMARK    6  A    between atoms: N_15  and  C_14 
REMARK    7  A    between atoms: N_20  and  C_19 
REMARK       I    between atoms: C_22  and  N_20 
ROOT
ATOM      1  C   LIG d   1       3.704  84.634 113.688  0.00  0.00     0.161 C 
ATOM      2  C   LIG d   1       3.493  85.819 112.963  0.00  0.00     0.016 C 
ATOM      3  C   LIG d   1       3.926  87.090 113.405  0.00  0.00     0.038 C 
ATOM      4  C   LIG d   1       4.738  87.243 114.540  0.00  0.00     0.028 C 
ATOM      5  C   LIG d   1       4.549  86.138 115.573  0.00  0.00    -0.047 C 
ATOM      6  C   LIG d   1       4.684  84.767 114.872  0.00  0.00     0.091 C 
ENDROOT
BRANCH   1   7
ATOM      7  O   LIG d   1       4.133  83.586 112.797  0.00  0.00    -0.368 OA
BRANCH   7   8
ATOM      8  C   LIG d   1       3.515  83.569 111.487  0.00  0.00     0.119 C 
BRANCH   8   9
ATOM      9  C   LIG d   1       2.607  82.326 111.420  0.00  0.00     0.028 C 
ATOM     10  C   LIG d   1       1.117  82.678 111.573  0.00  0.00     0.006 C 
ENDBRANCH   8   9
BRANCH   8  11
ATOM     11  C   LIG d   1       4.556  83.371 110.382  0.00  0.00     0.028 C 
ATOM     12  C   LIG d   1       4.163  82.271 109.383  0.00  0.00     0.006 C 
ENDBRANCH   8  11
ENDBRANCH   7   8
ENDBRANCH   1   7
BRANCH   6  13
ATOM     13  N   LIG d   1       4.429  83.631 115.796  0.00  0.00    -0.311 N 
ATOM     14  C   LIG d   1       5.382  83.048 116.522  0.00  0.00     0.210 C 
ATOM     15  C   LIG d   1       4.908  81.881 117.394  0.00  0.00     0.109 C 
ATOM     16  O   LIG d   1       6.568  83.407 116.550  0.00  0.00    -0.276 OA
ATOM     17  H   LIG d   1       3.488  83.295 115.858  0.00  0.00     0.149 HD
ENDBRANCH   6  13
BRANCH   5  18
ATOM     18  N   LIG d   1       5.551  86.345 116.636  0.00  0.00     0.381 N 
ATOM     19  H   LIG d   1       6.427  86.604 116.229  0.00  0.00    -0.090 HD
ATOM     20  H   LIG d   1       5.677  85.483 117.136  0.00  0.00    -0.090 HD
ATOM     21  H   LIG d   1       5.243  87.058 117.260  0.00  0.00    -0.090 HD
ENDBRANCH   5  18
BRANCH   3  22
ATOM     22  C   LIG d   1       3.514  88.229 112.732  0.00  0.00     0.382 C 
ATOM     23  O   LIG d   1       4.251  89.245 112.708  0.00  0.00    -0.241 OA
ATOM     24  O   LIG d   1       2.395  88.270 112.186  0.00  0.00    -0.241 OA
ENDBRANCH   3  22
TORSDOF 7
ENDMDL
MODEL 9
REMARK VINA RESULT:      -5.0      2.531      3.603
REMARK  7 active torsions:
REMARK  status: ('A' for Active; 'I' for Inactive)
REMARK    1  A    between atoms: C_2  and  C_3 
REMARK    2  A    between atoms: C_3  and  O_6 
REMARK    3  A    between atoms: C_3  and  C_4 
REMARK    4  A    between atoms: C_7  and  O_6 
REMARK    5  A    between atoms: C_9  and  C_10 
REMARK    6  A    between atoms: N_15  and  C_14 
REMARK    7  A    between atoms: N_20  and  C_19 
REMARK       I    between atoms: C_22  and  N_20 
ROOT
ATOM      1  C   LIG d   1       0.693  82.882 112.982  0.00  0.00     0.161 C 
ATOM      2  C   LIG d   1      -0.606  82.483 113.338  0.00  0.00     0.016 C 
ATOM      3  C   LIG d   1      -1.190  81.267 112.915  0.00  0.00     0.038 C 
ATOM      4  C   LIG d   1      -0.454  80.290 112.227  0.00  0.00     0.028 C 
ATOM      5  C   LIG d   1       0.702  80.864 111.414  0.00  0.00    -0.047 C 
ATOM      6  C   LIG d   1       1.551  81.780 112.326  0.00  0.00     0.091 C 
ENDROOT
BRANCH   1   7
ATOM      7  O   LIG d   1       1.370  83.424 114.134  0.00  0.00    -0.368 OA
BRANCH   7   8
ATOM      8  C   LIG d   1       1.632  82.495 115.215  0.00  0.00     0.119 C 
BRANCH   8   9
ATOM      9  C   LIG d   1       1.066  83.117 116.506  0.00  0.00     0.028 C 
ATOM     10  C   LIG d   1       1.802  84.406 116.909  0.00  0.00     0.006 C 
ENDBRANCH   8   9
BRANCH   8  11
ATOM     11  C   LIG d   1       3.135  82.340 115.464  0.00  0.00     0.028 C 
ATOM     12  C   LIG d   1       3.489  81.025 116.177  0.00  0.00     0.006 C 
ENDBRANCH   8  11
ENDBRANCH   7   8
ENDBRANCH   1   7
BRANCH   6  13
ATOM     13  N   LIG d   1       2.654  82.448 111.588  0.00  0.00    -0.311 N 
ATOM     14  C   LIG d   1       2.520  82.942 110.358  0.00  0.00     0.210 C 
ATOM     15  C   LIG d   1       3.787  83.573 109.773  0.00  0.00     0.109 C 
ATOM     16  O   LIG d   1       1.463  82.947 109.709  0.00  0.00    -0.276 OA
ATOM     17  H   LIG d   1       3.538  82.516 112.053  0.00  0.00     0.149 HD
ENDBRANCH   6  13
BRANCH   5  18
ATOM     18  N   LIG d   1       1.465  79.729 110.863  0.00  0.00     0.381 N 
ATOM     19  H   LIG d   1       1.261  79.624 109.889  0.00  0.00    -0.090 HD
ATOM     20  H   LIG d   1       1.185  78.888 111.337  0.00  0.00    -0.090 HD
ATOM     21  H   LIG d   1       2.442  79.881 110.990  0.00  0.00    -0.090 HD
ENDBRANCH   5  18
BRANCH   3  22
ATOM     22  C   LIG d   1      -2.538  81.035 113.145  0.00  0.00     0.382 C 
ATOM     23  O   LIG d   1      -2.920  79.910 113.547  0.00  0.00    -0.241 OA
ATOM     24  O   LIG d   1      -3.380  81.922 112.913  0.00  0.00    -0.241 OA
ENDBRANCH   3  22
TORSDOF 7
ENDMDL
