MODEL 1
REMARK VINA RESULT:      -6.6      0.000      0.000
REMARK  7 active torsions:
REMARK  status: ('A' for Active; 'I' for Inactive)
REMARK    1  A    between atoms: C_2  and  C_3 
REMARK    2  A    between atoms: C_3  and  O_6 
REMARK    3  A    between atoms: C_3  and  C_4 
REMARK    4  A    between atoms: C_7  and  O_6 
REMARK    5  A    between atoms: C_9  and  C_10 
REMARK    6  A    between atoms: N_15  and  C_14 
REMARK    7  A    between atoms: N_20  and  C_19 
REMARK       I    between atoms: C_22  and  N_20 
ROOT
ATOM      1  C   LIG d   1       0.294  82.849 111.169  0.00  0.00     0.161 C 
ATOM      2  C   LIG d   1      -0.836  82.579 111.958  0.00  0.00     0.016 C 
ATOM      3  C   LIG d   1      -1.401  81.289 112.092  0.00  0.00     0.038 C 
ATOM      4  C   LIG d   1      -0.780  80.149 111.562  0.00  0.00     0.028 C 
ATOM      5  C   LIG d   1       0.082  80.442 110.338  0.00  0.00    -0.047 C 
ATOM      6  C   LIG d   1       1.051  81.599 110.673  0.00  0.00     0.091 C 
ENDROOT
BRANCH   1   7
ATOM      7  O   LIG d   1       1.189  83.726 111.881  0.00  0.00    -0.368 OA
BRANCH   7   8
ATOM      8  C   LIG d   1       1.325  85.067 111.349  0.00  0.00     0.119 C 
BRANCH   8   9
ATOM      9  C   LIG d   1       0.407  85.171 110.116  0.00  0.00     0.028 C 
ATOM     10  C   LIG d   1      -0.578  86.348 110.214  0.00  0.00     0.006 C 
ENDBRANCH   8   9
BRANCH   8  11
ATOM     11  C   LIG d   1       2.741  85.317 110.823  0.00  0.00     0.028 C 
ATOM     12  C   LIG d   1       3.463  86.449 111.570  0.00  0.00     0.006 C 
ENDBRANCH   8  11
ENDBRANCH   7   8
ENDBRANCH   1   7
BRANCH   6  13
ATOM     13  N   LIG d   1       1.873  82.006 109.503  0.00  0.00    -0.311 N 
ATOM     14  C   LIG d   1       3.198  81.882 109.460  0.00  0.00     0.210 C 
ATOM     15  C   LIG d   1       3.853  82.381 108.168  0.00  0.00     0.109 C 
ATOM     16  O   LIG d   1       3.891  81.376 110.356  0.00  0.00    -0.276 OA
ATOM     17  H   LIG d   1       1.389  82.398 108.719  0.00  0.00     0.149 HD
ENDBRANCH   6  13
BRANCH   5  18
ATOM     18  N   LIG d   1       0.777  79.193 109.973  0.00  0.00     0.381 N 
ATOM     19  H   LIG d   1       0.124  78.436 109.953  0.00  0.00    -0.090 HD
ATOM     20  H   LIG d   1       1.472  78.992 110.671  0.00  0.00    -0.090 HD
ATOM     21  H   LIG d   1       1.211  79.292 109.082  0.00  0.00    -0.090 HD
ENDBRANCH   5  18
BRANCH   3  22
ATOM     22  C   LIG d   1      -2.623  81.138 112.729  0.00  0.00     0.382 C 
ATOM     23  O   LIG d   1      -3.051  79.989 112.998  0.00  0.00    -0.241 OA
ATOM     24  O   LIG d   1      -3.323  82.132 112.999  0.00  0.00    -0.241 OA
ENDBRANCH   3  22
TORSDOF 7
ENDMDL
MODEL 2
REMARK VINA RESULT:      -6.6      1.488      4.939
REMARK  7 active torsions:
REMARK  status: ('A' for Active; 'I' for Inactive)
REMARK    1  A    between atoms: C_2  and  C_3 
REMARK    2  A    between atoms: C_3  and  O_6 
REMARK    3  A    between atoms: C_3  and  C_4 
REMARK    4  A    between atoms: C_7  and  O_6 
REMARK    5  A    between atoms: C_9  and  C_10 
REMARK    6  A    between atoms: N_15  and  C_14 
REMARK    7  A    between atoms: N_20  and  C_19 
REMARK       I    between atoms: C_22  and  N_20 
ROOT
ATOM      1  C   LIG d   1       1.764  82.350 111.600  0.00  0.00     0.161 C 
ATOM      2  C   LIG d   1       2.781  82.619 110.669  0.00  0.00     0.016 C 
ATOM      3  C   LIG d   1       2.805  82.076 109.364  0.00  0.00     0.038 C 
ATOM      4  C   LIG d   1       1.726  81.344 108.846  0.00  0.00     0.028 C 
ATOM      5  C   LIG d   1       0.911  80.627 109.917  0.00  0.00    -0.047 C 
ATOM      6  C   LIG d   1       0.523  81.643 111.016  0.00  0.00     0.091 C 
ENDROOT
BRANCH   1   7
ATOM      7  O   LIG d   1       1.378  83.567 112.268  0.00  0.00    -0.368 OA
BRANCH   7   8
ATOM      8  C   LIG d   1       1.475  84.782 111.484  0.00  0.00     0.119 C 
BRANCH   8   9
ATOM      9  C   LIG d   1       2.141  85.853 112.370  0.00  0.00     0.028 C 
ATOM     10  C   LIG d   1       3.358  86.502 111.691  0.00  0.00     0.006 C 
ENDBRANCH   8   9
BRANCH   8  11
ATOM     11  C   LIG d   1       0.089  85.340 111.147  0.00  0.00     0.028 C 
ATOM     12  C   LIG d   1       0.027  85.978 109.751  0.00  0.00     0.006 C 
ENDBRANCH   8  11
ENDBRANCH   7   8
ENDBRANCH   1   7
BRANCH   6  13
ATOM     13  N   LIG d   1      -0.205  81.006 112.144  0.00  0.00    -0.311 N 
ATOM     14  C   LIG d   1      -1.275  81.547 112.725  0.00  0.00     0.210 C 
ATOM     15  C   LIG d   1      -1.862  80.736 113.884  0.00  0.00     0.109 C 
ATOM     16  O   LIG d   1      -1.813  82.607 112.369  0.00  0.00    -0.276 OA
ATOM     17  H   LIG d   1       0.145  80.129 112.476  0.00  0.00     0.149 HD
ENDBRANCH   6  13
BRANCH   5  18
ATOM     18  N   LIG d   1      -0.258  80.018 109.254  0.00  0.00     0.381 N 
ATOM     19  H   LIG d   1       0.006  79.150 108.832  0.00  0.00    -0.090 HD
ATOM     20  H   LIG d   1      -0.579  80.636 108.529  0.00  0.00    -0.090 HD
ATOM     21  H   LIG d   1      -0.986  79.866 109.917  0.00  0.00    -0.090 HD
ENDBRANCH   5  18
BRANCH   3  22
ATOM     22  C   LIG d   1       3.935  82.232 108.575  0.00  0.00     0.382 C 
ATOM     23  O   LIG d   1       4.177  81.411 107.659  0.00  0.00    -0.241 OA
ATOM     24  O   LIG d   1       4.737  83.158 108.798  0.00  0.00    -0.241 OA
ENDBRANCH   3  22
TORSDOF 7
ENDMDL
MODEL 3
REMARK VINA RESULT:      -6.5      3.139      6.295
REMARK  7 active torsions:
REMARK  status: ('A' for Active; 'I' for Inactive)
REMARK    1  A    between atoms: C_2  and  C_3 
REMARK    2  A    between atoms: C_3  and  O_6 
REMARK    3  A    between atoms: C_3  and  C_4 
REMARK    4  A    between atoms: C_7  and  O_6 
REMARK    5  A    between atoms: C_9  and  C_10 
REMARK    6  A    between atoms: N_15  and  C_14 
REMARK    7  A    between atoms: N_20  and  C_19 
REMARK       I    between atoms: C_22  and  N_20 
ROOT
ATOM      1  C   LIG d   1       2.488  85.477 111.670  0.00  0.00     0.161 C 
ATOM      2  C   LIG d   1       3.163  86.709 111.671  0.00  0.00     0.016 C 
ATOM      3  C   LIG d   1       4.025  87.124 112.712  0.00  0.00     0.038 C 
ATOM      4  C   LIG d   1       4.391  86.265 113.758  0.00  0.00     0.028 C 
ATOM      5  C   LIG d   1       3.342  85.201 114.063  0.00  0.00    -0.047 C 
ATOM      6  C   LIG d   1       2.961  84.480 112.749  0.00  0.00     0.091 C 
ENDROOT
BRANCH   1   7
ATOM      7  O   LIG d   1       2.569  84.876 110.363  0.00  0.00    -0.368 OA
BRANCH   7   8
ATOM      8  C   LIG d   1       1.306  84.562 109.726  0.00  0.00     0.119 C 
BRANCH   8   9
ATOM      9  C   LIG d   1       1.613  83.697 108.489  0.00  0.00     0.028 C 
ATOM     10  C   LIG d   1       2.727  82.670 108.752  0.00  0.00     0.006 C 
ENDBRANCH   8   9
BRANCH   8  11
ATOM     11  C   LIG d   1       0.628  85.823 109.182  0.00  0.00     0.028 C 
ATOM     12  C   LIG d   1      -0.631  86.212 109.973  0.00  0.00     0.006 C 
ENDBRANCH   8  11
ENDBRANCH   7   8
ENDBRANCH   1   7
BRANCH   6  13
ATOM     13  N   LIG d   1       1.879  83.481 112.944  0.00  0.00    -0.311 N 
ATOM     14  C   LIG d   1       2.015  82.188 112.653  0.00  0.00     0.210 C 
ATOM     15  C   LIG d   1       0.769  81.333 112.911  0.00  0.00     0.109 C 
ATOM     16  O   LIG d   1       3.058  81.662 112.238  0.00  0.00    -0.276 OA
ATOM     17  H   LIG d   1       1.008  83.816 113.307  0.00  0.00     0.149 HD
ENDBRANCH   6  13
BRANCH   5  18
ATOM     18  N   LIG d   1       3.910  84.292 115.077  0.00  0.00     0.381 N 
ATOM     19  H   LIG d   1       3.416  84.397 115.941  0.00  0.00    -0.090 HD
ATOM     20  H   LIG d   1       4.872  84.538 115.231  0.00  0.00    -0.090 HD
ATOM     21  H   LIG d   1       3.847  83.349 114.763  0.00  0.00    -0.090 HD
ENDBRANCH   5  18
BRANCH   3  22
ATOM     22  C   LIG d   1       4.499  88.427 112.733  0.00  0.00     0.382 C 
ATOM     23  O   LIG d   1       5.715  88.655 112.524  0.00  0.00    -0.241 OA
ATOM     24  O   LIG d   1       3.735  89.373 113.002  0.00  0.00    -0.241 OA
ENDBRANCH   3  22
TORSDOF 7
ENDMDL
MODEL 4
REMARK VINA RESULT:      -6.3      2.817      3.976
REMARK  7 active torsions:
REMARK  status: ('A' for Active; 'I' for Inactive)
REMARK    1  A    between atoms: C_2  and  C_3 
REMARK    2  A    between atoms: C_3  and  O_6 
REMARK    3  A    between atoms: C_3  and  C_4 
REMARK    4  A    between atoms: C_7  and  O_6 
REMARK    5  A    between atoms: C_9  and  C_10 
REMARK    6  A    between atoms: N_15  and  C_14 
REMARK    7  A    between atoms: N_20  and  C_19 
REMARK       I    between atoms: C_22  and  N_20 
ROOT
ATOM      1  C   LIG d   1       2.509  84.793 110.552  0.00  0.00     0.161 C 
ATOM      2  C   LIG d   1       1.533  85.743 110.897  0.00  0.00     0.016 C 
ATOM      3  C   LIG d   1       0.169  85.423 111.084  0.00  0.00     0.038 C 
ATOM      4  C   LIG d   1      -0.289  84.097 111.087  0.00  0.00     0.028 C 
ATOM      5  C   LIG d   1       0.569  83.159 110.245  0.00  0.00    -0.047 C 
ATOM      6  C   LIG d   1       2.049  83.324 110.660  0.00  0.00     0.091 C 
ENDROOT
BRANCH   1   7
ATOM      7  O   LIG d   1       3.697  85.005 111.340  0.00  0.00    -0.368 OA
BRANCH   7   8
ATOM      8  C   LIG d   1       3.568  85.923 112.454  0.00  0.00     0.119 C 
BRANCH   8   9
ATOM      9  C   LIG d   1       4.464  87.141 112.157  0.00  0.00     0.028 C 
ATOM     10  C   LIG d   1       5.004  87.798 113.438  0.00  0.00     0.006 C 
ENDBRANCH   8   9
BRANCH   8  11
ATOM     11  C   LIG d   1       4.124  85.315 113.745  0.00  0.00     0.028 C 
ATOM     12  C   LIG d   1       3.502  83.949 114.077  0.00  0.00     0.006 C 
ENDBRANCH   8  11
ENDBRANCH   7   8
ENDBRANCH   1   7
BRANCH   6  13
ATOM     13  N   LIG d   1       2.967  82.503 109.827  0.00  0.00    -0.311 N 
ATOM     14  C   LIG d   1       3.673  81.480 110.306  0.00  0.00     0.210 C 
ATOM     15  C   LIG d   1       4.572  80.780 109.282  0.00  0.00     0.109 C 
ATOM     16  O   LIG d   1       3.615  81.065 111.473  0.00  0.00    -0.276 OA
ATOM     17  H   LIG d   1       3.050  82.751 108.861  0.00  0.00     0.149 HD
ENDBRANCH   6  13
BRANCH   5  18
ATOM     18  N   LIG d   1       0.062  81.789 110.448  0.00  0.00     0.381 N 
ATOM     19  H   LIG d   1       0.801  81.129 110.306  0.00  0.00    -0.090 HD
ATOM     20  H   LIG d   1      -0.659  81.605 109.772  0.00  0.00    -0.090 HD
ATOM     21  H   LIG d   1      -0.305  81.694 111.369  0.00  0.00    -0.090 HD
ENDBRANCH   5  18
BRANCH   3  22
ATOM     22  C   LIG d   1      -0.761  86.441 111.231  0.00  0.00     0.382 C 
ATOM     23  O   LIG d   1      -1.060  86.856 112.377  0.00  0.00    -0.241 OA
ATOM     24  O   LIG d   1      -1.338  86.919 110.236  0.00  0.00    -0.241 OA
ENDBRANCH   3  22
TORSDOF 7
ENDMDL
MODEL 5
REMARK VINA RESULT:      -5.9      2.806      4.185
REMARK  7 active torsions:
REMARK  status: ('A' for Active; 'I' for Inactive)
REMARK    1  A    between atoms: C_2  and  C_3 
REMARK    2  A    between atoms: C_3  and  O_6 
REMARK    3  A    between atoms: C_3  and  C_4 
REMARK    4  A    between atoms: C_7  and  O_6 
REMARK    5  A    between atoms: C_9  and  C_10 
REMARK    6  A    between atoms: N_15  and  C_14 
REMARK    7  A    between atoms: N_20  and  C_19 
REMARK       I    between atoms: C_22  and  N_20 
ROOT
ATOM      1  C   LIG d   1       3.088  83.591 111.133  0.00  0.00     0.161 C 
ATOM      2  C   LIG d   1       2.451  82.729 110.225  0.00  0.00     0.016 C 
ATOM      3  C   LIG d   1       1.560  81.704 110.619  0.00  0.00     0.038 C 
ATOM      4  C   LIG d   1       1.125  81.570 111.946  0.00  0.00     0.028 C 
ATOM      5  C   LIG d   1       2.128  82.095 112.968  0.00  0.00    -0.047 C 
ATOM      6  C   LIG d   1       2.540  83.532 112.575  0.00  0.00     0.091 C 
ENDROOT
BRANCH   1   7
ATOM      7  O   LIG d   1       3.043  84.943 110.636  0.00  0.00    -0.368 OA
BRANCH   7   8
ATOM      8  C   LIG d   1       1.886  85.726 111.020  0.00  0.00     0.119 C 
BRANCH   8   9
ATOM      9  C   LIG d   1       1.045  85.963 109.751  0.00  0.00     0.028 C 
ATOM     10  C   LIG d   1      -0.453  86.118 110.060  0.00  0.00     0.006 C 
ENDBRANCH   8   9
BRANCH   8  11
ATOM     11  C   LIG d   1       2.293  87.121 111.504  0.00  0.00     0.028 C 
ATOM     12  C   LIG d   1       3.768  87.198 111.929  0.00  0.00     0.006 C 
ENDBRANCH   8  11
ENDBRANCH   7   8
ENDBRANCH   1   7
BRANCH   6  13
ATOM     13  N   LIG d   1       3.582  84.089 113.475  0.00  0.00    -0.311 N 
ATOM     14  C   LIG d   1       3.311  84.894 114.501  0.00  0.00     0.210 C 
ATOM     15  C   LIG d   1       4.534  85.372 115.290  0.00  0.00     0.109 C 
ATOM     16  O   LIG d   1       2.170  85.232 114.852  0.00  0.00    -0.276 OA
ATOM     17  H   LIG d   1       4.533  83.841 113.282  0.00  0.00     0.149 HD
ENDBRANCH   6  13
BRANCH   5  18
ATOM     18  N   LIG d   1       1.490  82.020 114.297  0.00  0.00     0.381 N 
ATOM     19  H   LIG d   1       1.815  82.772 114.871  0.00  0.00    -0.090 HD
ATOM     20  H   LIG d   1       1.752  81.154 114.734  0.00  0.00    -0.090 HD
ATOM     21  H   LIG d   1       0.500  82.068 114.203  0.00  0.00    -0.090 HD
ENDBRANCH   5  18
BRANCH   3  22
ATOM     22  C   LIG d   1       1.125  80.775 109.686  0.00  0.00     0.382 C 
ATOM     23  O   LIG d   1      -0.080  80.426 109.664  0.00  0.00    -0.241 OA
ATOM     24  O   LIG d   1       1.931  80.249 108.896  0.00  0.00    -0.241 OA
ENDBRANCH   3  22
TORSDOF 7
ENDMDL
MODEL 6
REMARK VINA RESULT:      -5.7      3.684      6.172
REMARK  7 active torsions:
REMARK  status: ('A' for Active; 'I' for Inactive)
REMARK    1  A    between atoms: C_2  and  C_3 
REMARK    2  A    between atoms: C_3  and  O_6 
REMARK    3  A    between atoms: C_3  and  C_4 
REMARK    4  A    between atoms: C_7  and  O_6 
REMARK    5  A    between atoms: C_9  and  C_10 
REMARK    6  A    between atoms: N_15  and  C_14 
REMARK    7  A    between atoms: N_20  and  C_19 
REMARK       I    between atoms: C_22  and  N_20 
ROOT
ATOM      1  C   LIG d   1       2.788  84.872 112.121  0.00  0.00     0.161 C 
ATOM      2  C   LIG d   1       1.757  85.043 111.183  0.00  0.00     0.016 C 
ATOM      3  C   LIG d   1       1.246  86.308 110.810  0.00  0.00     0.038 C 
ATOM      4  C   LIG d   1       1.840  87.503 111.241  0.00  0.00     0.028 C 
ATOM      5  C   LIG d   1       2.558  87.375 112.580  0.00  0.00    -0.047 C 
ATOM      6  C   LIG d   1       3.523  86.169 112.519  0.00  0.00     0.091 C 
ENDROOT
BRANCH   1   7
ATOM      7  O   LIG d   1       3.728  83.891 111.641  0.00  0.00    -0.368 OA
BRANCH   7   8
ATOM      8  C   LIG d   1       3.265  83.037 110.565  0.00  0.00     0.119 C 
BRANCH   8   9
ATOM      9  C   LIG d   1       2.983  81.647 111.167  0.00  0.00     0.028 C 
ATOM     10  C   LIG d   1       1.488  81.286 111.136  0.00  0.00     0.006 C 
ENDBRANCH   8   9
BRANCH   8  11
ATOM     11  C   LIG d   1       4.361  82.812 109.520  0.00  0.00     0.028 C 
ATOM     12  C   LIG d   1       3.872  82.004 108.308  0.00  0.00     0.006 C 
ENDBRANCH   8  11
ENDBRANCH   7   8
ENDBRANCH   1   7
BRANCH   6  13
ATOM     13  N   LIG d   1       4.204  85.921 113.816  0.00  0.00    -0.311 N 
ATOM     14  C   LIG d   1       3.551  85.695 114.955  0.00  0.00     0.210 C 
ATOM     15  C   LIG d   1       4.445  85.483 116.181  0.00  0.00     0.109 C 
ATOM     16  O   LIG d   1       2.318  85.617 115.060  0.00  0.00    -0.276 OA
ATOM     17  H   LIG d   1       5.205  85.935 113.816  0.00  0.00     0.149 HD
ENDBRANCH   6  13
BRANCH   5  18
ATOM     18  N   LIG d   1       3.246  88.654 112.842  0.00  0.00     0.381 N 
ATOM     19  H   LIG d   1       3.248  89.213 112.012  0.00  0.00    -0.090 HD
ATOM     20  H   LIG d   1       4.199  88.464 113.097  0.00  0.00    -0.090 HD
ATOM     21  H   LIG d   1       2.788  89.142 113.579  0.00  0.00    -0.090 HD
ENDBRANCH   5  18
BRANCH   3  22
ATOM     22  C   LIG d   1       0.104  86.384 110.028  0.00  0.00     0.382 C 
ATOM     23  O   LIG d   1       0.169  86.144 108.798  0.00  0.00    -0.241 OA
ATOM     24  O   LIG d   1      -0.982  86.733 110.528  0.00  0.00    -0.241 OA
ENDBRANCH   3  22
TORSDOF 7
ENDMDL
MODEL 7
REMARK VINA RESULT:      -5.6      3.189      4.863
REMARK  7 active torsions:
REMARK  status: ('A' for Active; 'I' for Inactive)
REMARK    1  A    between atoms: C_2  and  C_3 
REMARK    2  A    between atoms: C_3  and  O_6 
REMARK    3  A    between atoms: C_3  and  C_4 
REMARK    4  A    between atoms: C_7  and  O_6 
REMARK    5  A    between atoms: C_9  and  C_10 
REMARK    6  A    between atoms: N_15  and  C_14 
REMARK    7  A    between atoms: N_20  and  C_19 
REMARK       I    between atoms: C_22  and  N_20 
ROOT
ATOM      1  C   LIG d   1       2.749  83.378 110.678  0.00  0.00     0.161 C 
ATOM      2  C   LIG d   1       3.258  82.073 110.572  0.00  0.00     0.016 C 
ATOM      3  C   LIG d   1       3.192  81.306 109.386  0.00  0.00     0.038 C 
ATOM      4  C   LIG d   1       2.744  81.852 108.174  0.00  0.00     0.028 C 
ATOM      5  C   LIG d   1       1.755  82.998 108.355  0.00  0.00    -0.047 C 
ATOM      6  C   LIG d   1       2.357  84.030 109.335  0.00  0.00     0.091 C 
ENDROOT
BRANCH   1   7
ATOM      7  O   LIG d   1       3.687  84.213 111.385  0.00  0.00    -0.368 OA
BRANCH   7   8
ATOM      8  C   LIG d   1       3.180  84.883 112.566  0.00  0.00     0.119 C 
BRANCH   8   9
ATOM      9  C   LIG d   1       3.734  86.321 112.556  0.00  0.00     0.028 C 
ATOM     10  C   LIG d   1       2.667  87.358 112.168  0.00  0.00     0.006 C 
ENDBRANCH   8   9
BRANCH   8  11
ATOM     11  C   LIG d   1       3.728  84.246 113.846  0.00  0.00     0.028 C 
ATOM     12  C   LIG d   1       4.273  85.282 114.842  0.00  0.00     0.006 C 
ENDBRANCH   8  11
ENDBRANCH   7   8
ENDBRANCH   1   7
BRANCH   6  13
ATOM     13  N   LIG d   1       1.418  85.143 109.633  0.00  0.00    -0.311 N 
ATOM     14  C   LIG d   1       0.223  84.964 110.193  0.00  0.00     0.210 C 
ATOM     15  C   LIG d   1      -0.595  86.244 110.395  0.00  0.00     0.109 C 
ATOM     16  O   LIG d   1      -0.224  83.871 110.572  0.00  0.00    -0.276 OA
ATOM     17  H   LIG d   1       1.714  86.068 109.387  0.00  0.00     0.149 HD
ENDBRANCH   6  13
BRANCH   5  18
ATOM     18  N   LIG d   1       1.478  83.562 107.020  0.00  0.00     0.381 N 
ATOM     19  H   LIG d   1       1.075  82.859 106.432  0.00  0.00    -0.090 HD
ATOM     20  H   LIG d   1       2.344  83.861 106.607  0.00  0.00    -0.090 HD
ATOM     21  H   LIG d   1       0.855  84.336 107.099  0.00  0.00    -0.090 HD
ENDBRANCH   5  18
BRANCH   3  22
ATOM     22  C   LIG d   1       3.541  79.964 109.415  0.00  0.00     0.382 C 
ATOM     23  O   LIG d   1       2.650  79.084 109.343  0.00  0.00    -0.241 OA
ATOM     24  O   LIG d   1       4.730  79.624 109.558  0.00  0.00    -0.241 OA
ENDBRANCH   3  22
TORSDOF 7
ENDMDL
MODEL 8
REMARK VINA RESULT:      -5.5      3.435      5.539
REMARK  7 active torsions:
REMARK  status: ('A' for Active; 'I' for Inactive)
REMARK    1  A    between atoms: C_2  and  C_3 
REMARK    2  A    between atoms: C_3  and  O_6 
REMARK    3  A    between atoms: C_3  and  C_4 
REMARK    4  A    between atoms: C_7  and  O_6 
REMARK    5  A    between atoms: C_9  and  C_10 
REMARK    6  A    between atoms: N_15  and  C_14 
REMARK    7  A    between atoms: N_20  and  C_19 
REMARK       I    between atoms: C_22  and  N_20 
ROOT
ATOM      1  C   LIG d   1       3.701  83.859 111.927  0.00  0.00     0.161 C 
ATOM      2  C   LIG d   1       3.664  85.221 112.269  0.00  0.00     0.016 C 
ATOM      3  C   LIG d   1       2.826  86.162 111.628  0.00  0.00     0.038 C 
ATOM      4  C   LIG d   1       1.851  85.774 110.697  0.00  0.00     0.028 C 
ATOM      5  C   LIG d   1       2.199  84.487 109.957  0.00  0.00    -0.047 C 
ATOM      6  C   LIG d   1       2.565  83.397 110.990  0.00  0.00     0.091 C 
ENDROOT
BRANCH   1   7
ATOM      7  O   LIG d   1       3.723  83.056 113.123  0.00  0.00    -0.368 OA
BRANCH   7   8
ATOM      8  C   LIG d   1       2.500  83.037 113.901  0.00  0.00     0.119 C 
BRANCH   8   9
ATOM      9  C   LIG d   1       2.890  83.224 115.380  0.00  0.00     0.028 C 
ATOM     10  C   LIG d   1       2.847  84.699 115.816  0.00  0.00     0.006 C 
ENDBRANCH   8   9
BRANCH   8  11
ATOM     11  C   LIG d   1       1.817  81.668 113.832  0.00  0.00     0.028 C 
ATOM     12  C   LIG d   1       1.655  81.013 115.213  0.00  0.00     0.006 C 
ENDBRANCH   8  11
ENDBRANCH   7   8
ENDBRANCH   1   7
BRANCH   6  13
ATOM     13  N   LIG d   1       2.999  82.129 110.348  0.00  0.00    -0.311 N 
ATOM     14  C   LIG d   1       3.967  82.065 109.435  0.00  0.00     0.210 C 
ATOM     15  C   LIG d   1       4.245  80.662 108.885  0.00  0.00     0.109 C 
ATOM     16  O   LIG d   1       4.645  83.031 109.053  0.00  0.00    -0.276 OA
ATOM     17  H   LIG d   1       2.524  81.292 110.623  0.00  0.00     0.149 HD
ENDBRANCH   6  13
BRANCH   5  18
ATOM     18  N   LIG d   1       1.038  84.125 109.122  0.00  0.00     0.381 N 
ATOM     19  H   LIG d   1       0.693  84.938 108.651  0.00  0.00    -0.090 HD
ATOM     20  H   LIG d   1       0.308  83.771 109.716  0.00  0.00    -0.090 HD
ATOM     21  H   LIG d   1       1.299  83.432 108.456  0.00  0.00    -0.090 HD
ENDBRANCH   5  18
BRANCH   3  22
ATOM     22  C   LIG d   1       2.986  87.515 111.888  0.00  0.00     0.382 C 
ATOM     23  O   LIG d   1       3.983  87.915 112.536  0.00  0.00    -0.241 OA
ATOM     24  O   LIG d   1       2.124  88.336 111.521  0.00  0.00    -0.241 OA
ENDBRANCH   3  22
TORSDOF 7
ENDMDL
MODEL 9
REMARK VINA RESULT:      -5.4      1.694      2.301
REMARK  7 active torsions:
REMARK  status: ('A' for Active; 'I' for Inactive)
REMARK    1  A    between atoms: C_2  and  C_3 
REMARK    2  A    between atoms: C_3  and  O_6 
REMARK    3  A    between atoms: C_3  and  C_4 
REMARK    4  A    between atoms: C_7  and  O_6 
REMARK    5  A    between atoms: C_9  and  C_10 
REMARK    6  A    between atoms: N_15  and  C_14 
REMARK    7  A    between atoms: N_20  and  C_19 
REMARK       I    between atoms: C_22  and  N_20 
ROOT
ATOM      1  C   LIG d   1       0.408  83.022 111.593  0.00  0.00     0.161 C 
ATOM      2  C   LIG d   1      -0.909  82.626 111.879  0.00  0.00     0.016 C 
ATOM      3  C   LIG d   1      -1.234  81.630 112.828  0.00  0.00     0.038 C 
ATOM      4  C   LIG d   1      -0.264  81.064 113.670  0.00  0.00     0.028 C 
ATOM      5  C   LIG d   1       1.137  81.067 113.068  0.00  0.00    -0.047 C 
ATOM      6  C   LIG d   1       1.471  82.495 112.580  0.00  0.00     0.091 C 
ENDROOT
BRANCH   1   7
ATOM      7  O   LIG d   1       0.478  84.458 111.501  0.00  0.00    -0.368 OA
BRANCH   7   8
ATOM      8  C   LIG d   1       0.504  85.011 110.163  0.00  0.00     0.119 C 
BRANCH   8   9
ATOM      9  C   LIG d   1       1.786  85.857 110.035  0.00  0.00     0.028 C 
ATOM     10  C   LIG d   1       2.596  85.895 111.342  0.00  0.00     0.006 C 
ENDBRANCH   8   9
BRANCH   8  11
ATOM     11  C   LIG d   1      -0.652  85.991 109.942  0.00  0.00     0.028 C 
ATOM     12  C   LIG d   1      -0.794  87.011 111.083  0.00  0.00     0.006 C 
ENDBRANCH   8  11
ENDBRANCH   7   8
ENDBRANCH   1   7
BRANCH   6  13
ATOM     13  N   LIG d   1       2.791  82.568 111.902  0.00  0.00    -0.311 N 
ATOM     14  C   LIG d   1       3.047  81.984 110.732  0.00  0.00     0.210 C 
ATOM     15  C   LIG d   1       4.479  82.166 110.219  0.00  0.00     0.109 C 
ATOM     16  O   LIG d   1       2.216  81.359 110.056  0.00  0.00    -0.276 OA
ATOM     17  H   LIG d   1       3.515  83.081 112.366  0.00  0.00     0.149 HD
ENDBRANCH   6  13
BRANCH   5  18
ATOM     18  N   LIG d   1       2.067  80.577 114.103  0.00  0.00     0.381 N 
ATOM     19  H   LIG d   1       1.814  80.956 114.993  0.00  0.00    -0.090 HD
ATOM     20  H   LIG d   1       2.996  80.889 113.879  0.00  0.00    -0.090 HD
ATOM     21  H   LIG d   1       2.043  79.581 114.139  0.00  0.00    -0.090 HD
ENDBRANCH   5  18
BRANCH   3  22
ATOM     22  C   LIG d   1      -2.536  81.161 112.915  0.00  0.00     0.382 C 
ATOM     23  O   LIG d   1      -2.757  79.995 113.322  0.00  0.00    -0.241 OA
ATOM     24  O   LIG d   1      -3.489  81.874 112.548  0.00  0.00    -0.241 OA
ENDBRANCH   3  22
TORSDOF 7
ENDMDL
