MODEL 1
REMARK VINA RESULT:      -6.6      0.000      0.000
REMARK  7 active torsions:
REMARK  status: ('A' for Active; 'I' for Inactive)
REMARK    1  A    between atoms: C_2  and  C_3 
REMARK    2  A    between atoms: C_3  and  O_6 
REMARK    3  A    between atoms: C_3  and  C_4 
REMARK    4  A    between atoms: C_7  and  O_6 
REMARK    5  A    between atoms: C_9  and  C_10 
REMARK    6  A    between atoms: N_15  and  C_14 
REMARK    7  A    between atoms: N_20  and  C_19 
REMARK       I    between atoms: C_22  and  N_20 
ROOT
ATOM      1  C   LIG d   1       0.391  82.775 110.898  0.00  0.00     0.161 C 
ATOM      2  C   LIG d   1      -0.730  82.490 111.695  0.00  0.00     0.016 C 
ATOM      3  C   LIG d   1      -1.273  81.193 111.838  0.00  0.00     0.038 C 
ATOM      4  C   LIG d   1      -0.636  80.060 111.311  0.00  0.00     0.028 C 
ATOM      5  C   LIG d   1       0.215  80.361 110.081  0.00  0.00    -0.047 C 
ATOM      6  C   LIG d   1       1.166  81.536 110.405  0.00  0.00     0.091 C 
ENDROOT
BRANCH   1   7
ATOM      7  O   LIG d   1       1.275  83.671 111.601  0.00  0.00    -0.368 OA
BRANCH   7   8
ATOM      8  C   LIG d   1       1.367  85.018 111.075  0.00  0.00     0.119 C 
BRANCH   8   9
ATOM      9  C   LIG d   1       0.443  85.099 109.845  0.00  0.00     0.028 C 
ATOM     10  C   LIG d   1      -0.741  86.057 110.062  0.00  0.00     0.006 C 
ENDBRANCH   8   9
BRANCH   8  11
ATOM     11  C   LIG d   1       2.774  85.315 110.546  0.00  0.00     0.028 C 
ATOM     12  C   LIG d   1       3.882  84.775 111.464  0.00  0.00     0.006 C 
ENDBRANCH   8  11
ENDBRANCH   7   8
ENDBRANCH   1   7
BRANCH   6  13
ATOM     13  N   LIG d   1       1.975  81.950 109.229  0.00  0.00    -0.311 N 
ATOM     14  C   LIG d   1       3.306  81.893 109.198  0.00  0.00     0.210 C 
ATOM     15  C   LIG d   1       3.944  82.387 107.896  0.00  0.00     0.109 C 
ATOM     16  O   LIG d   1       4.016  81.451 110.113  0.00  0.00    -0.276 OA
ATOM     17  H   LIG d   1       1.478  82.292 108.430  0.00  0.00     0.149 HD
ENDBRANCH   6  13
BRANCH   5  18
ATOM     18  N   LIG d   1       0.929  79.122 109.719  0.00  0.00     0.381 N 
ATOM     19  H   LIG d   1       1.361  79.229 108.824  0.00  0.00    -0.090 HD
ATOM     20  H   LIG d   1       0.266  78.369 109.661  0.00  0.00    -0.090 HD
ATOM     21  H   LIG d   1       1.620  78.913 110.407  0.00  0.00    -0.090 HD
ENDBRANCH   5  18
BRANCH   3  22
ATOM     22  C   LIG d   1      -2.489  81.024 112.483  0.00  0.00     0.382 C 
ATOM     23  O   LIG d   1      -3.516  81.594 112.042  0.00  0.00    -0.241 OA
ATOM     24  O   LIG d   1      -2.563  80.345 113.524  0.00  0.00    -0.241 OA
ENDBRANCH   3  22
TORSDOF 7
ENDMDL
MODEL 2
REMARK VINA RESULT:      -6.4      1.857      5.018
REMARK  7 active torsions:
REMARK  status: ('A' for Active; 'I' for Inactive)
REMARK    1  A    between atoms: C_2  and  C_3 
REMARK    2  A    between atoms: C_3  and  O_6 
REMARK    3  A    between atoms: C_3  and  C_4 
REMARK    4  A    between atoms: C_7  and  O_6 
REMARK    5  A    between atoms: C_9  and  C_10 
REMARK    6  A    between atoms: N_15  and  C_14 
REMARK    7  A    between atoms: N_20  and  C_19 
REMARK       I    between atoms: C_22  and  N_20 
ROOT
ATOM      1  C   LIG d   1       1.352  81.869 111.927  0.00  0.00     0.161 C 
ATOM      2  C   LIG d   1       2.480  82.465 111.338  0.00  0.00     0.016 C 
ATOM      3  C   LIG d   1       2.783  82.364 109.960  0.00  0.00     0.038 C 
ATOM      4  C   LIG d   1       1.891  81.785 109.046  0.00  0.00     0.028 C 
ATOM      5  C   LIG d   1       0.984  80.730 109.670  0.00  0.00    -0.047 C 
ATOM      6  C   LIG d   1       0.310  81.327 110.926  0.00  0.00     0.091 C 
ENDROOT
BRANCH   1   7
ATOM      7  O   LIG d   1       0.733  82.795 112.842  0.00  0.00    -0.368 OA
BRANCH   7   8
ATOM      8  C   LIG d   1       0.880  84.201 112.524  0.00  0.00     0.119 C 
BRANCH   8   9
ATOM      9  C   LIG d   1       1.110  84.954 113.848  0.00  0.00     0.028 C 
ATOM     10  C   LIG d   1      -0.186  85.563 114.410  0.00  0.00     0.006 C 
ENDBRANCH   8   9
BRANCH   8  11
ATOM     11  C   LIG d   1      -0.416  84.779 111.948  0.00  0.00     0.028 C 
ATOM     12  C   LIG d   1      -0.298  85.138 110.458  0.00  0.00     0.006 C 
ENDBRANCH   8  11
ENDBRANCH   7   8
ENDBRANCH   1   7
BRANCH   6  13
ATOM     13  N   LIG d   1      -0.530  80.334 111.645  0.00  0.00    -0.311 N 
ATOM     14  C   LIG d   1      -1.763  80.593 112.076  0.00  0.00     0.210 C 
ATOM     15  C   LIG d   1      -2.447  79.436 112.812  0.00  0.00     0.109 C 
ATOM     16  O   LIG d   1      -2.368  81.660 111.891  0.00  0.00    -0.276 OA
ATOM     17  H   LIG d   1      -0.129  79.432 111.811  0.00  0.00     0.149 HD
ENDBRANCH   6  13
BRANCH   5  18
ATOM     18  N   LIG d   1       0.016  80.309 108.639  0.00  0.00     0.381 N 
ATOM     19  H   LIG d   1       0.503  79.989 107.827  0.00  0.00    -0.090 HD
ATOM     20  H   LIG d   1      -0.546  81.100 108.379  0.00  0.00    -0.090 HD
ATOM     21  H   LIG d   1      -0.566  79.582 108.995  0.00  0.00    -0.090 HD
ENDBRANCH   5  18
BRANCH   3  22
ATOM     22  C   LIG d   1       4.008  82.813 109.492  0.00  0.00     0.382 C 
ATOM     23  O   LIG d   1       4.706  82.075 108.755  0.00  0.00    -0.241 OA
ATOM     24  O   LIG d   1       4.446  83.928 109.833  0.00  0.00    -0.241 OA
ENDBRANCH   3  22
TORSDOF 7
ENDMDL
MODEL 3
REMARK VINA RESULT:      -6.1      2.629      4.237
REMARK  7 active torsions:
REMARK  status: ('A' for Active; 'I' for Inactive)
REMARK    1  A    between atoms: C_2  and  C_3 
REMARK    2  A    between atoms: C_3  and  O_6 
REMARK    3  A    between atoms: C_3  and  C_4 
REMARK    4  A    between atoms: C_7  and  O_6 
REMARK    5  A    between atoms: C_9  and  C_10 
REMARK    6  A    between atoms: N_15  and  C_14 
REMARK    7  A    between atoms: N_20  and  C_19 
REMARK       I    between atoms: C_22  and  N_20 
ROOT
ATOM      1  C   LIG d   1       0.996  83.464 111.686  0.00  0.00     0.161 C 
ATOM      2  C   LIG d   1      -0.060  82.552 111.853  0.00  0.00     0.016 C 
ATOM      3  C   LIG d   1      -1.136  82.762 112.745  0.00  0.00     0.038 C 
ATOM      4  C   LIG d   1      -1.310  83.977 113.424  0.00  0.00     0.028 C 
ATOM      5  C   LIG d   1      -0.004  84.725 113.671  0.00  0.00    -0.047 C 
ATOM      6  C   LIG d   1       0.766  84.845 112.336  0.00  0.00     0.091 C 
ENDROOT
BRANCH   1   7
ATOM      7  O   LIG d   1       1.295  83.614 110.284  0.00  0.00    -0.368 OA
BRANCH   7   8
ATOM      8  C   LIG d   1       2.144  82.596 109.701  0.00  0.00     0.119 C 
BRANCH   8   9
ATOM      9  C   LIG d   1       3.467  82.589 110.490  0.00  0.00     0.028 C 
ATOM     10  C   LIG d   1       4.405  83.734 110.074  0.00  0.00     0.006 C 
ENDBRANCH   8   9
BRANCH   8  11
ATOM     11  C   LIG d   1       2.532  82.950 108.262  0.00  0.00     0.028 C 
ATOM     12  C   LIG d   1       1.501  83.859 107.574  0.00  0.00     0.006 C 
ENDBRANCH   8  11
ENDBRANCH   7   8
ENDBRANCH   1   7
BRANCH   6  13
ATOM     13  N   LIG d   1       2.094  85.490 112.503  0.00  0.00    -0.311 N 
ATOM     14  C   LIG d   1       2.550  86.450 111.700  0.00  0.00     0.210 C 
ATOM     15  C   LIG d   1       3.953  86.963 112.038  0.00  0.00     0.109 C 
ATOM     16  O   LIG d   1       1.912  86.947 110.760  0.00  0.00    -0.276 OA
ATOM     17  H   LIG d   1       2.665  85.168 113.261  0.00  0.00     0.149 HD
ENDBRANCH   6  13
BRANCH   5  18
ATOM     18  N   LIG d   1      -0.344  86.033 114.262  0.00  0.00     0.381 N 
ATOM     19  H   LIG d   1      -1.331  86.088 114.419  0.00  0.00    -0.090 HD
ATOM     20  H   LIG d   1      -0.087  86.758 113.615  0.00  0.00    -0.090 HD
ATOM     21  H   LIG d   1       0.144  86.157 115.121  0.00  0.00    -0.090 HD
ENDBRANCH   5  18
BRANCH   3  22
ATOM     22  C   LIG d   1      -2.032  81.734 112.995  0.00  0.00     0.382 C 
ATOM     23  O   LIG d   1      -3.007  81.551 112.226  0.00  0.00    -0.241 OA
ATOM     24  O   LIG d   1      -1.904  81.015 114.003  0.00  0.00    -0.241 OA
ENDBRANCH   3  22
TORSDOF 7
ENDMDL
MODEL 4
REMARK VINA RESULT:      -6.1      1.128      1.779
REMARK  7 active torsions:
REMARK  status: ('A' for Active; 'I' for Inactive)
REMARK    1  A    between atoms: C_2  and  C_3 
REMARK    2  A    between atoms: C_3  and  O_6 
REMARK    3  A    between atoms: C_3  and  C_4 
REMARK    4  A    between atoms: C_7  and  O_6 
REMARK    5  A    between atoms: C_9  and  C_10 
REMARK    6  A    between atoms: N_15  and  C_14 
REMARK    7  A    between atoms: N_20  and  C_19 
REMARK       I    between atoms: C_22  and  N_20 
ROOT
ATOM      1  C   LIG d   1       0.746  82.831 111.287  0.00  0.00     0.161 C 
ATOM      2  C   LIG d   1      -0.430  82.671 112.038  0.00  0.00     0.016 C 
ATOM      3  C   LIG d   1      -1.182  81.474 112.061  0.00  0.00     0.038 C 
ATOM      4  C   LIG d   1      -0.724  80.299 111.447  0.00  0.00     0.028 C 
ATOM      5  C   LIG d   1       0.200  80.555 110.262  0.00  0.00    -0.047 C 
ATOM      6  C   LIG d   1       1.321  81.525 110.700  0.00  0.00     0.091 C 
ENDROOT
BRANCH   1   7
ATOM      7  O   LIG d   1       1.743  83.507 112.078  0.00  0.00    -0.368 OA
BRANCH   7   8
ATOM      8  C   LIG d   1       1.754  84.953 111.990  0.00  0.00     0.119 C 
BRANCH   8   9
ATOM      9  C   LIG d   1       2.872  85.348 111.006  0.00  0.00     0.028 C 
ATOM     10  C   LIG d   1       3.822  86.407 111.591  0.00  0.00     0.006 C 
ENDBRANCH   8   9
BRANCH   8  11
ATOM     11  C   LIG d   1       2.147  85.589 113.327  0.00  0.00     0.028 C 
ATOM     12  C   LIG d   1       2.351  84.553 114.443  0.00  0.00     0.006 C 
ENDBRANCH   8  11
ENDBRANCH   7   8
ENDBRANCH   1   7
BRANCH   6  13
ATOM     13  N   LIG d   1       2.221  81.895 109.577  0.00  0.00    -0.311 N 
ATOM     14  C   LIG d   1       3.543  82.007 109.703  0.00  0.00     0.210 C 
ATOM     15  C   LIG d   1       4.282  82.418 108.425  0.00  0.00     0.109 C 
ATOM     16  O   LIG d   1       4.176  81.773 110.743  0.00  0.00    -0.276 OA
ATOM     17  H   LIG d   1       1.794  82.072 108.689  0.00  0.00     0.149 HD
ENDBRANCH   6  13
BRANCH   5  18
ATOM     18  N   LIG d   1       0.712  79.249 109.805  0.00  0.00     0.381 N 
ATOM     19  H   LIG d   1       0.060  78.528 110.041  0.00  0.00    -0.090 HD
ATOM     20  H   LIG d   1       1.579  79.057 110.275  0.00  0.00    -0.090 HD
ATOM     21  H   LIG d   1       0.857  79.265 108.819  0.00  0.00    -0.090 HD
ENDBRANCH   5  18
BRANCH   3  22
ATOM     22  C   LIG d   1      -2.428  81.457 112.669  0.00  0.00     0.382 C 
ATOM     23  O   LIG d   1      -2.515  81.347 113.916  0.00  0.00    -0.241 OA
ATOM     24  O   LIG d   1      -3.467  81.504 111.984  0.00  0.00    -0.241 OA
ENDBRANCH   3  22
TORSDOF 7
ENDMDL
MODEL 5
REMARK VINA RESULT:      -5.9      2.511      5.772
REMARK  7 active torsions:
REMARK  status: ('A' for Active; 'I' for Inactive)
REMARK    1  A    between atoms: C_2  and  C_3 
REMARK    2  A    between atoms: C_3  and  O_6 
REMARK    3  A    between atoms: C_3  and  C_4 
REMARK    4  A    between atoms: C_7  and  O_6 
REMARK    5  A    between atoms: C_9  and  C_10 
REMARK    6  A    between atoms: N_15  and  C_14 
REMARK    7  A    between atoms: N_20  and  C_19 
REMARK       I    between atoms: C_22  and  N_20 
ROOT
ATOM      1  C   LIG d   1       0.805  84.224 110.597  0.00  0.00     0.161 C 
ATOM      2  C   LIG d   1       1.777  85.238 110.571  0.00  0.00     0.016 C 
ATOM      3  C   LIG d   1       2.348  85.798 111.736  0.00  0.00     0.038 C 
ATOM      4  C   LIG d   1       2.095  85.273 113.012  0.00  0.00     0.028 C 
ATOM      5  C   LIG d   1       0.739  84.585 113.126  0.00  0.00    -0.047 C 
ATOM      6  C   LIG d   1       0.598  83.562 111.975  0.00  0.00     0.091 C 
ENDROOT
BRANCH   1   7
ATOM      7  O   LIG d   1       1.112  83.227 109.603  0.00  0.00    -0.368 OA
BRANCH   7   8
ATOM      8  C   LIG d   1       2.305  82.439 109.839  0.00  0.00     0.119 C 
BRANCH   8   9
ATOM      9  C   LIG d   1       3.205  82.579 108.596  0.00  0.00     0.028 C 
ATOM     10  C   LIG d   1       4.647  82.974 108.957  0.00  0.00     0.006 C 
ENDBRANCH   8   9
BRANCH   8  11
ATOM     11  C   LIG d   1       1.977  80.946 109.935  0.00  0.00     0.028 C 
ATOM     12  C   LIG d   1       0.605  80.597 109.336  0.00  0.00     0.006 C 
ENDBRANCH   8  11
ENDBRANCH   7   8
ENDBRANCH   1   7
BRANCH   6  13
ATOM     13  N   LIG d   1      -0.735  82.904 111.963  0.00  0.00    -0.311 N 
ATOM     14  C   LIG d   1      -0.970  81.715 112.516  0.00  0.00     0.210 C 
ATOM     15  C   LIG d   1      -2.409  81.209 112.372  0.00  0.00     0.109 C 
ATOM     16  O   LIG d   1      -0.132  81.047 113.139  0.00  0.00    -0.276 OA
ATOM     17  H   LIG d   1      -1.480  83.391 111.505  0.00  0.00     0.149 HD
ENDBRANCH   6  13
BRANCH   5  18
ATOM     18  N   LIG d   1       0.665  83.965 114.462  0.00  0.00     0.381 N 
ATOM     19  H   LIG d   1       0.688  84.675 115.167  0.00  0.00    -0.090 HD
ATOM     20  H   LIG d   1       1.463  83.369 114.589  0.00  0.00    -0.090 HD
ATOM     21  H   LIG d   1      -0.173  83.433 114.545  0.00  0.00    -0.090 HD
ENDBRANCH   5  18
BRANCH   3  22
ATOM     22  C   LIG d   1       3.154  86.923 111.634  0.00  0.00     0.382 C 
ATOM     23  O   LIG d   1       2.660  88.064 111.800  0.00  0.00    -0.241 OA
ATOM     24  O   LIG d   1       4.358  86.812 111.335  0.00  0.00    -0.241 OA
ENDBRANCH   3  22
TORSDOF 7
ENDMDL
MODEL 6
REMARK VINA RESULT:      -5.9      2.271      3.692
REMARK  7 active torsions:
REMARK  status: ('A' for Active; 'I' for Inactive)
REMARK    1  A    between atoms: C_2  and  C_3 
REMARK    2  A    between atoms: C_3  and  O_6 
REMARK    3  A    between atoms: C_3  and  C_4 
REMARK    4  A    between atoms: C_7  and  O_6 
REMARK    5  A    between atoms: C_9  and  C_10 
REMARK    6  A    between atoms: N_15  and  C_14 
REMARK    7  A    between atoms: N_20  and  C_19 
REMARK       I    between atoms: C_22  and  N_20 
ROOT
ATOM      1  C   LIG d   1       1.272  83.437 109.990  0.00  0.00     0.161 C 
ATOM      2  C   LIG d   1       0.504  84.515 110.461  0.00  0.00     0.016 C 
ATOM      3  C   LIG d   1      -0.119  84.532 111.730  0.00  0.00     0.038 C 
ATOM      4  C   LIG d   1       0.110  83.526 112.681  0.00  0.00     0.028 C 
ATOM      5  C   LIG d   1       0.469  82.179 112.064  0.00  0.00    -0.047 C 
ATOM      6  C   LIG d   1       1.624  82.380 111.057  0.00  0.00     0.091 C 
ENDROOT
BRANCH   1   7
ATOM      7  O   LIG d   1       2.470  83.930 109.358  0.00  0.00    -0.368 OA
BRANCH   7   8
ATOM      8  C   LIG d   1       3.696  83.784 110.115  0.00  0.00     0.119 C 
BRANCH   8   9
ATOM      9  C   LIG d   1       4.070  85.176 110.662  0.00  0.00     0.028 C 
ATOM     10  C   LIG d   1       3.732  85.331 112.154  0.00  0.00     0.006 C 
ENDBRANCH   8   9
BRANCH   8  11
ATOM     11  C   LIG d   1       4.864  83.376 109.213  0.00  0.00     0.028 C 
ATOM     12  C   LIG d   1       4.475  82.303 108.183  0.00  0.00     0.006 C 
ENDBRANCH   8  11
ENDBRANCH   7   8
ENDBRANCH   1   7
BRANCH   6  13
ATOM     13  N   LIG d   1       1.981  81.125 110.346  0.00  0.00    -0.311 N 
ATOM     14  C   LIG d   1       1.110  80.413 109.632  0.00  0.00     0.210 C 
ATOM     15  C   LIG d   1       1.681  79.141 108.997  0.00  0.00     0.109 C 
ATOM     16  O   LIG d   1      -0.073  80.732 109.439  0.00  0.00    -0.276 OA
ATOM     17  H   LIG d   1       2.928  80.810 110.424  0.00  0.00     0.149 HD
ENDBRANCH   6  13
BRANCH   5  18
ATOM     18  N   LIG d   1       0.815  81.262 113.166  0.00  0.00     0.381 N 
ATOM     19  H   LIG d   1       1.553  81.656 113.715  0.00  0.00    -0.090 HD
ATOM     20  H   LIG d   1       1.140  80.394 112.777  0.00  0.00    -0.090 HD
ATOM     21  H   LIG d   1       0.016  81.099 113.738  0.00  0.00    -0.090 HD
ENDBRANCH   5  18
BRANCH   3  22
ATOM     22  C   LIG d   1      -1.014  85.543 112.043  0.00  0.00     0.382 C 
ATOM     23  O   LIG d   1      -1.467  85.641 113.209  0.00  0.00    -0.241 OA
ATOM     24  O   LIG d   1      -1.409  86.332 111.164  0.00  0.00    -0.241 OA
ENDBRANCH   3  22
TORSDOF 7
ENDMDL
MODEL 7
REMARK VINA RESULT:      -5.9      2.273      4.882
REMARK  7 active torsions:
REMARK  status: ('A' for Active; 'I' for Inactive)
REMARK    1  A    between atoms: C_2  and  C_3 
REMARK    2  A    between atoms: C_3  and  O_6 
REMARK    3  A    between atoms: C_3  and  C_4 
REMARK    4  A    between atoms: C_7  and  O_6 
REMARK    5  A    between atoms: C_9  and  C_10 
REMARK    6  A    between atoms: N_15  and  C_14 
REMARK    7  A    between atoms: N_20  and  C_19 
REMARK       I    between atoms: C_22  and  N_20 
ROOT
ATOM      1  C   LIG d   1       0.348  82.084 110.549  0.00  0.00     0.161 C 
ATOM      2  C   LIG d   1       0.254  83.373 110.000  0.00  0.00     0.016 C 
ATOM      3  C   LIG d   1      -0.245  84.488 110.713  0.00  0.00     0.038 C 
ATOM      4  C   LIG d   1      -0.544  84.419 112.082  0.00  0.00     0.028 C 
ATOM      5  C   LIG d   1      -0.942  83.022 112.546  0.00  0.00    -0.047 C 
ATOM      6  C   LIG d   1       0.131  82.013 112.075  0.00  0.00     0.091 C 
ENDROOT
BRANCH   1   7
ATOM      7  O   LIG d   1       1.615  81.494 110.196  0.00  0.00    -0.368 OA
BRANCH   7   8
ATOM      8  C   LIG d   1       2.627  82.405 109.702  0.00  0.00     0.119 C 
BRANCH   8   9
ATOM      9  C   LIG d   1       3.421  81.667 108.607  0.00  0.00     0.028 C 
ATOM     10  C   LIG d   1       4.724  82.394 108.236  0.00  0.00     0.006 C 
ENDBRANCH   8   9
BRANCH   8  11
ATOM     11  C   LIG d   1       3.652  82.741 110.789  0.00  0.00     0.028 C 
ATOM     12  C   LIG d   1       3.615  84.219 111.208  0.00  0.00     0.006 C 
ENDBRANCH   8  11
ENDBRANCH   7   8
ENDBRANCH   1   7
BRANCH   6  13
ATOM     13  N   LIG d   1      -0.223  80.610 112.414  0.00  0.00    -0.311 N 
ATOM     14  C   LIG d   1      -1.463  80.128 112.339  0.00  0.00     0.210 C 
ATOM     15  C   LIG d   1      -1.612  78.660 112.753  0.00  0.00     0.109 C 
ATOM     16  O   LIG d   1      -2.447  80.767 111.938  0.00  0.00    -0.276 OA
ATOM     17  H   LIG d   1       0.520  80.013 112.720  0.00  0.00     0.149 HD
ENDBRANCH   6  13
BRANCH   5  18
ATOM     18  N   LIG d   1      -1.091  83.065 114.012  0.00  0.00     0.381 N 
ATOM     19  H   LIG d   1      -1.830  83.693 114.259  0.00  0.00    -0.090 HD
ATOM     20  H   LIG d   1      -0.238  83.407 114.416  0.00  0.00    -0.090 HD
ATOM     21  H   LIG d   1      -1.291  82.153 114.362  0.00  0.00    -0.090 HD
ENDBRANCH   5  18
BRANCH   3  22
ATOM     22  C   LIG d   1      -0.486  85.679 110.045  0.00  0.00     0.382 C 
ATOM     23  O   LIG d   1      -1.289  86.515 110.525  0.00  0.00    -0.241 OA
ATOM     24  O   LIG d   1       0.054  85.908 108.947  0.00  0.00    -0.241 OA
ENDBRANCH   3  22
TORSDOF 7
ENDMDL
MODEL 8
REMARK VINA RESULT:      -5.6      2.679      4.414
REMARK  7 active torsions:
REMARK  status: ('A' for Active; 'I' for Inactive)
REMARK    1  A    between atoms: C_2  and  C_3 
REMARK    2  A    between atoms: C_3  and  O_6 
REMARK    3  A    between atoms: C_3  and  C_4 
REMARK    4  A    between atoms: C_7  and  O_6 
REMARK    5  A    between atoms: C_9  and  C_10 
REMARK    6  A    between atoms: N_15  and  C_14 
REMARK    7  A    between atoms: N_20  and  C_19 
REMARK       I    between atoms: C_22  and  N_20 
ROOT
ATOM      1  C   LIG d   1       1.689  82.813 111.102  0.00  0.00     0.161 C 
ATOM      2  C   LIG d   1       1.337  81.548 110.603  0.00  0.00     0.016 C 
ATOM      3  C   LIG d   1       2.101  80.851 109.639  0.00  0.00     0.038 C 
ATOM      4  C   LIG d   1       3.359  81.308 109.218  0.00  0.00     0.028 C 
ATOM      5  C   LIG d   1       3.516  82.822 109.315  0.00  0.00    -0.047 C 
ATOM      6  C   LIG d   1       3.115  83.278 110.737  0.00  0.00     0.091 C 
ENDROOT
BRANCH   1   7
ATOM      7  O   LIG d   1       1.503  82.844 112.530  0.00  0.00    -0.368 OA
BRANCH   7   8
ATOM      8  C   LIG d   1       0.359  83.595 113.008  0.00  0.00     0.119 C 
BRANCH   8   9
ATOM      9  C   LIG d   1      -0.548  82.618 113.779  0.00  0.00     0.028 C 
ATOM     10  C   LIG d   1      -1.612  81.970 112.877  0.00  0.00     0.006 C 
ENDBRANCH   8   9
BRANCH   8  11
ATOM     11  C   LIG d   1      -0.494  84.110 111.845  0.00  0.00     0.028 C 
ATOM     12  C   LIG d   1      -0.553  85.644 111.781  0.00  0.00     0.006 C 
ENDBRANCH   8  11
ENDBRANCH   7   8
ENDBRANCH   1   7
BRANCH   6  13
ATOM     13  N   LIG d   1       3.159  84.755 110.892  0.00  0.00    -0.311 N 
ATOM     14  C   LIG d   1       3.641  85.364 111.974  0.00  0.00     0.210 C 
ATOM     15  C   LIG d   1       3.575  86.894 111.937  0.00  0.00     0.109 C 
ATOM     16  O   LIG d   1       4.146  84.784 112.946  0.00  0.00    -0.276 OA
ATOM     17  H   LIG d   1       2.799  85.304 110.136  0.00  0.00     0.149 HD
ENDBRANCH   6  13
BRANCH   5  18
ATOM     18  N   LIG d   1       4.915  83.147 108.977  0.00  0.00     0.381 N 
ATOM     19  H   LIG d   1       5.337  83.651 109.732  0.00  0.00    -0.090 HD
ATOM     20  H   LIG d   1       4.925  83.733 108.162  0.00  0.00    -0.090 HD
ATOM     21  H   LIG d   1       5.426  82.310 108.800  0.00  0.00    -0.090 HD
ENDBRANCH   5  18
BRANCH   3  22
ATOM     22  C   LIG d   1       1.589  79.701 109.057  0.00  0.00     0.382 C 
ATOM     23  O   LIG d   1       0.413  79.689 108.622  0.00  0.00    -0.241 OA
ATOM     24  O   LIG d   1       2.275  78.662 109.001  0.00  0.00    -0.241 OA
ENDBRANCH   3  22
TORSDOF 7
ENDMDL
MODEL 9
REMARK VINA RESULT:      -5.6      2.714      4.360
REMARK  7 active torsions:
REMARK  status: ('A' for Active; 'I' for Inactive)
REMARK    1  A    between atoms: C_2  and  C_3 
REMARK    2  A    between atoms: C_3  and  O_6 
REMARK    3  A    between atoms: C_3  and  C_4 
REMARK    4  A    between atoms: C_7  and  O_6 
REMARK    5  A    between atoms: C_9  and  C_10 
REMARK    6  A    between atoms: N_15  and  C_14 
REMARK    7  A    between atoms: N_20  and  C_19 
REMARK       I    between atoms: C_22  and  N_20 
ROOT
ATOM      1  C   LIG d   1       1.253  83.192 111.002  0.00  0.00     0.161 C 
ATOM      2  C   LIG d   1       0.833  81.948 110.503  0.00  0.00     0.016 C 
ATOM      3  C   LIG d   1       1.653  81.108 109.715  0.00  0.00     0.038 C 
ATOM      4  C   LIG d   1       3.010  81.388 109.498  0.00  0.00     0.028 C 
ATOM      5  C   LIG d   1       3.338  82.877 109.559  0.00  0.00    -0.047 C 
ATOM      6  C   LIG d   1       2.766  83.464 110.869  0.00  0.00     0.091 C 
ENDROOT
BRANCH   1   7
ATOM      7  O   LIG d   1       0.838  83.333 112.375  0.00  0.00    -0.368 OA
BRANCH   7   8
ATOM      8  C   LIG d   1      -0.557  83.663 112.588  0.00  0.00     0.119 C 
BRANCH   8   9
ATOM      9  C   LIG d   1      -0.607  85.044 113.269  0.00  0.00     0.028 C 
ATOM     10  C   LIG d   1       0.626  85.309 114.150  0.00  0.00     0.006 C 
ENDBRANCH   8   9
BRANCH   8  11
ATOM     11  C   LIG d   1      -1.213  82.698 113.580  0.00  0.00     0.028 C 
ATOM     12  C   LIG d   1      -0.230  81.655 114.135  0.00  0.00     0.006 C 
ENDBRANCH   8  11
ENDBRANCH   7   8
ENDBRANCH   1   7
BRANCH   6  13
ATOM     13  N   LIG d   1       2.970  84.933 110.968  0.00  0.00    -0.311 N 
ATOM     14  C   LIG d   1       3.577  85.521 111.997  0.00  0.00     0.210 C 
ATOM     15  C   LIG d   1       3.663  87.048 111.910  0.00  0.00     0.109 C 
ATOM     16  O   LIG d   1       4.080  84.921 112.959  0.00  0.00    -0.276 OA
ATOM     17  H   LIG d   1       2.620  85.493 110.216  0.00  0.00     0.149 HD
ENDBRANCH   6  13
BRANCH   5  18
ATOM     18  N   LIG d   1       4.803  83.015 109.453  0.00  0.00     0.381 N 
ATOM     19  H   LIG d   1       5.182  83.285 110.339  0.00  0.00    -0.090 HD
ATOM     20  H   LIG d   1       5.014  83.736 108.786  0.00  0.00    -0.090 HD
ATOM     21  H   LIG d   1       5.207  82.153 109.160  0.00  0.00    -0.090 HD
ENDBRANCH   5  18
BRANCH   3  22
ATOM     22  C   LIG d   1       1.105  79.991 109.102  0.00  0.00     0.382 C 
ATOM     23  O   LIG d   1      -0.079  80.021 108.688  0.00  0.00    -0.241 OA
ATOM     24  O   LIG d   1       1.765  78.940 108.997  0.00  0.00    -0.241 OA
ENDBRANCH   3  22
TORSDOF 7
ENDMDL
