MODEL 1
REMARK VINA RESULT:      -6.3      0.000      0.000
REMARK  7 active torsions:
REMARK  status: ('A' for Active; 'I' for Inactive)
REMARK    1  A    between atoms: C_2  and  C_3 
REMARK    2  A    between atoms: C_3  and  O_6 
REMARK    3  A    between atoms: C_3  and  C_4 
REMARK    4  A    between atoms: C_7  and  O_6 
REMARK    5  A    between atoms: C_9  and  C_10 
REMARK    6  A    between atoms: N_15  and  C_14 
REMARK    7  A    between atoms: N_20  and  C_19 
REMARK       I    between atoms: C_22  and  N_20 
ROOT
ATOM      1  C   LIG d   1       2.054  83.256 111.586  0.00  0.00     0.161 C 
ATOM      2  C   LIG d   1       2.987  83.257 110.535  0.00  0.00     0.016 C 
ATOM      3  C   LIG d   1       2.903  82.393 109.419  0.00  0.00     0.038 C 
ATOM      4  C   LIG d   1       1.789  81.568 109.203  0.00  0.00     0.028 C 
ATOM      5  C   LIG d   1       1.072  81.168 110.488  0.00  0.00    -0.047 C 
ATOM      6  C   LIG d   1       0.772  82.441 111.312  0.00  0.00     0.091 C 
ENDROOT
BRANCH   1   7
ATOM      7  O   LIG d   1       1.718  84.612 111.942  0.00  0.00    -0.368 OA
BRANCH   7   8
ATOM      8  C   LIG d   1       1.929  85.612 110.915  0.00  0.00     0.119 C 
BRANCH   8   9
ATOM      9  C   LIG d   1       2.560  86.844 111.591  0.00  0.00     0.028 C 
ATOM     10  C   LIG d   1       4.065  86.664 111.853  0.00  0.00     0.006 C 
ENDBRANCH   8   9
BRANCH   8  11
ATOM     11  C   LIG d   1       0.599  86.104 110.335  0.00  0.00     0.028 C 
ATOM     12  C   LIG d   1       0.226  85.400 109.021  0.00  0.00     0.006 C 
ENDBRANCH   8  11
ENDBRANCH   7   8
ENDBRANCH   1   7
BRANCH   6  13
ATOM     13  N   LIG d   1       0.147  82.133 112.624  0.00  0.00    -0.311 N 
ATOM     14  C   LIG d   1      -1.170  82.049 112.807  0.00  0.00     0.210 C 
ATOM     15  C   LIG d   1      -1.605  81.741 114.243  0.00  0.00     0.109 C 
ATOM     16  O   LIG d   1      -2.018  82.170 111.910  0.00  0.00    -0.276 OA
ATOM     17  H   LIG d   1       0.762  81.990 113.401  0.00  0.00     0.149 HD
ENDBRANCH   6  13
BRANCH   5  18
ATOM     18  N   LIG d   1      -0.145  80.426 110.107  0.00  0.00     0.381 N 
ATOM     19  H   LIG d   1      -0.513  80.795 109.253  0.00  0.00    -0.090 HD
ATOM     20  H   LIG d   1      -0.837  80.545 110.826  0.00  0.00    -0.090 HD
ATOM     21  H   LIG d   1       0.066  79.459 109.996  0.00  0.00    -0.090 HD
ENDBRANCH   5  18
BRANCH   3  22
ATOM     22  C   LIG d   1       3.960  82.319 108.526  0.00  0.00     0.382 C 
ATOM     23  O   LIG d   1       5.111  82.665 108.887  0.00  0.00    -0.241 OA
ATOM     24  O   LIG d   1       3.770  81.954 107.350  0.00  0.00    -0.241 OA
ENDBRANCH   3  22
TORSDOF 7
ENDMDL
MODEL 2
REMARK VINA RESULT:      -6.2      2.015      2.319
REMARK  7 active torsions:
REMARK  status: ('A' for Active; 'I' for Inactive)
REMARK    1  A    between atoms: C_2  and  C_3 
REMARK    2  A    between atoms: C_3  and  O_6 
REMARK    3  A    between atoms: C_3  and  C_4 
REMARK    4  A    between atoms: C_7  and  O_6 
REMARK    5  A    between atoms: C_9  and  C_10 
REMARK    6  A    between atoms: N_15  and  C_14 
REMARK    7  A    between atoms: N_20  and  C_19 
REMARK       I    between atoms: C_22  and  N_20 
ROOT
ATOM      1  C   LIG d   1       1.353  81.520 111.878  0.00  0.00     0.161 C 
ATOM      2  C   LIG d   1       2.475  82.170 111.338  0.00  0.00     0.016 C 
ATOM      3  C   LIG d   1       2.763  82.208 109.954  0.00  0.00     0.038 C 
ATOM      4  C   LIG d   1       1.860  81.724 108.996  0.00  0.00     0.028 C 
ATOM      5  C   LIG d   1       0.957  80.613 109.522  0.00  0.00    -0.047 C 
ATOM      6  C   LIG d   1       0.299  81.082 110.839  0.00  0.00     0.091 C 
ENDROOT
BRANCH   1   7
ATOM      7  O   LIG d   1       0.746  82.350 112.888  0.00  0.00    -0.368 OA
BRANCH   7   8
ATOM      8  C   LIG d   1       0.911  83.780 112.722  0.00  0.00     0.119 C 
BRANCH   8   9
ATOM      9  C   LIG d   1       1.035  84.398 114.128  0.00  0.00     0.028 C 
ATOM     10  C   LIG d   1      -0.127  85.351 114.454  0.00  0.00     0.006 C 
ENDBRANCH   8   9
BRANCH   8  11
ATOM     11  C   LIG d   1      -0.339  84.417 112.108  0.00  0.00     0.028 C 
ATOM     12  C   LIG d   1      -0.163  84.762 110.620  0.00  0.00     0.006 C 
ENDBRANCH   8  11
ENDBRANCH   7   8
ENDBRANCH   1   7
BRANCH   6  13
ATOM     13  N   LIG d   1      -0.536  80.023 111.465  0.00  0.00    -0.311 N 
ATOM     14  C   LIG d   1      -1.746  80.248 111.974  0.00  0.00     0.210 C 
ATOM     15  C   LIG d   1      -2.427  79.022 112.589  0.00  0.00     0.109 C 
ATOM     16  O   LIG d   1      -2.333  81.340 111.945  0.00  0.00    -0.276 OA
ATOM     17  H   LIG d   1      -0.149  79.100 111.503  0.00  0.00     0.149 HD
ENDBRANCH   6  13
BRANCH   5  18
ATOM     18  N   LIG d   1      -0.024  80.298 108.466  0.00  0.00     0.381 N 
ATOM     19  H   LIG d   1       0.277  80.692 107.597  0.00  0.00    -0.090 HD
ATOM     20  H   LIG d   1      -0.907  80.709 108.710  0.00  0.00    -0.090 HD
ATOM     21  H   LIG d   1      -0.122  79.311 108.375  0.00  0.00    -0.090 HD
ENDBRANCH   5  18
BRANCH   3  22
ATOM     22  C   LIG d   1       3.984  82.700 109.519  0.00  0.00     0.382 C 
ATOM     23  O   LIG d   1       4.257  83.916 109.661  0.00  0.00    -0.241 OA
ATOM     24  O   LIG d   1       4.798  81.951 108.946  0.00  0.00    -0.241 OA
ENDBRANCH   3  22
TORSDOF 7
ENDMDL
MODEL 3
REMARK VINA RESULT:      -6.1      1.733      4.989
REMARK  7 active torsions:
REMARK  status: ('A' for Active; 'I' for Inactive)
REMARK    1  A    between atoms: C_2  and  C_3 
REMARK    2  A    between atoms: C_3  and  O_6 
REMARK    3  A    between atoms: C_3  and  C_4 
REMARK    4  A    between atoms: C_7  and  O_6 
REMARK    5  A    between atoms: C_9  and  C_10 
REMARK    6  A    between atoms: N_15  and  C_14 
REMARK    7  A    between atoms: N_20  and  C_19 
REMARK       I    between atoms: C_22  and  N_20 
ROOT
ATOM      1  C   LIG d   1       0.322  83.042 111.777  0.00  0.00     0.161 C 
ATOM      2  C   LIG d   1      -0.876  82.637 112.390  0.00  0.00     0.016 C 
ATOM      3  C   LIG d   1      -1.417  81.338 112.258  0.00  0.00     0.038 C 
ATOM      4  C   LIG d   1      -0.715  80.303 111.623  0.00  0.00     0.028 C 
ATOM      5  C   LIG d   1       0.259  80.796 110.559  0.00  0.00    -0.047 C 
ATOM      6  C   LIG d   1       1.158  81.894 111.172  0.00  0.00     0.091 C 
ENDROOT
BRANCH   1   7
ATOM      7  O   LIG d   1       1.115  83.803 112.709  0.00  0.00    -0.368 OA
BRANCH   7   8
ATOM      8  C   LIG d   1       1.206  85.226 112.455  0.00  0.00     0.119 C 
BRANCH   8   9
ATOM      9  C   LIG d   1       0.830  85.458 110.979  0.00  0.00     0.028 C 
ATOM     10  C   LIG d   1      -0.281  86.509 110.814  0.00  0.00     0.006 C 
ENDBRANCH   8   9
BRANCH   8  11
ATOM     11  C   LIG d   1       2.648  85.725 112.589  0.00  0.00     0.028 C 
ATOM     12  C   LIG d   1       3.386  85.785 111.242  0.00  0.00     0.006 C 
ENDBRANCH   8  11
ENDBRANCH   7   8
ENDBRANCH   1   7
BRANCH   6  13
ATOM     13  N   LIG d   1       2.084  82.491 110.174  0.00  0.00    -0.311 N 
ATOM     14  C   LIG d   1       3.361  82.131 110.052  0.00  0.00     0.210 C 
ATOM     15  C   LIG d   1       4.145  82.885 108.974  0.00  0.00     0.109 C 
ATOM     16  O   LIG d   1       3.909  81.236 110.712  0.00  0.00    -0.276 OA
ATOM     17  H   LIG d   1       1.713  83.203 109.576  0.00  0.00     0.149 HD
ENDBRANCH   6  13
BRANCH   5  18
ATOM     18  N   LIG d   1       1.021  79.628 110.077  0.00  0.00     0.381 N 
ATOM     19  H   LIG d   1       1.935  79.629 110.484  0.00  0.00    -0.090 HD
ATOM     20  H   LIG d   1       1.120  79.695 109.079  0.00  0.00    -0.090 HD
ATOM     21  H   LIG d   1       0.543  78.787 110.315  0.00  0.00    -0.090 HD
ENDBRANCH   5  18
BRANCH   3  22
ATOM     22  C   LIG d   1      -2.694  81.074 112.732  0.00  0.00     0.382 C 
ATOM     23  O   LIG d   1      -3.652  81.810 112.394  0.00  0.00    -0.241 OA
ATOM     24  O   LIG d   1      -2.891  80.136 113.528  0.00  0.00    -0.241 OA
ENDBRANCH   3  22
TORSDOF 7
ENDMDL
MODEL 4
REMARK VINA RESULT:      -5.9      2.614      5.373
REMARK  7 active torsions:
REMARK  status: ('A' for Active; 'I' for Inactive)
REMARK    1  A    between atoms: C_2  and  C_3 
REMARK    2  A    between atoms: C_3  and  O_6 
REMARK    3  A    between atoms: C_3  and  C_4 
REMARK    4  A    between atoms: C_7  and  O_6 
REMARK    5  A    between atoms: C_9  and  C_10 
REMARK    6  A    between atoms: N_15  and  C_14 
REMARK    7  A    between atoms: N_20  and  C_19 
REMARK       I    between atoms: C_22  and  N_20 
ROOT
ATOM      1  C   LIG d   1       1.603  84.199 111.813  0.00  0.00     0.161 C 
ATOM      2  C   LIG d   1       0.601  83.215 111.814  0.00  0.00     0.016 C 
ATOM      3  C   LIG d   1      -0.461  83.185 112.747  0.00  0.00     0.038 C 
ATOM      4  C   LIG d   1      -0.678  84.232 113.656  0.00  0.00     0.028 C 
ATOM      5  C   LIG d   1       0.594  84.988 114.024  0.00  0.00    -0.047 C 
ATOM      6  C   LIG d   1       1.320  85.410 112.727  0.00  0.00     0.091 C 
ENDROOT
BRANCH   1   7
ATOM      7  O   LIG d   1       1.856  84.638 110.464  0.00  0.00    -0.368 OA
BRANCH   7   8
ATOM      8  C   LIG d   1       0.851  84.288 109.480  0.00  0.00     0.119 C 
BRANCH   8   9
ATOM      9  C   LIG d   1       1.573  83.595 108.308  0.00  0.00     0.028 C 
ATOM     10  C   LIG d   1       2.790  82.776 108.770  0.00  0.00     0.006 C 
ENDBRANCH   8   9
BRANCH   8  11
ATOM     11  C   LIG d   1       0.203  85.537 108.876  0.00  0.00     0.028 C 
ATOM     12  C   LIG d   1      -0.852  86.167 109.800  0.00  0.00     0.006 C 
ENDBRANCH   8  11
ENDBRANCH   7   8
ENDBRANCH   1   7
BRANCH   6  13
ATOM     13  N   LIG d   1       2.618  86.083 112.997  0.00  0.00    -0.311 N 
ATOM     14  C   LIG d   1       2.900  87.320 112.593  0.00  0.00     0.210 C 
ATOM     15  C   LIG d   1       4.303  87.815 112.959  0.00  0.00     0.109 C 
ATOM     16  O   LIG d   1       2.111  88.066 111.995  0.00  0.00    -0.276 OA
ATOM     17  H   LIG d   1       3.305  85.561 113.504  0.00  0.00     0.149 HD
ENDBRANCH   6  13
BRANCH   5  18
ATOM     18  N   LIG d   1       0.202  86.134 114.867  0.00  0.00     0.381 N 
ATOM     19  H   LIG d   1      -0.775  86.083 115.076  0.00  0.00    -0.090 HD
ATOM     20  H   LIG d   1       0.372  86.984 114.359  0.00  0.00    -0.090 HD
ATOM     21  H   LIG d   1       0.731  86.132 115.712  0.00  0.00    -0.090 HD
ENDBRANCH   5  18
BRANCH   3  22
ATOM     22  C   LIG d   1      -1.296  82.080 112.803  0.00  0.00     0.382 C 
ATOM     23  O   LIG d   1      -1.043  81.143 113.598  0.00  0.00    -0.241 OA
ATOM     24  O   LIG d   1      -2.274  81.987 112.038  0.00  0.00    -0.241 OA
ENDBRANCH   3  22
TORSDOF 7
ENDMDL
MODEL 5
REMARK VINA RESULT:      -5.7      2.785      5.285
REMARK  7 active torsions:
REMARK  status: ('A' for Active; 'I' for Inactive)
REMARK    1  A    between atoms: C_2  and  C_3 
REMARK    2  A    between atoms: C_3  and  O_6 
REMARK    3  A    between atoms: C_3  and  C_4 
REMARK    4  A    between atoms: C_7  and  O_6 
REMARK    5  A    between atoms: C_9  and  C_10 
REMARK    6  A    between atoms: N_15  and  C_14 
REMARK    7  A    between atoms: N_20  and  C_19 
REMARK       I    between atoms: C_22  and  N_20 
ROOT
ATOM      1  C   LIG d   1       3.279  85.037 112.064  0.00  0.00     0.161 C 
ATOM      2  C   LIG d   1       3.970  86.260 112.052  0.00  0.00     0.016 C 
ATOM      3  C   LIG d   1       3.970  87.164 113.139  0.00  0.00     0.038 C 
ATOM      4  C   LIG d   1       3.398  86.835 114.377  0.00  0.00     0.028 C 
ATOM      5  C   LIG d   1       2.260  85.827 114.270  0.00  0.00    -0.047 C 
ATOM      6  C   LIG d   1       2.742  84.611 113.447  0.00  0.00     0.091 C 
ENDROOT
BRANCH   1   7
ATOM      7  O   LIG d   1       4.112  84.000 111.509  0.00  0.00    -0.368 OA
BRANCH   7   8
ATOM      8  C   LIG d   1       3.524  83.210 110.446  0.00  0.00     0.119 C 
BRANCH   8   9
ATOM      9  C   LIG d   1       4.621  82.960 109.393  0.00  0.00     0.028 C 
ATOM     10  C   LIG d   1       4.526  81.558 108.769  0.00  0.00     0.006 C 
ENDBRANCH   8   9
BRANCH   8  11
ATOM     11  C   LIG d   1       2.428  83.991 109.713  0.00  0.00     0.028 C 
ATOM     12  C   LIG d   1       1.169  83.149 109.453  0.00  0.00     0.006 C 
ENDBRANCH   8  11
ENDBRANCH   7   8
ENDBRANCH   1   7
BRANCH   6  13
ATOM     13  N   LIG d   1       1.663  83.614 113.222  0.00  0.00    -0.311 N 
ATOM     14  C   LIG d   1       1.792  82.318 113.502  0.00  0.00     0.210 C 
ATOM     15  C   LIG d   1       0.566  81.461 113.176  0.00  0.00     0.109 C 
ATOM     16  O   LIG d   1       2.795  81.803 114.020  0.00  0.00    -0.276 OA
ATOM     17  H   LIG d   1       0.804  83.951 112.834  0.00  0.00     0.149 HD
ENDBRANCH   6  13
BRANCH   5  18
ATOM     18  N   LIG d   1       1.850  85.470 115.642  0.00  0.00     0.381 N 
ATOM     19  H   LIG d   1       2.492  84.806 116.025  0.00  0.00    -0.090 HD
ATOM     20  H   LIG d   1       0.939  85.046 115.609  0.00  0.00    -0.090 HD
ATOM     21  H   LIG d   1       1.823  86.286 116.213  0.00  0.00    -0.090 HD
ENDBRANCH   5  18
BRANCH   3  22
ATOM     22  C   LIG d   1       4.512  88.431 112.980  0.00  0.00     0.382 C 
ATOM     23  O   LIG d   1       3.779  89.444 113.080  0.00  0.00    -0.241 OA
ATOM     24  O   LIG d   1       5.716  88.571 112.692  0.00  0.00    -0.241 OA
ENDBRANCH   3  22
TORSDOF 7
ENDMDL
MODEL 6
REMARK VINA RESULT:      -5.7      1.849      4.645
REMARK  7 active torsions:
REMARK  status: ('A' for Active; 'I' for Inactive)
REMARK    1  A    between atoms: C_2  and  C_3 
REMARK    2  A    between atoms: C_3  and  O_6 
REMARK    3  A    between atoms: C_3  and  C_4 
REMARK    4  A    between atoms: C_7  and  O_6 
REMARK    5  A    between atoms: C_9  and  C_10 
REMARK    6  A    between atoms: N_15  and  C_14 
REMARK    7  A    between atoms: N_20  and  C_19 
REMARK       I    between atoms: C_22  and  N_20 
ROOT
ATOM      1  C   LIG d   1       1.806  83.805 111.158  0.00  0.00     0.161 C 
ATOM      2  C   LIG d   1       2.292  85.119 111.053  0.00  0.00     0.016 C 
ATOM      3  C   LIG d   1       2.376  86.007 112.150  0.00  0.00     0.038 C 
ATOM      4  C   LIG d   1       2.119  85.590 113.464  0.00  0.00     0.028 C 
ATOM      5  C   LIG d   1       1.143  84.421 113.548  0.00  0.00    -0.047 C 
ATOM      6  C   LIG d   1       1.625  83.296 112.604  0.00  0.00     0.091 C 
ENDROOT
BRANCH   1   7
ATOM      7  O   LIG d   1       2.654  82.909 110.414  0.00  0.00    -0.368 OA
BRANCH   7   8
ATOM      8  C   LIG d   1       2.263  82.652 109.043  0.00  0.00     0.119 C 
BRANCH   8   9
ATOM      9  C   LIG d   1       1.226  81.513 109.062  0.00  0.00     0.028 C 
ATOM     10  C   LIG d   1       1.836  80.172 109.504  0.00  0.00     0.006 C 
ENDBRANCH   8   9
BRANCH   8  11
ATOM     11  C   LIG d   1       3.439  82.117 108.219  0.00  0.00     0.028 C 
ATOM     12  C   LIG d   1       4.804  82.485 108.821  0.00  0.00     0.006 C 
ENDBRANCH   8  11
ENDBRANCH   7   8
ENDBRANCH   1   7
BRANCH   6  13
ATOM     13  N   LIG d   1       0.681  82.149 112.562  0.00  0.00    -0.311 N 
ATOM     14  C   LIG d   1      -0.598  82.264 112.208  0.00  0.00     0.210 C 
ATOM     15  C   LIG d   1      -1.401  80.960 112.252  0.00  0.00     0.109 C 
ATOM     16  O   LIG d   1      -1.135  83.316 111.831  0.00  0.00    -0.276 OA
ATOM     17  H   LIG d   1       1.042  81.252 112.822  0.00  0.00     0.149 HD
ENDBRANCH   6  13
BRANCH   5  18
ATOM     18  N   LIG d   1       1.072  84.000 114.960  0.00  0.00     0.381 N 
ATOM     19  H   LIG d   1       0.243  83.461 115.111  0.00  0.00    -0.090 HD
ATOM     20  H   LIG d   1       1.026  84.819 115.541  0.00  0.00    -0.090 HD
ATOM     21  H   LIG d   1       1.876  83.461 115.196  0.00  0.00    -0.090 HD
ENDBRANCH   5  18
BRANCH   3  22
ATOM     22  C   LIG d   1       2.684  87.342 111.931  0.00  0.00     0.382 C 
ATOM     23  O   LIG d   1       3.882  87.713 111.906  0.00  0.00    -0.241 OA
ATOM     24  O   LIG d   1       1.777  88.186 111.802  0.00  0.00    -0.241 OA
ENDBRANCH   3  22
TORSDOF 7
ENDMDL
MODEL 7
REMARK VINA RESULT:      -5.6      2.640      4.608
REMARK  7 active torsions:
REMARK  status: ('A' for Active; 'I' for Inactive)
REMARK    1  A    between atoms: C_2  and  C_3 
REMARK    2  A    between atoms: C_3  and  O_6 
REMARK    3  A    between atoms: C_3  and  C_4 
REMARK    4  A    between atoms: C_7  and  O_6 
REMARK    5  A    between atoms: C_9  and  C_10 
REMARK    6  A    between atoms: N_15  and  C_14 
REMARK    7  A    between atoms: N_20  and  C_19 
REMARK       I    between atoms: C_22  and  N_20 
ROOT
ATOM      1  C   LIG d   1       3.047  83.549 111.751  0.00  0.00     0.161 C 
ATOM      2  C   LIG d   1       3.150  84.898 112.131  0.00  0.00     0.016 C 
ATOM      3  C   LIG d   1       2.517  85.953 111.435  0.00  0.00     0.038 C 
ATOM      4  C   LIG d   1       1.609  85.714 110.393  0.00  0.00     0.028 C 
ATOM      5  C   LIG d   1       1.867  84.406 109.653  0.00  0.00    -0.047 C 
ATOM      6  C   LIG d   1       1.972  83.259 110.684  0.00  0.00     0.091 C 
ENDROOT
BRANCH   1   7
ATOM      7  O   LIG d   1       2.832  82.729 112.916  0.00  0.00    -0.368 OA
BRANCH   7   8
ATOM      8  C   LIG d   1       2.251  83.393 114.066  0.00  0.00     0.119 C 
BRANCH   8   9
ATOM      9  C   LIG d   1       3.014  82.910 115.314  0.00  0.00     0.028 C 
ATOM     10  C   LIG d   1       4.220  83.804 115.647  0.00  0.00     0.006 C 
ENDBRANCH   8   9
BRANCH   8  11
ATOM     11  C   LIG d   1       0.799  82.958 114.285  0.00  0.00     0.028 C 
ATOM     12  C   LIG d   1      -0.133  84.137 114.610  0.00  0.00     0.006 C 
ENDBRANCH   8  11
ENDBRANCH   7   8
ENDBRANCH   1   7
BRANCH   6  13
ATOM     13  N   LIG d   1       2.307  81.956 110.051  0.00  0.00    -0.311 N 
ATOM     14  C   LIG d   1       1.391  81.058 109.693  0.00  0.00     0.210 C 
ATOM     15  C   LIG d   1       1.953  79.773 109.076  0.00  0.00     0.109 C 
ATOM     16  O   LIG d   1       0.166  81.216 109.800  0.00  0.00    -0.276 OA
ATOM     17  H   LIG d   1       3.277  81.759 109.899  0.00  0.00     0.149 HD
ENDBRANCH   6  13
BRANCH   5  18
ATOM     18  N   LIG d   1       0.769  84.216 108.687  0.00  0.00     0.381 N 
ATOM     19  H   LIG d   1       0.014  83.725 109.124  0.00  0.00    -0.090 HD
ATOM     20  H   LIG d   1       1.103  83.661 107.919  0.00  0.00    -0.090 HD
ATOM     21  H   LIG d   1       0.451  85.100 108.354  0.00  0.00    -0.090 HD
ENDBRANCH   5  18
BRANCH   3  22
ATOM     22  C   LIG d   1       2.822  87.268 111.755  0.00  0.00     0.382 C 
ATOM     23  O   LIG d   1       1.903  88.115 111.865  0.00  0.00    -0.241 OA
ATOM     24  O   LIG d   1       4.007  87.626 111.890  0.00  0.00    -0.241 OA
ENDBRANCH   3  22
TORSDOF 7
ENDMDL
MODEL 8
REMARK VINA RESULT:      -5.5      2.657      5.410
REMARK  7 active torsions:
REMARK  status: ('A' for Active; 'I' for Inactive)
REMARK    1  A    between atoms: C_2  and  C_3 
REMARK    2  A    between atoms: C_3  and  O_6 
REMARK    3  A    between atoms: C_3  and  C_4 
REMARK    4  A    between atoms: C_7  and  O_6 
REMARK    5  A    between atoms: C_9  and  C_10 
REMARK    6  A    between atoms: N_15  and  C_14 
REMARK    7  A    between atoms: N_20  and  C_19 
REMARK       I    between atoms: C_22  and  N_20 
ROOT
ATOM      1  C   LIG d   1      -0.237  81.310 111.744  0.00  0.00     0.161 C 
ATOM      2  C   LIG d   1      -0.894  80.069 111.704  0.00  0.00     0.016 C 
ATOM      3  C   LIG d   1      -1.896  79.689 112.625  0.00  0.00     0.038 C 
ATOM      4  C   LIG d   1      -2.421  80.590 113.564  0.00  0.00     0.028 C 
ATOM      5  C   LIG d   1      -1.438  81.683 113.968  0.00  0.00    -0.047 C 
ATOM      6  C   LIG d   1      -0.873  82.348 112.692  0.00  0.00     0.091 C 
ENDROOT
BRANCH   1   7
ATOM      7  O   LIG d   1      -0.128  81.849 110.411  0.00  0.00    -0.368 OA
BRANCH   7   8
ATOM      8  C   LIG d   1       1.106  81.565 109.708  0.00  0.00     0.119 C 
BRANCH   8   9
ATOM      9  C   LIG d   1       2.216  81.409 110.765  0.00  0.00     0.028 C 
ATOM     10  C   LIG d   1       3.604  81.205 110.133  0.00  0.00     0.006 C 
ENDBRANCH   8   9
BRANCH   8  11
ATOM     11  C   LIG d   1       1.537  82.749 108.838  0.00  0.00     0.028 C 
ATOM     12  C   LIG d   1       1.177  84.108 109.460  0.00  0.00     0.006 C 
ENDBRANCH   8  11
ENDBRANCH   7   8
ENDBRANCH   1   7
BRANCH   6  13
ATOM     13  N   LIG d   1       0.160  83.372 112.995  0.00  0.00    -0.311 N 
ATOM     14  C   LIG d   1      -0.111  84.670 113.128  0.00  0.00     0.210 C 
ATOM     15  C   LIG d   1       1.103  85.557 113.421  0.00  0.00     0.109 C 
ATOM     16  O   LIG d   1      -1.246  85.165 113.063  0.00  0.00    -0.276 OA
ATOM     17  H   LIG d   1       1.103  83.053 113.095  0.00  0.00     0.149 HD
ENDBRANCH   6  13
BRANCH   5  18
ATOM     18  N   LIG d   1      -2.157  82.629 114.842  0.00  0.00     0.381 N 
ATOM     19  H   LIG d   1      -2.783  83.187 114.296  0.00  0.00    -0.090 HD
ATOM     20  H   LIG d   1      -1.490  83.240 115.280  0.00  0.00    -0.090 HD
ATOM     21  H   LIG d   1      -2.668  82.130 115.537  0.00  0.00    -0.090 HD
ENDBRANCH   5  18
BRANCH   3  22
ATOM     22  C   LIG d   1      -2.357  78.381 112.639  0.00  0.00     0.382 C 
ATOM     23  O   LIG d   1      -3.503  78.116 112.202  0.00  0.00    -0.241 OA
ATOM     24  O   LIG d   1      -1.659  77.470 113.123  0.00  0.00    -0.241 OA
ENDBRANCH   3  22
TORSDOF 7
ENDMDL
MODEL 9
REMARK VINA RESULT:      -5.5      2.825      4.469
REMARK  7 active torsions:
REMARK  status: ('A' for Active; 'I' for Inactive)
REMARK    1  A    between atoms: C_2  and  C_3 
REMARK    2  A    between atoms: C_3  and  O_6 
REMARK    3  A    between atoms: C_3  and  C_4 
REMARK    4  A    between atoms: C_7  and  O_6 
REMARK    5  A    between atoms: C_9  and  C_10 
REMARK    6  A    between atoms: N_15  and  C_14 
REMARK    7  A    between atoms: N_20  and  C_19 
REMARK       I    between atoms: C_22  and  N_20 
ROOT
ATOM      1  C   LIG d   1       1.162  84.093 113.375  0.00  0.00     0.161 C 
ATOM      2  C   LIG d   1       1.766  85.351 113.215  0.00  0.00     0.016 C 
ATOM      3  C   LIG d   1       1.771  86.062 111.992  0.00  0.00     0.038 C 
ATOM      4  C   LIG d   1       1.036  85.627 110.879  0.00  0.00     0.028 C 
ATOM      5  C   LIG d   1       0.830  84.117 110.842  0.00  0.00    -0.047 C 
ATOM      6  C   LIG d   1       0.260  83.654 112.202  0.00  0.00     0.091 C 
ENDROOT
BRANCH   1   7
ATOM      7  O   LIG d   1       0.425  84.060 114.613  0.00  0.00    -0.368 OA
BRANCH   7   8
ATOM      8  C   LIG d   1      -0.383  85.226 114.906  0.00  0.00     0.119 C 
BRANCH   8   9
ATOM      9  C   LIG d   1      -0.020  85.695 116.328  0.00  0.00     0.028 C 
ATOM     10  C   LIG d   1       1.041  84.800 116.989  0.00  0.00     0.006 C 
ENDBRANCH   8   9
BRANCH   8  11
ATOM     11  C   LIG d   1      -1.872  84.872 114.964  0.00  0.00     0.028 C 
ATOM     12  C   LIG d   1      -2.120  83.375 115.206  0.00  0.00     0.006 C 
ENDBRANCH   8  11
ENDBRANCH   7   8
ENDBRANCH   1   7
BRANCH   6  13
ATOM     13  N   LIG d   1       0.107  82.178 112.281  0.00  0.00    -0.311 N 
ATOM     14  C   LIG d   1      -1.068  81.557 112.191  0.00  0.00     0.210 C 
ATOM     15  C   LIG d   1      -1.004  80.032 112.317  0.00  0.00     0.109 C 
ATOM     16  O   LIG d   1      -2.153  82.122 111.987  0.00  0.00    -0.276 OA
ATOM     17  H   LIG d   1       0.940  81.640 112.414  0.00  0.00     0.149 HD
ENDBRANCH   6  13
BRANCH   5  18
ATOM     18  N   LIG d   1      -0.066  83.817 109.708  0.00  0.00     0.381 N 
ATOM     19  H   LIG d   1      -0.594  84.633 109.469  0.00  0.00    -0.090 HD
ATOM     20  H   LIG d   1      -0.708  83.095 109.983  0.00  0.00    -0.090 HD
ATOM     21  H   LIG d   1       0.468  83.516 108.923  0.00  0.00    -0.090 HD
ENDBRANCH   5  18
BRANCH   3  22
ATOM     22  C   LIG d   1       2.550  87.201 111.863  0.00  0.00     0.382 C 
ATOM     23  O   LIG d   1       2.028  88.335 111.986  0.00  0.00    -0.241 OA
ATOM     24  O   LIG d   1       3.760  87.111 111.582  0.00  0.00    -0.241 OA
ENDBRANCH   3  22
TORSDOF 7
ENDMDL
