MODEL 1
REMARK VINA RESULT:      -5.9      0.000      0.000
REMARK  7 active torsions:
REMARK  status: ('A' for Active; 'I' for Inactive)
REMARK    1  A    between atoms: C_2  and  C_3 
REMARK    2  A    between atoms: C_3  and  O_6 
REMARK    3  A    between atoms: C_3  and  C_4 
REMARK    4  A    between atoms: C_7  and  O_6 
REMARK    5  A    between atoms: C_9  and  C_10 
REMARK    6  A    between atoms: N_15  and  C_14 
REMARK    7  A    between atoms: N_20  and  C_19 
REMARK       I    between atoms: C_22  and  N_20 
ROOT
ATOM      1  C   LIG d   1       2.363  86.553 112.418  0.00  0.00     0.161 C 
ATOM      2  C   LIG d   1       3.346  87.550 112.299  0.00  0.00     0.016 C 
ATOM      3  C   LIG d   1       4.149  87.983 113.379  0.00  0.00     0.038 C 
ATOM      4  C   LIG d   1       4.128  87.338 114.624  0.00  0.00     0.028 C 
ATOM      5  C   LIG d   1       2.796  86.663 114.934  0.00  0.00    -0.047 C 
ATOM      6  C   LIG d   1       2.402  85.761 113.741  0.00  0.00     0.091 C 
ENDROOT
BRANCH   1   7
ATOM      7  O   LIG d   1       2.441  85.654 111.293  0.00  0.00    -0.368 OA
BRANCH   7   8
ATOM      8  C   LIG d   1       1.575  85.959 110.173  0.00  0.00     0.119 C 
BRANCH   8   9
ATOM      9  C   LIG d   1       0.215  86.404 110.745  0.00  0.00     0.028 C 
ATOM     10  C   LIG d   1      -0.971  85.754 110.014  0.00  0.00     0.006 C 
ENDBRANCH   8   9
BRANCH   8  11
ATOM     11  C   LIG d   1       1.275  84.707 109.343  0.00  0.00     0.028 C 
ATOM     12  C   LIG d   1       2.258  83.558 109.622  0.00  0.00     0.006 C 
ENDBRANCH   8  11
ENDBRANCH   7   8
ENDBRANCH   1   7
BRANCH   6  13
ATOM     13  N   LIG d   1       1.070  85.128 113.925  0.00  0.00    -0.311 N 
ATOM     14  C   LIG d   1       0.814  83.857 113.618  0.00  0.00     0.210 C 
ATOM     15  C   LIG d   1      -0.630  83.411 113.867  0.00  0.00     0.109 C 
ATOM     16  O   LIG d   1       1.653  83.049 113.193  0.00  0.00    -0.276 OA
ATOM     17  H   LIG d   1       0.339  85.703 114.295  0.00  0.00     0.149 HD
ENDBRANCH   6  13
BRANCH   5  18
ATOM     18  N   LIG d   1       2.957  85.915 116.195  0.00  0.00     0.381 N 
ATOM     19  H   LIG d   1       2.329  85.137 116.210  0.00  0.00    -0.090 HD
ATOM     20  H   LIG d   1       2.728  86.521 116.963  0.00  0.00    -0.090 HD
ATOM     21  H   LIG d   1       3.897  85.595 116.284  0.00  0.00    -0.090 HD
ENDBRANCH   5  18
BRANCH   3  22
ATOM     22  C   LIG d   1       4.958  89.100 113.229  0.00  0.00     0.382 C 
ATOM     23  O   LIG d   1       4.555  90.222 113.617  0.00  0.00    -0.241 OA
ATOM     24  O   LIG d   1       6.067  89.006 112.670  0.00  0.00    -0.241 OA
ENDBRANCH   3  22
TORSDOF 7
ENDMDL
MODEL 2
REMARK VINA RESULT:      -5.8      0.998      1.866
REMARK  7 active torsions:
REMARK  status: ('A' for Active; 'I' for Inactive)
REMARK    1  A    between atoms: C_2  and  C_3 
REMARK    2  A    between atoms: C_3  and  O_6 
REMARK    3  A    between atoms: C_3  and  C_4 
REMARK    4  A    between atoms: C_7  and  O_6 
REMARK    5  A    between atoms: C_9  and  C_10 
REMARK    6  A    between atoms: N_15  and  C_14 
REMARK    7  A    between atoms: N_20  and  C_19 
REMARK       I    between atoms: C_22  and  N_20 
ROOT
ATOM      1  C   LIG d   1       2.853  86.148 112.589  0.00  0.00     0.161 C 
ATOM      2  C   LIG d   1       3.716  87.236 112.379  0.00  0.00     0.016 C 
ATOM      3  C   LIG d   1       4.396  87.903 113.424  0.00  0.00     0.038 C 
ATOM      4  C   LIG d   1       4.377  87.427 114.744  0.00  0.00     0.028 C 
ATOM      5  C   LIG d   1       3.119  86.635 115.084  0.00  0.00    -0.047 C 
ATOM      6  C   LIG d   1       2.907  85.544 114.009  0.00  0.00     0.091 C 
ENDROOT
BRANCH   1   7
ATOM      7  O   LIG d   1       3.103  85.128 111.602  0.00  0.00    -0.368 OA
BRANCH   7   8
ATOM      8  C   LIG d   1       1.980  84.765 110.762  0.00  0.00     0.119 C 
BRANCH   8   9
ATOM      9  C   LIG d   1       2.521  83.880 109.623  0.00  0.00     0.028 C 
ATOM     10  C   LIG d   1       3.901  83.282 109.948  0.00  0.00     0.006 C 
ENDBRANCH   8   9
BRANCH   8  11
ATOM     11  C   LIG d   1       1.381  85.994 110.070  0.00  0.00     0.028 C 
ATOM     12  C   LIG d   1       0.072  85.681 109.329  0.00  0.00     0.006 C 
ENDBRANCH   8  11
ENDBRANCH   7   8
ENDBRANCH   1   7
BRANCH   6  13
ATOM     13  N   LIG d   1       1.651  84.778 114.219  0.00  0.00    -0.311 N 
ATOM     14  C   LIG d   1       1.598  83.627 114.888  0.00  0.00     0.210 C 
ATOM     15  C   LIG d   1       0.207  82.991 114.971  0.00  0.00     0.109 C 
ATOM     16  O   LIG d   1       2.565  83.090 115.448  0.00  0.00    -0.276 OA
ATOM     17  H   LIG d   1       0.813  85.158 113.825  0.00  0.00     0.149 HD
ENDBRANCH   6  13
BRANCH   5  18
ATOM     18  N   LIG d   1       3.293  86.082 116.440  0.00  0.00     0.381 N 
ATOM     19  H   LIG d   1       2.448  86.198 116.964  0.00  0.00    -0.090 HD
ATOM     20  H   LIG d   1       4.025  86.590 116.906  0.00  0.00    -0.090 HD
ATOM     21  H   LIG d   1       3.530  85.116 116.388  0.00  0.00    -0.090 HD
ENDBRANCH   5  18
BRANCH   3  22
ATOM     22  C   LIG d   1       5.074  89.083 113.160  0.00  0.00     0.382 C 
ATOM     23  O   LIG d   1       4.502  90.187 113.333  0.00  0.00    -0.241 OA
ATOM     24  O   LIG d   1       6.234  89.058 112.708  0.00  0.00    -0.241 OA
ENDBRANCH   3  22
TORSDOF 7
ENDMDL
MODEL 3
REMARK VINA RESULT:      -5.8      3.858      5.404
REMARK  7 active torsions:
REMARK  status: ('A' for Active; 'I' for Inactive)
REMARK    1  A    between atoms: C_2  and  C_3 
REMARK    2  A    between atoms: C_3  and  O_6 
REMARK    3  A    between atoms: C_3  and  C_4 
REMARK    4  A    between atoms: C_7  and  O_6 
REMARK    5  A    between atoms: C_9  and  C_10 
REMARK    6  A    between atoms: N_15  and  C_14 
REMARK    7  A    between atoms: N_20  and  C_19 
REMARK       I    between atoms: C_22  and  N_20 
ROOT
ATOM      1  C   LIG d   1      -0.269  82.676 110.676  0.00  0.00     0.161 C 
ATOM      2  C   LIG d   1      -0.094  84.043 110.944  0.00  0.00     0.016 C 
ATOM      3  C   LIG d   1      -0.385  84.634 112.195  0.00  0.00     0.038 C 
ATOM      4  C   LIG d   1      -0.729  83.864 113.316  0.00  0.00     0.028 C 
ATOM      5  C   LIG d   1      -1.405  82.545 112.961  0.00  0.00    -0.047 C 
ATOM      6  C   LIG d   1      -0.538  81.802 111.919  0.00  0.00     0.091 C 
ENDROOT
BRANCH   1   7
ATOM      7  O   LIG d   1       0.867  82.172 109.945  0.00  0.00    -0.368 OA
BRANCH   7   8
ATOM      8  C   LIG d   1       2.100  82.043 110.695  0.00  0.00     0.119 C 
BRANCH   8   9
ATOM      9  C   LIG d   1       3.172  82.882 109.971  0.00  0.00     0.028 C 
ATOM     10  C   LIG d   1       3.673  84.058 110.826  0.00  0.00     0.006 C 
ENDBRANCH   8   9
BRANCH   8  11
ATOM     11  C   LIG d   1       2.623  80.604 110.665  0.00  0.00     0.028 C 
ATOM     12  C   LIG d   1       1.878  79.720 109.652  0.00  0.00     0.006 C 
ENDBRANCH   8  11
ENDBRANCH   7   8
ENDBRANCH   1   7
BRANCH   6  13
ATOM     13  N   LIG d   1      -1.169  80.539 111.453  0.00  0.00    -0.311 N 
ATOM     14  C   LIG d   1      -1.111  79.396 112.134  0.00  0.00     0.210 C 
ATOM     15  C   LIG d   1      -1.812  78.209 111.465  0.00  0.00     0.109 C 
ATOM     16  O   LIG d   1      -0.574  79.260 113.243  0.00  0.00    -0.276 OA
ATOM     17  H   LIG d   1      -1.653  80.567 110.577  0.00  0.00     0.149 HD
ENDBRANCH   6  13
BRANCH   5  18
ATOM     18  N   LIG d   1      -1.584  81.784 114.212  0.00  0.00     0.381 N 
ATOM     19  H   LIG d   1      -2.220  82.268 114.814  0.00  0.00    -0.090 HD
ATOM     20  H   LIG d   1      -0.697  81.714 114.679  0.00  0.00    -0.090 HD
ATOM     21  H   LIG d   1      -1.934  80.873 114.010  0.00  0.00    -0.090 HD
ENDBRANCH   5  18
BRANCH   3  22
ATOM     22  C   LIG d   1      -0.370  86.015 112.324  0.00  0.00     0.382 C 
ATOM     23  O   LIG d   1       0.591  86.581 112.898  0.00  0.00    -0.241 OA
ATOM     24  O   LIG d   1      -1.327  86.697 111.912  0.00  0.00    -0.241 OA
ENDBRANCH   3  22
TORSDOF 7
ENDMDL
MODEL 4
REMARK VINA RESULT:      -5.7      3.822      7.614
REMARK  7 active torsions:
REMARK  status: ('A' for Active; 'I' for Inactive)
REMARK    1  A    between atoms: C_2  and  C_3 
REMARK    2  A    between atoms: C_3  and  O_6 
REMARK    3  A    between atoms: C_3  and  C_4 
REMARK    4  A    between atoms: C_7  and  O_6 
REMARK    5  A    between atoms: C_9  and  C_10 
REMARK    6  A    between atoms: N_15  and  C_14 
REMARK    7  A    between atoms: N_20  and  C_19 
REMARK       I    between atoms: C_22  and  N_20 
ROOT
ATOM      1  C   LIG d   1       0.232  81.172 111.139  0.00  0.00     0.161 C 
ATOM      2  C   LIG d   1      -0.411  79.940 110.929  0.00  0.00     0.016 C 
ATOM      3  C   LIG d   1      -1.478  79.473 111.731  0.00  0.00     0.038 C 
ATOM      4  C   LIG d   1      -2.078  80.280 112.710  0.00  0.00     0.028 C 
ATOM      5  C   LIG d   1      -1.137  81.328 113.291  0.00  0.00    -0.047 C 
ATOM      6  C   LIG d   1      -0.482  82.113 112.132  0.00  0.00     0.091 C 
ENDROOT
BRANCH   1   7
ATOM      7  O   LIG d   1       0.437  81.837 109.877  0.00  0.00    -0.368 OA
BRANCH   7   8
ATOM      8  C   LIG d   1       1.809  81.926 109.420  0.00  0.00     0.119 C 
BRANCH   8   9
ATOM      9  C   LIG d   1       2.683  81.151 110.424  0.00  0.00     0.028 C 
ATOM     10  C   LIG d   1       3.378  79.938 109.783  0.00  0.00     0.006 C 
ENDBRANCH   8   9
BRANCH   8  11
ATOM     11  C   LIG d   1       2.319  83.370 109.467  0.00  0.00     0.028 C 
ATOM     12  C   LIG d   1       3.461  83.565 110.476  0.00  0.00     0.006 C 
ENDBRANCH   8  11
ENDBRANCH   7   8
ENDBRANCH   1   7
BRANCH   6  13
ATOM     13  N   LIG d   1       0.518  83.103 112.611  0.00  0.00    -0.311 N 
ATOM     14  C   LIG d   1       0.238  84.389 112.812  0.00  0.00     0.210 C 
ATOM     15  C   LIG d   1       1.418  85.242 113.288  0.00  0.00     0.109 C 
ATOM     16  O   LIG d   1      -0.884  84.899 112.673  0.00  0.00    -0.276 OA
ATOM     17  H   LIG d   1       1.447  82.768 112.779  0.00  0.00     0.149 HD
ENDBRANCH   6  13
BRANCH   5  18
ATOM     18  N   LIG d   1      -1.927  82.185 114.196  0.00  0.00     0.381 N 
ATOM     19  H   LIG d   1      -2.569  82.738 113.663  0.00  0.00    -0.090 HD
ATOM     20  H   LIG d   1      -1.305  82.806 114.682  0.00  0.00    -0.090 HD
ATOM     21  H   LIG d   1      -2.425  81.622 114.850  0.00  0.00    -0.090 HD
ENDBRANCH   5  18
BRANCH   3  22
ATOM     22  C   LIG d   1      -1.930  78.171 111.583  0.00  0.00     0.382 C 
ATOM     23  O   LIG d   1      -1.408  77.420 110.724  0.00  0.00    -0.241 OA
ATOM     24  O   LIG d   1      -2.882  77.751 112.267  0.00  0.00    -0.241 OA
ENDBRANCH   3  22
TORSDOF 7
ENDMDL
MODEL 5
REMARK VINA RESULT:      -5.5      3.958      6.610
REMARK  7 active torsions:
REMARK  status: ('A' for Active; 'I' for Inactive)
REMARK    1  A    between atoms: C_2  and  C_3 
REMARK    2  A    between atoms: C_3  and  O_6 
REMARK    3  A    between atoms: C_3  and  C_4 
REMARK    4  A    between atoms: C_7  and  O_6 
REMARK    5  A    between atoms: C_9  and  C_10 
REMARK    6  A    between atoms: N_15  and  C_14 
REMARK    7  A    between atoms: N_20  and  C_19 
REMARK       I    between atoms: C_22  and  N_20 
ROOT
ATOM      1  C   LIG d   1      -1.092  82.872 113.767  0.00  0.00     0.161 C 
ATOM      2  C   LIG d   1      -0.720  84.220 113.625  0.00  0.00     0.016 C 
ATOM      3  C   LIG d   1      -0.281  84.781 112.404  0.00  0.00     0.038 C 
ATOM      4  C   LIG d   1      -0.329  84.065 111.199  0.00  0.00     0.028 C 
ATOM      5  C   LIG d   1      -0.219  82.555 111.387  0.00  0.00    -0.047 C 
ATOM      6  C   LIG d   1      -1.256  82.103 112.440  0.00  0.00     0.091 C 
ENDROOT
BRANCH   1   7
ATOM      7  O   LIG d   1      -2.296  82.778 114.554  0.00  0.00    -0.368 OA
BRANCH   7   8
ATOM      8  C   LIG d   1      -2.137  82.281 115.905  0.00  0.00     0.119 C 
BRANCH   8   9
ATOM      9  C   LIG d   1      -0.689  81.775 116.045  0.00  0.00     0.028 C 
ATOM     10  C   LIG d   1      -0.029  82.240 117.354  0.00  0.00     0.006 C 
ENDBRANCH   8   9
BRANCH   8  11
ATOM     11  C   LIG d   1      -3.021  81.055 116.155  0.00  0.00     0.028 C 
ATOM     12  C   LIG d   1      -4.228  81.364 117.056  0.00  0.00     0.006 C 
ENDBRANCH   8  11
ENDBRANCH   7   8
ENDBRANCH   1   7
BRANCH   6  13
ATOM     13  N   LIG d   1      -1.158  80.652 112.745  0.00  0.00    -0.311 N 
ATOM     14  C   LIG d   1      -2.220  79.860 112.887  0.00  0.00     0.210 C 
ATOM     15  C   LIG d   1      -1.896  78.400 113.220  0.00  0.00     0.109 C 
ATOM     16  O   LIG d   1      -3.397  80.220 112.737  0.00  0.00    -0.276 OA
ATOM     17  H   LIG d   1      -0.239  80.270 112.852  0.00  0.00     0.149 HD
ENDBRANCH   6  13
BRANCH   5  18
ATOM     18  N   LIG d   1      -0.421  81.926 110.068  0.00  0.00     0.381 N 
ATOM     19  H   LIG d   1       0.350  82.142 109.468  0.00  0.00    -0.090 HD
ATOM     20  H   LIG d   1      -1.257  82.300 109.654  0.00  0.00    -0.090 HD
ATOM     21  H   LIG d   1      -0.506  80.939 110.171  0.00  0.00    -0.090 HD
ENDBRANCH   5  18
BRANCH   3  22
ATOM     22  C   LIG d   1       0.249  86.062 112.388  0.00  0.00     0.382 C 
ATOM     23  O   LIG d   1       0.386  86.697 113.461  0.00  0.00    -0.241 OA
ATOM     24  O   LIG d   1       0.552  86.607 111.310  0.00  0.00    -0.241 OA
ENDBRANCH   3  22
TORSDOF 7
ENDMDL
MODEL 6
REMARK VINA RESULT:      -5.4      3.112      6.816
REMARK  7 active torsions:
REMARK  status: ('A' for Active; 'I' for Inactive)
REMARK    1  A    between atoms: C_2  and  C_3 
REMARK    2  A    between atoms: C_3  and  O_6 
REMARK    3  A    between atoms: C_3  and  C_4 
REMARK    4  A    between atoms: C_7  and  O_6 
REMARK    5  A    between atoms: C_9  and  C_10 
REMARK    6  A    between atoms: N_15  and  C_14 
REMARK    7  A    between atoms: N_20  and  C_19 
REMARK       I    between atoms: C_22  and  N_20 
ROOT
ATOM      1  C   LIG d   1       1.318  82.792 111.292  0.00  0.00     0.161 C 
ATOM      2  C   LIG d   1       0.902  81.505 110.916  0.00  0.00     0.016 C 
ATOM      3  C   LIG d   1       1.657  80.658 110.073  0.00  0.00     0.038 C 
ATOM      4  C   LIG d   1       2.960  80.985 109.668  0.00  0.00     0.028 C 
ATOM      5  C   LIG d   1       3.216  82.487 109.609  0.00  0.00    -0.047 C 
ATOM      6  C   LIG d   1       2.786  83.123 110.951  0.00  0.00     0.091 C 
ENDROOT
BRANCH   1   7
ATOM      7  O   LIG d   1       1.073  82.994 112.698  0.00  0.00    -0.368 OA
BRANCH   7   8
ATOM      8  C   LIG d   1      -0.113  83.754 113.036  0.00  0.00     0.119 C 
BRANCH   8   9
ATOM      9  C   LIG d   1       0.350  85.065 113.701  0.00  0.00     0.028 C 
ATOM     10  C   LIG d   1      -0.514  86.269 113.290  0.00  0.00     0.006 C 
ENDBRANCH   8   9
BRANCH   8  11
ATOM     11  C   LIG d   1      -0.952  83.036 114.098  0.00  0.00     0.028 C 
ATOM     12  C   LIG d   1      -0.093  82.352 115.173  0.00  0.00     0.006 C 
ENDBRANCH   8  11
ENDBRANCH   7   8
ENDBRANCH   1   7
BRANCH   6  13
ATOM     13  N   LIG d   1       2.925  84.603 110.947  0.00  0.00    -0.311 N 
ATOM     14  C   LIG d   1       3.538  85.284 111.913  0.00  0.00     0.210 C 
ATOM     15  C   LIG d   1       3.552  86.804 111.724  0.00  0.00     0.109 C 
ATOM     16  O   LIG d   1       4.101  84.771 112.892  0.00  0.00    -0.276 OA
ATOM     17  H   LIG d   1       2.524  85.097 110.174  0.00  0.00     0.149 HD
ENDBRANCH   6  13
BRANCH   5  18
ATOM     18  N   LIG d   1       4.647  82.684 109.308  0.00  0.00     0.381 N 
ATOM     19  H   LIG d   1       5.082  81.799 109.141  0.00  0.00    -0.090 HD
ATOM     20  H   LIG d   1       5.090  83.109 110.103  0.00  0.00    -0.090 HD
ATOM     21  H   LIG d   1       4.750  83.269 108.508  0.00  0.00    -0.090 HD
ENDBRANCH   5  18
BRANCH   3  22
ATOM     22  C   LIG d   1       1.094  79.485 109.593  0.00  0.00     0.382 C 
ATOM     23  O   LIG d   1       1.827  78.509 109.306  0.00  0.00    -0.241 OA
ATOM     24  O   LIG d   1      -0.135  79.406 109.402  0.00  0.00    -0.241 OA
ENDBRANCH   3  22
TORSDOF 7
ENDMDL
MODEL 7
REMARK VINA RESULT:      -5.4      5.475      7.918
REMARK  7 active torsions:
REMARK  status: ('A' for Active; 'I' for Inactive)
REMARK    1  A    between atoms: C_2  and  C_3 
REMARK    2  A    between atoms: C_3  and  O_6 
REMARK    3  A    between atoms: C_3  and  C_4 
REMARK    4  A    between atoms: C_7  and  O_6 
REMARK    5  A    between atoms: C_9  and  C_10 
REMARK    6  A    between atoms: N_15  and  C_14 
REMARK    7  A    between atoms: N_20  and  C_19 
REMARK       I    between atoms: C_22  and  N_20 
ROOT
ATOM      1  C   LIG d   1      -2.672  81.347 112.978  0.00  0.00     0.161 C 
ATOM      2  C   LIG d   1      -3.040  81.712 114.283  0.00  0.00     0.016 C 
ATOM      3  C   LIG d   1      -2.737  80.934 115.424  0.00  0.00     0.038 C 
ATOM      4  C   LIG d   1      -1.908  79.804 115.352  0.00  0.00     0.028 C 
ATOM      5  C   LIG d   1      -1.935  79.119 113.989  0.00  0.00    -0.047 C 
ATOM      6  C   LIG d   1      -1.672  80.175 112.892  0.00  0.00     0.091 C 
ENDROOT
BRANCH   1   7
ATOM      7  O   LIG d   1      -2.159  82.496 112.275  0.00  0.00    -0.368 OA
BRANCH   7   8
ATOM      8  C   LIG d   1      -0.730  82.715 112.368  0.00  0.00     0.119 C 
BRANCH   8   9
ATOM      9  C   LIG d   1      -0.503  83.884 113.345  0.00  0.00     0.028 C 
ATOM     10  C   LIG d   1       0.377  83.486 114.542  0.00  0.00     0.006 C 
ENDBRANCH   8   9
BRANCH   8  11
ATOM     11  C   LIG d   1      -0.151  83.186 111.031  0.00  0.00     0.028 C 
ATOM     12  C   LIG d   1      -0.390  84.682 110.771  0.00  0.00     0.006 C 
ENDBRANCH   8  11
ENDBRANCH   7   8
ENDBRANCH   1   7
BRANCH   6  13
ATOM     13  N   LIG d   1      -1.764  79.605 111.522  0.00  0.00    -0.311 N 
ATOM     14  C   LIG d   1      -0.714  79.464 110.715  0.00  0.00     0.210 C 
ATOM     15  C   LIG d   1      -1.033  78.872 109.338  0.00  0.00     0.109 C 
ATOM     16  O   LIG d   1       0.455  79.742 111.019  0.00  0.00    -0.276 OA
ATOM     17  H   LIG d   1      -2.671  79.324 111.206  0.00  0.00     0.149 HD
ENDBRANCH   6  13
BRANCH   5  18
ATOM     18  N   LIG d   1      -0.925  78.044 114.011  0.00  0.00     0.381 N 
ATOM     19  H   LIG d   1      -0.402  78.054 113.159  0.00  0.00    -0.090 HD
ATOM     20  H   LIG d   1      -1.395  77.159 114.083  0.00  0.00    -0.090 HD
ATOM     21  H   LIG d   1      -0.313  78.167 114.787  0.00  0.00    -0.090 HD
ENDBRANCH   5  18
BRANCH   3  22
ATOM     22  C   LIG d   1      -3.299  81.261 116.648  0.00  0.00     0.382 C 
ATOM     23  O   LIG d   1      -2.565  81.412 117.655  0.00  0.00    -0.241 OA
ATOM     24  O   LIG d   1      -4.534  81.363 116.770  0.00  0.00    -0.241 OA
ENDBRANCH   3  22
TORSDOF 7
ENDMDL
MODEL 8
REMARK VINA RESULT:      -5.3      3.337      5.659
REMARK  7 active torsions:
REMARK  status: ('A' for Active; 'I' for Inactive)
REMARK    1  A    between atoms: C_2  and  C_3 
REMARK    2  A    between atoms: C_3  and  O_6 
REMARK    3  A    between atoms: C_3  and  C_4 
REMARK    4  A    between atoms: C_7  and  O_6 
REMARK    5  A    between atoms: C_9  and  C_10 
REMARK    6  A    between atoms: N_15  and  C_14 
REMARK    7  A    between atoms: N_20  and  C_19 
REMARK       I    between atoms: C_22  and  N_20 
ROOT
ATOM      1  C   LIG d   1      -0.601  83.284 112.779  0.00  0.00     0.161 C 
ATOM      2  C   LIG d   1      -0.054  84.289 113.595  0.00  0.00     0.016 C 
ATOM      3  C   LIG d   1       0.593  85.438 113.086  0.00  0.00     0.038 C 
ATOM      4  C   LIG d   1       0.605  85.736 111.715  0.00  0.00     0.028 C 
ATOM      5  C   LIG d   1       0.509  84.502 110.825  0.00  0.00    -0.047 C 
ATOM      6  C   LIG d   1      -0.695  83.647 111.282  0.00  0.00     0.091 C 
ENDROOT
BRANCH   1   7
ATOM      7  O   LIG d   1      -1.894  82.895 113.283  0.00  0.00    -0.368 OA
BRANCH   7   8
ATOM      8  C   LIG d   1      -1.943  81.645 114.014  0.00  0.00     0.119 C 
BRANCH   8   9
ATOM      9  C   LIG d   1      -2.716  80.632 113.147  0.00  0.00     0.028 C 
ATOM     10  C   LIG d   1      -1.911  79.348 112.886  0.00  0.00     0.006 C 
ENDBRANCH   8   9
BRANCH   8  11
ATOM     11  C   LIG d   1      -2.760  81.784 115.301  0.00  0.00     0.028 C 
ATOM     12  C   LIG d   1      -1.880  81.906 116.555  0.00  0.00     0.006 C 
ENDBRANCH   8  11
ENDBRANCH   7   8
ENDBRANCH   1   7
BRANCH   6  13
ATOM     13  N   LIG d   1      -0.811  82.377 110.518  0.00  0.00    -0.311 N 
ATOM     14  C   LIG d   1       0.131  81.436 110.513  0.00  0.00     0.210 C 
ATOM     15  C   LIG d   1      -0.181  80.214 109.643  0.00  0.00     0.109 C 
ATOM     16  O   LIG d   1       1.180  81.482 111.173  0.00  0.00    -0.276 OA
ATOM     17  H   LIG d   1      -1.645  82.243 109.980  0.00  0.00     0.149 HD
ENDBRANCH   6  13
BRANCH   5  18
ATOM     18  N   LIG d   1       0.392  84.966 109.430  0.00  0.00     0.381 N 
ATOM     19  H   LIG d   1      -0.286  84.413 108.945  0.00  0.00    -0.090 HD
ATOM     20  H   LIG d   1       1.280  84.848 108.973  0.00  0.00    -0.090 HD
ATOM     21  H   LIG d   1       0.125  85.925 109.411  0.00  0.00    -0.090 HD
ENDBRANCH   5  18
BRANCH   3  22
ATOM     22  C   LIG d   1       1.273  86.283 113.950  0.00  0.00     0.382 C 
ATOM     23  O   LIG d   1       2.144  85.819 114.724  0.00  0.00    -0.241 OA
ATOM     24  O   LIG d   1       0.995  87.496 113.995  0.00  0.00    -0.241 OA
ENDBRANCH   3  22
TORSDOF 7
ENDMDL
MODEL 9
REMARK VINA RESULT:      -5.2     11.255     13.041
REMARK  7 active torsions:
REMARK  status: ('A' for Active; 'I' for Inactive)
REMARK    1  A    between atoms: C_2  and  C_3 
REMARK    2  A    between atoms: C_3  and  O_6 
REMARK    3  A    between atoms: C_3  and  C_4 
REMARK    4  A    between atoms: C_7  and  O_6 
REMARK    5  A    between atoms: C_9  and  C_10 
REMARK    6  A    between atoms: N_15  and  C_14 
REMARK    7  A    between atoms: N_20  and  C_19 
REMARK       I    between atoms: C_22  and  N_20 
ROOT
ATOM      1  C   LIG d   1      -5.778  77.295 117.218  0.00  0.00     0.161 C 
ATOM      2  C   LIG d   1      -6.781  78.220 117.553  0.00  0.00     0.016 C 
ATOM      3  C   LIG d   1      -6.510  79.544 117.971  0.00  0.00     0.038 C 
ATOM      4  C   LIG d   1      -5.215  80.082 117.936  0.00  0.00     0.028 C 
ATOM      5  C   LIG d   1      -4.119  79.033 118.088  0.00  0.00    -0.047 C 
ATOM      6  C   LIG d   1      -4.366  77.898 117.068  0.00  0.00     0.091 C 
ENDROOT
BRANCH   1   7
ATOM      7  O   LIG d   1      -6.150  76.584 116.021  0.00  0.00    -0.368 OA
BRANCH   7   8
ATOM      8  C   LIG d   1      -6.241  75.143 116.138  0.00  0.00     0.119 C 
BRANCH   8   9
ATOM      9  C   LIG d   1      -5.523  74.533 114.918  0.00  0.00     0.028 C 
ATOM     10  C   LIG d   1      -5.320  75.554 113.786  0.00  0.00     0.006 C 
ENDBRANCH   8   9
BRANCH   8  11
ATOM     11  C   LIG d   1      -7.693  74.666 116.034  0.00  0.00     0.028 C 
ATOM     12  C   LIG d   1      -7.817  73.134 116.014  0.00  0.00     0.006 C 
ENDBRANCH   8  11
ENDBRANCH   7   8
ENDBRANCH   1   7
BRANCH   6  13
ATOM     13  N   LIG d   1      -3.386  76.788 117.206  0.00  0.00    -0.311 N 
ATOM     14  C   LIG d   1      -2.542  76.431 116.239  0.00  0.00     0.210 C 
ATOM     15  C   LIG d   1      -1.631  75.249 116.581  0.00  0.00     0.109 C 
ATOM     16  O   LIG d   1      -2.440  77.002 115.143  0.00  0.00    -0.276 OA
ATOM     17  H   LIG d   1      -3.379  76.292 118.075  0.00  0.00     0.149 HD
ENDBRANCH   6  13
BRANCH   5  18
ATOM     18  N   LIG d   1      -2.823  79.711 117.895  0.00  0.00     0.381 N 
ATOM     19  H   LIG d   1      -2.445  79.978 118.783  0.00  0.00    -0.090 HD
ATOM     20  H   LIG d   1      -2.969  80.543 117.352  0.00  0.00    -0.090 HD
ATOM     21  H   LIG d   1      -2.187  79.105 117.424  0.00  0.00    -0.090 HD
ENDBRANCH   5  18
BRANCH   3  22
ATOM     22  C   LIG d   1      -7.537  80.332 118.467  0.00  0.00     0.382 C 
ATOM     23  O   LIG d   1      -8.165  81.101 117.699  0.00  0.00    -0.241 OA
ATOM     24  O   LIG d   1      -7.815  80.316 119.681  0.00  0.00    -0.241 OA
ENDBRANCH   3  22
TORSDOF 7
ENDMDL
