MODEL 1
REMARK VINA RESULT:      -6.4      0.000      0.000
REMARK  7 active torsions:
REMARK  status: ('A' for Active; 'I' for Inactive)
REMARK    1  A    between atoms: C_2  and  C_3 
REMARK    2  A    between atoms: C_3  and  O_6 
REMARK    3  A    between atoms: C_3  and  C_4 
REMARK    4  A    between atoms: C_7  and  O_6 
REMARK    5  A    between atoms: C_9  and  C_10 
REMARK    6  A    between atoms: N_15  and  C_14 
REMARK    7  A    between atoms: N_20  and  C_19 
REMARK       I    between atoms: C_22  and  N_20 
ROOT
ATOM      1  C   LIG d   1       3.350  85.437 112.055  0.00  0.00     0.161 C 
ATOM      2  C   LIG d   1       4.191  86.561 111.985  0.00  0.00     0.016 C 
ATOM      3  C   LIG d   1       4.344  87.485 113.044  0.00  0.00     0.038 C 
ATOM      4  C   LIG d   1       3.779  87.264 114.309  0.00  0.00     0.028 C 
ATOM      5  C   LIG d   1       2.518  86.408 114.268  0.00  0.00    -0.047 C 
ATOM      6  C   LIG d   1       2.812  85.119 113.466  0.00  0.00     0.091 C 
ENDROOT
BRANCH   1   7
ATOM      7  O   LIG d   1       4.024  84.288 111.505  0.00  0.00    -0.368 OA
BRANCH   7   8
ATOM      8  C   LIG d   1       3.822  84.047 110.091  0.00  0.00     0.119 C 
BRANCH   8   9
ATOM      9  C   LIG d   1       2.359  83.600 109.902  0.00  0.00     0.028 C 
ATOM     10  C   LIG d   1       1.530  84.624 109.109  0.00  0.00     0.006 C 
ENDBRANCH   8   9
BRANCH   8  11
ATOM     11  C   LIG d   1       4.672  82.872 109.599  0.00  0.00     0.028 C 
ATOM     12  C   LIG d   1       3.930  81.982 108.589  0.00  0.00     0.006 C 
ENDBRANCH   8  11
ENDBRANCH   7   8
ENDBRANCH   1   7
BRANCH   6  13
ATOM     13  N   LIG d   1       1.608  84.264 113.305  0.00  0.00    -0.311 N 
ATOM     14  C   LIG d   1       1.567  82.980 113.659  0.00  0.00     0.210 C 
ATOM     15  C   LIG d   1       0.233  82.277 113.389  0.00  0.00     0.109 C 
ATOM     16  O   LIG d   1       2.499  82.366 114.200  0.00  0.00    -0.276 OA
ATOM     17  H   LIG d   1       0.796  84.690 112.903  0.00  0.00     0.149 HD
ENDBRANCH   6  13
BRANCH   5  18
ATOM     18  N   LIG d   1       2.114  86.142 115.661  0.00  0.00     0.381 N 
ATOM     19  H   LIG d   1       1.185  85.771 115.680  0.00  0.00    -0.090 HD
ATOM     20  H   LIG d   1       2.118  87.008 116.172  0.00  0.00    -0.090 HD
ATOM     21  H   LIG d   1       2.745  85.497 116.082  0.00  0.00    -0.090 HD
ENDBRANCH   5  18
BRANCH   3  22
ATOM     22  C   LIG d   1       5.038  88.667 112.830  0.00  0.00     0.382 C 
ATOM     23  O   LIG d   1       4.457  89.769 112.974  0.00  0.00    -0.241 OA
ATOM     24  O   LIG d   1       6.224  88.643 112.452  0.00  0.00    -0.241 OA
ENDBRANCH   3  22
TORSDOF 7
ENDMDL
MODEL 2
REMARK VINA RESULT:      -6.3      3.508      6.430
REMARK  7 active torsions:
REMARK  status: ('A' for Active; 'I' for Inactive)
REMARK    1  A    between atoms: C_2  and  C_3 
REMARK    2  A    between atoms: C_3  and  O_6 
REMARK    3  A    between atoms: C_3  and  C_4 
REMARK    4  A    between atoms: C_7  and  O_6 
REMARK    5  A    between atoms: C_9  and  C_10 
REMARK    6  A    between atoms: N_15  and  C_14 
REMARK    7  A    between atoms: N_20  and  C_19 
REMARK       I    between atoms: C_22  and  N_20 
ROOT
ATOM      1  C   LIG d   1       0.443  83.081 111.466  0.00  0.00     0.161 C 
ATOM      2  C   LIG d   1      -0.623  82.913 112.365  0.00  0.00     0.016 C 
ATOM      3  C   LIG d   1      -1.110  81.648 112.767  0.00  0.00     0.038 C 
ATOM      4  C   LIG d   1      -0.461  80.456 112.411  0.00  0.00     0.028 C 
ATOM      5  C   LIG d   1       0.311  80.556 111.100  0.00  0.00    -0.047 C 
ATOM      6  C   LIG d   1       1.235  81.794 111.154  0.00  0.00     0.091 C 
ENDROOT
BRANCH   1   7
ATOM      7  O   LIG d   1       1.330  84.111 111.947  0.00  0.00    -0.368 OA
BRANCH   7   8
ATOM      8  C   LIG d   1       1.315  85.359 111.213  0.00  0.00     0.119 C 
BRANCH   8   9
ATOM      9  C   LIG d   1       0.360  85.181 110.016  0.00  0.00     0.028 C 
ATOM     10  C   LIG d   1       1.081  85.323 108.665  0.00  0.00     0.006 C 
ENDBRANCH   8   9
BRANCH   8  11
ATOM     11  C   LIG d   1       2.685  85.661 110.597  0.00  0.00     0.028 C 
ATOM     12  C   LIG d   1       3.851  85.164 111.466  0.00  0.00     0.006 C 
ENDBRANCH   8  11
ENDBRANCH   7   8
ENDBRANCH   1   7
BRANCH   6  13
ATOM     13  N   LIG d   1       1.965  82.013 109.878  0.00  0.00    -0.311 N 
ATOM     14  C   LIG d   1       3.291  81.952 109.772  0.00  0.00     0.210 C 
ATOM     15  C   LIG d   1       3.841  82.229 108.370  0.00  0.00     0.109 C 
ATOM     16  O   LIG d   1       4.062  81.662 110.700  0.00  0.00    -0.276 OA
ATOM     17  H   LIG d   1       1.415  82.223 109.068  0.00  0.00     0.149 HD
ENDBRANCH   6  13
BRANCH   5  18
ATOM     18  N   LIG d   1       1.049  79.291 110.920  0.00  0.00     0.381 N 
ATOM     19  H   LIG d   1       0.409  78.552 110.709  0.00  0.00    -0.090 HD
ATOM     20  H   LIG d   1       1.520  79.065 111.779  0.00  0.00    -0.090 HD
ATOM     21  H   LIG d   1       1.714  79.386 110.184  0.00  0.00    -0.090 HD
ENDBRANCH   5  18
BRANCH   3  22
ATOM     22  C   LIG d   1      -2.283  81.565 113.502  0.00  0.00     0.382 C 
ATOM     23  O   LIG d   1      -3.393  81.614 112.918  0.00  0.00    -0.241 OA
ATOM     24  O   LIG d   1      -2.246  81.487 114.744  0.00  0.00    -0.241 OA
ENDBRANCH   3  22
TORSDOF 7
ENDMDL
MODEL 3
REMARK VINA RESULT:      -6.3      2.148      5.042
REMARK  7 active torsions:
REMARK  status: ('A' for Active; 'I' for Inactive)
REMARK    1  A    between atoms: C_2  and  C_3 
REMARK    2  A    between atoms: C_3  and  O_6 
REMARK    3  A    between atoms: C_3  and  C_4 
REMARK    4  A    between atoms: C_7  and  O_6 
REMARK    5  A    between atoms: C_9  and  C_10 
REMARK    6  A    between atoms: N_15  and  C_14 
REMARK    7  A    between atoms: N_20  and  C_19 
REMARK       I    between atoms: C_22  and  N_20 
ROOT
ATOM      1  C   LIG d   1       1.599  84.681 111.893  0.00  0.00     0.161 C 
ATOM      2  C   LIG d   1       0.530  83.789 112.081  0.00  0.00     0.016 C 
ATOM      3  C   LIG d   1      -0.304  83.804 113.222  0.00  0.00     0.038 C 
ATOM      4  C   LIG d   1      -0.219  84.817 114.189  0.00  0.00     0.028 C 
ATOM      5  C   LIG d   1       1.169  85.439 114.294  0.00  0.00    -0.047 C 
ATOM      6  C   LIG d   1       1.637  85.863 112.884  0.00  0.00     0.091 C 
ENDROOT
BRANCH   1   7
ATOM      7  O   LIG d   1       1.598  85.165 110.535  0.00  0.00    -0.368 OA
BRANCH   7   8
ATOM      8  C   LIG d   1       2.622  84.623 109.664  0.00  0.00     0.119 C 
BRANCH   8   9
ATOM      9  C   LIG d   1       1.983  83.478 108.855  0.00  0.00     0.028 C 
ATOM     10  C   LIG d   1       1.444  83.952 107.495  0.00  0.00     0.006 C 
ENDBRANCH   8   9
BRANCH   8  11
ATOM     11  C   LIG d   1       3.750  83.971 110.469  0.00  0.00     0.028 C 
ATOM     12  C   LIG d   1       4.429  82.817 109.715  0.00  0.00     0.006 C 
ENDBRANCH   8  11
ENDBRANCH   7   8
ENDBRANCH   1   7
BRANCH   6  13
ATOM     13  N   LIG d   1       3.022  86.404 112.885  0.00  0.00    -0.311 N 
ATOM     14  C   LIG d   1       3.352  87.573 112.339  0.00  0.00     0.210 C 
ATOM     15  C   LIG d   1       4.838  87.934 112.433  0.00  0.00     0.109 C 
ATOM     16  O   LIG d   1       2.550  88.361 111.815  0.00  0.00    -0.276 OA
ATOM     17  H   LIG d   1       3.730  85.844 113.317  0.00  0.00     0.149 HD
ENDBRANCH   6  13
BRANCH   5  18
ATOM     18  N   LIG d   1       1.081  86.569 115.238  0.00  0.00     0.381 N 
ATOM     19  H   LIG d   1       0.214  87.052 115.108  0.00  0.00    -0.090 HD
ATOM     20  H   LIG d   1       1.831  87.211 115.048  0.00  0.00    -0.090 HD
ATOM     21  H   LIG d   1       1.147  86.237 116.175  0.00  0.00    -0.090 HD
ENDBRANCH   5  18
BRANCH   3  22
ATOM     22  C   LIG d   1      -1.211  82.775 113.425  0.00  0.00     0.382 C 
ATOM     23  O   LIG d   1      -1.252  82.185 114.531  0.00  0.00    -0.241 OA
ATOM     24  O   LIG d   1      -1.957  82.399 112.501  0.00  0.00    -0.241 OA
ENDBRANCH   3  22
TORSDOF 7
ENDMDL
MODEL 4
REMARK VINA RESULT:      -6.3      3.235      6.698
REMARK  7 active torsions:
REMARK  status: ('A' for Active; 'I' for Inactive)
REMARK    1  A    between atoms: C_2  and  C_3 
REMARK    2  A    between atoms: C_3  and  O_6 
REMARK    3  A    between atoms: C_3  and  C_4 
REMARK    4  A    between atoms: C_7  and  O_6 
REMARK    5  A    between atoms: C_9  and  C_10 
REMARK    6  A    between atoms: N_15  and  C_14 
REMARK    7  A    between atoms: N_20  and  C_19 
REMARK       I    between atoms: C_22  and  N_20 
ROOT
ATOM      1  C   LIG d   1       1.078  83.077 110.946  0.00  0.00     0.161 C 
ATOM      2  C   LIG d   1       0.584  81.823 110.548  0.00  0.00     0.016 C 
ATOM      3  C   LIG d   1       1.375  80.845 109.902  0.00  0.00     0.038 C 
ATOM      4  C   LIG d   1       2.761  80.997 109.746  0.00  0.00     0.028 C 
ATOM      5  C   LIG d   1       3.207  82.454 109.678  0.00  0.00    -0.047 C 
ATOM      6  C   LIG d   1       2.613  83.217 110.885  0.00  0.00     0.091 C 
ENDROOT
BRANCH   1   7
ATOM      7  O   LIG d   1       0.599  83.392 112.269  0.00  0.00    -0.368 OA
BRANCH   7   8
ATOM      8  C   LIG d   1      -0.382  84.455 112.354  0.00  0.00     0.119 C 
BRANCH   8   9
ATOM      9  C   LIG d   1      -0.645  84.959 110.922  0.00  0.00     0.028 C 
ATOM     10  C   LIG d   1      -1.005  86.454 110.883  0.00  0.00     0.006 C 
ENDBRANCH   8   9
BRANCH   8  11
ATOM     11  C   LIG d   1       0.171  85.664 113.114  0.00  0.00     0.028 C 
ATOM     12  C   LIG d   1      -0.114  85.601 114.623  0.00  0.00     0.006 C 
ENDBRANCH   8  11
ENDBRANCH   7   8
ENDBRANCH   1   7
BRANCH   6  13
ATOM     13  N   LIG d   1       2.931  84.668 110.850  0.00  0.00    -0.311 N 
ATOM     14  C   LIG d   1       3.689  85.275 111.761  0.00  0.00     0.210 C 
ATOM     15  C   LIG d   1       3.876  86.781 111.549  0.00  0.00     0.109 C 
ATOM     16  O   LIG d   1       4.252  84.703 112.707  0.00  0.00    -0.276 OA
ATOM     17  H   LIG d   1       2.541  85.203 110.098  0.00  0.00     0.149 HD
ENDBRANCH   6  13
BRANCH   5  18
ATOM     18  N   LIG d   1       4.682  82.468 109.655  0.00  0.00     0.381 N 
ATOM     19  H   LIG d   1       5.036  81.667 110.138  0.00  0.00    -0.090 HD
ATOM     20  H   LIG d   1       5.007  83.292 110.129  0.00  0.00    -0.090 HD
ATOM     21  H   LIG d   1       5.007  82.467 108.713  0.00  0.00    -0.090 HD
ENDBRANCH   5  18
BRANCH   3  22
ATOM     22  C   LIG d   1       0.772  79.716 109.369  0.00  0.00     0.382 C 
ATOM     23  O   LIG d   1      -0.316  79.818 108.753  0.00  0.00    -0.241 OA
ATOM     24  O   LIG d   1       1.280  78.591 109.534  0.00  0.00    -0.241 OA
ENDBRANCH   3  22
TORSDOF 7
ENDMDL
MODEL 5
REMARK VINA RESULT:      -6.3      3.824      5.728
REMARK  7 active torsions:
REMARK  status: ('A' for Active; 'I' for Inactive)
REMARK    1  A    between atoms: C_2  and  C_3 
REMARK    2  A    between atoms: C_3  and  O_6 
REMARK    3  A    between atoms: C_3  and  C_4 
REMARK    4  A    between atoms: C_7  and  O_6 
REMARK    5  A    between atoms: C_9  and  C_10 
REMARK    6  A    between atoms: N_15  and  C_14 
REMARK    7  A    between atoms: N_20  and  C_19 
REMARK       I    between atoms: C_22  and  N_20 
ROOT
ATOM      1  C   LIG d   1       1.805  83.155 111.794  0.00  0.00     0.161 C 
ATOM      2  C   LIG d   1       2.737  82.646 110.874  0.00  0.00     0.016 C 
ATOM      3  C   LIG d   1       2.722  81.310 110.410  0.00  0.00     0.038 C 
ATOM      4  C   LIG d   1       1.676  80.429 110.721  0.00  0.00     0.028 C 
ATOM      5  C   LIG d   1       0.989  80.747 112.045  0.00  0.00    -0.047 C 
ATOM      6  C   LIG d   1       0.591  82.240 112.059  0.00  0.00     0.091 C 
ENDROOT
BRANCH   1   7
ATOM      7  O   LIG d   1       1.366  84.461 111.371  0.00  0.00    -0.368 OA
BRANCH   7   8
ATOM      8  C   LIG d   1       0.406  84.491 110.286  0.00  0.00     0.119 C 
BRANCH   8   9
ATOM      9  C   LIG d   1       1.080  85.191 109.091  0.00  0.00     0.028 C 
ATOM     10  C   LIG d   1       1.344  84.230 107.919  0.00  0.00     0.006 C 
ENDBRANCH   8   9
BRANCH   8  11
ATOM     11  C   LIG d   1      -0.805  85.361 110.636  0.00  0.00     0.028 C 
ATOM     12  C   LIG d   1      -0.705  85.984 112.038  0.00  0.00     0.006 C 
ENDBRANCH   8  11
ENDBRANCH   7   8
ENDBRANCH   1   7
BRANCH   6  13
ATOM     13  N   LIG d   1      -0.011  82.655 113.352  0.00  0.00    -0.311 N 
ATOM     14  C   LIG d   1      -1.320  82.627 113.594  0.00  0.00     0.210 C 
ATOM     15  C   LIG d   1      -1.732  83.116 114.987  0.00  0.00     0.109 C 
ATOM     16  O   LIG d   1      -2.178  82.213 112.799  0.00  0.00    -0.276 OA
ATOM     17  H   LIG d   1       0.615  82.976 114.065  0.00  0.00     0.149 HD
ENDBRANCH   6  13
BRANCH   5  18
ATOM     18  N   LIG d   1      -0.166  79.839 112.178  0.00  0.00     0.381 N 
ATOM     19  H   LIG d   1      -0.707  79.855 111.336  0.00  0.00    -0.090 HD
ATOM     20  H   LIG d   1      -0.747  80.161 112.932  0.00  0.00    -0.090 HD
ATOM     21  H   LIG d   1       0.148  78.912 112.362  0.00  0.00    -0.090 HD
ENDBRANCH   5  18
BRANCH   3  22
ATOM     22  C   LIG d   1       3.784  80.832 109.657  0.00  0.00     0.382 C 
ATOM     23  O   LIG d   1       4.458  81.622 108.953  0.00  0.00    -0.241 OA
ATOM     24  O   LIG d   1       4.048  79.615 109.639  0.00  0.00    -0.241 OA
ENDBRANCH   3  22
TORSDOF 7
ENDMDL
MODEL 6
REMARK VINA RESULT:      -6.1      3.335      5.904
REMARK  7 active torsions:
REMARK  status: ('A' for Active; 'I' for Inactive)
REMARK    1  A    between atoms: C_2  and  C_3 
REMARK    2  A    between atoms: C_3  and  O_6 
REMARK    3  A    between atoms: C_3  and  C_4 
REMARK    4  A    between atoms: C_7  and  O_6 
REMARK    5  A    between atoms: C_9  and  C_10 
REMARK    6  A    between atoms: N_15  and  C_14 
REMARK    7  A    between atoms: N_20  and  C_19 
REMARK       I    between atoms: C_22  and  N_20 
ROOT
ATOM      1  C   LIG d   1       2.253  83.000 111.227  0.00  0.00     0.161 C 
ATOM      2  C   LIG d   1       2.478  81.822 110.495  0.00  0.00     0.016 C 
ATOM      3  C   LIG d   1       1.745  80.630 110.695  0.00  0.00     0.038 C 
ATOM      4  C   LIG d   1       0.628  80.580 111.542  0.00  0.00     0.028 C 
ATOM      5  C   LIG d   1       0.679  81.600 112.674  0.00  0.00    -0.047 C 
ATOM      6  C   LIG d   1       0.966  82.997 112.077  0.00  0.00     0.091 C 
ENDROOT
BRANCH   1   7
ATOM      7  O   LIG d   1       2.266  84.136 110.340  0.00  0.00    -0.368 OA
BRANCH   7   8
ATOM      8  C   LIG d   1       1.078  84.329 109.534  0.00  0.00     0.119 C 
BRANCH   8   9
ATOM      9  C   LIG d   1       1.456  84.025 108.071  0.00  0.00     0.028 C 
ATOM     10  C   LIG d   1       0.982  85.122 107.103  0.00  0.00     0.006 C 
ENDBRANCH   8   9
BRANCH   8  11
ATOM     11  C   LIG d   1       0.631  85.794 109.542  0.00  0.00     0.028 C 
ATOM     12  C   LIG d   1       1.382  86.640 110.582  0.00  0.00     0.006 C 
ENDBRANCH   8  11
ENDBRANCH   7   8
ENDBRANCH   1   7
BRANCH   6  13
ATOM     13  N   LIG d   1       1.116  84.041 113.124  0.00  0.00    -0.311 N 
ATOM     14  C   LIG d   1       0.126  84.847 113.503  0.00  0.00     0.210 C 
ATOM     15  C   LIG d   1       0.500  85.866 114.584  0.00  0.00     0.109 C 
ATOM     16  O   LIG d   1      -1.035  84.794 113.070  0.00  0.00    -0.276 OA
ATOM     17  H   LIG d   1       2.017  84.132 113.551  0.00  0.00     0.149 HD
ENDBRANCH   6  13
BRANCH   5  18
ATOM     18  N   LIG d   1      -0.606  81.532 113.395  0.00  0.00     0.381 N 
ATOM     19  H   LIG d   1      -1.092  82.401 113.303  0.00  0.00    -0.090 HD
ATOM     20  H   LIG d   1      -0.423  81.374 114.370  0.00  0.00    -0.090 HD
ATOM     21  H   LIG d   1      -1.163  80.791 113.029  0.00  0.00    -0.090 HD
ENDBRANCH   5  18
BRANCH   3  22
ATOM     22  C   LIG d   1       2.152  79.459 110.073  0.00  0.00     0.382 C 
ATOM     23  O   LIG d   1       1.351  78.502 109.952  0.00  0.00    -0.241 OA
ATOM     24  O   LIG d   1       3.324  79.333 109.670  0.00  0.00    -0.241 OA
ENDBRANCH   3  22
TORSDOF 7
ENDMDL
MODEL 7
REMARK VINA RESULT:      -6.0      2.058      2.575
REMARK  7 active torsions:
REMARK  status: ('A' for Active; 'I' for Inactive)
REMARK    1  A    between atoms: C_2  and  C_3 
REMARK    2  A    between atoms: C_3  and  O_6 
REMARK    3  A    between atoms: C_3  and  C_4 
REMARK    4  A    between atoms: C_7  and  O_6 
REMARK    5  A    between atoms: C_9  and  C_10 
REMARK    6  A    between atoms: N_15  and  C_14 
REMARK    7  A    between atoms: N_20  and  C_19 
REMARK       I    between atoms: C_22  and  N_20 
ROOT
ATOM      1  C   LIG d   1       0.607  84.539 111.010  0.00  0.00     0.161 C 
ATOM      2  C   LIG d   1       1.540  85.574 110.826  0.00  0.00     0.016 C 
ATOM      3  C   LIG d   1       2.193  86.231 111.894  0.00  0.00     0.038 C 
ATOM      4  C   LIG d   1       2.070  85.793 113.221  0.00  0.00     0.028 C 
ATOM      5  C   LIG d   1       0.753  85.078 113.504  0.00  0.00    -0.047 C 
ATOM      6  C   LIG d   1       0.544  83.972 112.444  0.00  0.00     0.091 C 
ENDROOT
BRANCH   1   7
ATOM      7  O   LIG d   1       0.859  83.481 110.064  0.00  0.00    -0.368 OA
BRANCH   7   8
ATOM      8  C   LIG d   1       2.037  83.635 109.235  0.00  0.00     0.119 C 
BRANCH   8   9
ATOM      9  C   LIG d   1       1.595  83.469 107.768  0.00  0.00     0.028 C 
ATOM     10  C   LIG d   1       1.072  84.782 107.160  0.00  0.00     0.006 C 
ENDBRANCH   8   9
BRANCH   8  11
ATOM     11  C   LIG d   1       3.044  82.508 109.484  0.00  0.00     0.028 C 
ATOM     12  C   LIG d   1       4.468  83.028 109.737  0.00  0.00     0.006 C 
ENDBRANCH   8  11
ENDBRANCH   7   8
ENDBRANCH   1   7
BRANCH   6  13
ATOM     13  N   LIG d   1      -0.762  83.280 112.597  0.00  0.00    -0.311 N 
ATOM     14  C   LIG d   1      -0.920  82.160 113.301  0.00  0.00     0.210 C 
ATOM     15  C   LIG d   1      -2.346  81.601 113.313  0.00  0.00     0.109 C 
ATOM     16  O   LIG d   1      -0.022  81.595 113.942  0.00  0.00    -0.276 OA
ATOM     17  H   LIG d   1      -1.551  83.688 112.135  0.00  0.00     0.149 HD
ENDBRANCH   6  13
BRANCH   5  18
ATOM     18  N   LIG d   1       0.816  84.555 114.881  0.00  0.00     0.381 N 
ATOM     19  H   LIG d   1       1.762  84.321 115.112  0.00  0.00    -0.090 HD
ATOM     20  H   LIG d   1       0.262  83.718 114.937  0.00  0.00    -0.090 HD
ATOM     21  H   LIG d   1       0.469  85.235 115.521  0.00  0.00    -0.090 HD
ENDBRANCH   5  18
BRANCH   3  22
ATOM     22  C   LIG d   1       2.949  87.366 111.643  0.00  0.00     0.382 C 
ATOM     23  O   LIG d   1       2.381  88.468 111.452  0.00  0.00    -0.241 OA
ATOM     24  O   LIG d   1       4.190  87.293 111.560  0.00  0.00    -0.241 OA
ENDBRANCH   3  22
TORSDOF 7
ENDMDL
MODEL 8
REMARK VINA RESULT:      -5.9      2.597      4.472
REMARK  7 active torsions:
REMARK  status: ('A' for Active; 'I' for Inactive)
REMARK    1  A    between atoms: C_2  and  C_3 
REMARK    2  A    between atoms: C_3  and  O_6 
REMARK    3  A    between atoms: C_3  and  C_4 
REMARK    4  A    between atoms: C_7  and  O_6 
REMARK    5  A    between atoms: C_9  and  C_10 
REMARK    6  A    between atoms: N_15  and  C_14 
REMARK    7  A    between atoms: N_20  and  C_19 
REMARK       I    between atoms: C_22  and  N_20 
ROOT
ATOM      1  C   LIG d   1       2.830  83.861 111.901  0.00  0.00     0.161 C 
ATOM      2  C   LIG d   1       2.982  85.231 112.170  0.00  0.00     0.016 C 
ATOM      3  C   LIG d   1       2.534  86.250 111.298  0.00  0.00     0.038 C 
ATOM      4  C   LIG d   1       1.764  85.966 110.160  0.00  0.00     0.028 C 
ATOM      5  C   LIG d   1       2.022  84.578 109.585  0.00  0.00    -0.047 C 
ATOM      6  C   LIG d   1       1.895  83.534 110.718  0.00  0.00     0.091 C 
ENDROOT
BRANCH   1   7
ATOM      7  O   LIG d   1       2.393  83.174 113.090  0.00  0.00    -0.368 OA
BRANCH   7   8
ATOM      8  C   LIG d   1       0.962  83.132 113.312  0.00  0.00     0.119 C 
BRANCH   8   9
ATOM      9  C   LIG d   1       0.649  84.076 114.490  0.00  0.00     0.028 C 
ATOM     10  C   LIG d   1      -0.214  85.276 114.067  0.00  0.00     0.006 C 
ENDBRANCH   8   9
BRANCH   8  11
ATOM     11  C   LIG d   1       0.510  81.744 113.774  0.00  0.00     0.028 C 
ATOM     12  C   LIG d   1       0.053  81.723 115.241  0.00  0.00     0.006 C 
ENDBRANCH   8  11
ENDBRANCH   7   8
ENDBRANCH   1   7
BRANCH   6  13
ATOM     13  N   LIG d   1       2.215  82.157 110.259  0.00  0.00    -0.311 N 
ATOM     14  C   LIG d   1       1.299  81.200 110.116  0.00  0.00     0.210 C 
ATOM     15  C   LIG d   1       1.845  79.847 109.650  0.00  0.00     0.109 C 
ATOM     16  O   LIG d   1       0.082  81.353 110.299  0.00  0.00    -0.276 OA
ATOM     17  H   LIG d   1       3.175  81.955 110.057  0.00  0.00     0.149 HD
ENDBRANCH   6  13
BRANCH   5  18
ATOM     18  N   LIG d   1       1.058  84.363 108.490  0.00  0.00     0.381 N 
ATOM     19  H   LIG d   1       1.205  83.462 108.080  0.00  0.00    -0.090 HD
ATOM     20  H   LIG d   1       1.209  85.059 107.782  0.00  0.00    -0.090 HD
ATOM     21  H   LIG d   1       0.126  84.429 108.837  0.00  0.00    -0.090 HD
ENDBRANCH   5  18
BRANCH   3  22
ATOM     22  C   LIG d   1       2.890  87.568 111.540  0.00  0.00     0.382 C 
ATOM     23  O   LIG d   1       2.033  88.478 111.439  0.00  0.00    -0.241 OA
ATOM     24  O   LIG d   1       4.069  87.863 111.815  0.00  0.00    -0.241 OA
ENDBRANCH   3  22
TORSDOF 7
ENDMDL
MODEL 9
REMARK VINA RESULT:      -5.9      4.024      6.278
REMARK  7 active torsions:
REMARK  status: ('A' for Active; 'I' for Inactive)
REMARK    1  A    between atoms: C_2  and  C_3 
REMARK    2  A    between atoms: C_3  and  O_6 
REMARK    3  A    between atoms: C_3  and  C_4 
REMARK    4  A    between atoms: C_7  and  O_6 
REMARK    5  A    between atoms: C_9  and  C_10 
REMARK    6  A    between atoms: N_15  and  C_14 
REMARK    7  A    between atoms: N_20  and  C_19 
REMARK       I    between atoms: C_22  and  N_20 
ROOT
ATOM      1  C   LIG d   1       0.717  82.737 111.768  0.00  0.00     0.161 C 
ATOM      2  C   LIG d   1       1.652  82.325 110.804  0.00  0.00     0.016 C 
ATOM      3  C   LIG d   1       1.785  80.985 110.372  0.00  0.00     0.038 C 
ATOM      4  C   LIG d   1       0.883  79.986 110.766  0.00  0.00     0.028 C 
ATOM      5  C   LIG d   1       0.240  80.252 112.123  0.00  0.00    -0.047 C 
ATOM      6  C   LIG d   1      -0.349  81.681 112.127  0.00  0.00     0.091 C 
ENDROOT
BRANCH   1   7
ATOM      7  O   LIG d   1       0.086  83.962 111.344  0.00  0.00    -0.368 OA
BRANCH   7   8
ATOM      8  C   LIG d   1       0.577  85.178 111.960  0.00  0.00     0.119 C 
BRANCH   8   9
ATOM      9  C   LIG d   1      -0.503  85.667 112.945  0.00  0.00     0.028 C 
ATOM     10  C   LIG d   1      -0.093  85.466 114.413  0.00  0.00     0.006 C 
ENDBRANCH   8   9
BRANCH   8  11
ATOM     11  C   LIG d   1       0.728  86.302 110.932  0.00  0.00     0.028 C 
ATOM     12  C   LIG d   1       0.651  85.798 109.482  0.00  0.00     0.006 C 
ENDBRANCH   8  11
ENDBRANCH   7   8
ENDBRANCH   1   7
BRANCH   6  13
ATOM     13  N   LIG d   1      -0.924  82.053 113.446  0.00  0.00    -0.311 N 
ATOM     14  C   LIG d   1      -2.225  81.990 113.723  0.00  0.00     0.210 C 
ATOM     15  C   LIG d   1      -2.608  82.438 115.137  0.00  0.00     0.109 C 
ATOM     16  O   LIG d   1      -3.095  81.575 112.943  0.00  0.00    -0.276 OA
ATOM     17  H   LIG d   1      -0.286  82.371 114.149  0.00  0.00     0.149 HD
ENDBRANCH   6  13
BRANCH   5  18
ATOM     18  N   LIG d   1      -0.777  79.207 112.346  0.00  0.00     0.381 N 
ATOM     19  H   LIG d   1      -0.690  78.842 113.274  0.00  0.00    -0.090 HD
ATOM     20  H   LIG d   1      -0.620  78.457 111.696  0.00  0.00    -0.090 HD
ATOM     21  H   LIG d   1      -1.689  79.585 112.215  0.00  0.00    -0.090 HD
ENDBRANCH   5  18
BRANCH   3  22
ATOM     22  C   LIG d   1       2.855  80.627 109.566  0.00  0.00     0.382 C 
ATOM     23  O   LIG d   1       3.287  81.429 108.703  0.00  0.00    -0.241 OA
ATOM     24  O   LIG d   1       3.364  79.494 109.659  0.00  0.00    -0.241 OA
ENDBRANCH   3  22
TORSDOF 7
ENDMDL
