MODEL 1
REMARK VINA RESULT:      -6.2      0.000      0.000
REMARK  7 active torsions:
REMARK  status: ('A' for Active; 'I' for Inactive)
REMARK    1  A    between atoms: C_2  and  C_3 
REMARK    2  A    between atoms: C_3  and  O_6 
REMARK    3  A    between atoms: C_3  and  C_4 
REMARK    4  A    between atoms: C_7  and  O_6 
REMARK    5  A    between atoms: C_9  and  C_10 
REMARK    6  A    between atoms: N_15  and  C_14 
REMARK    7  A    between atoms: N_20  and  C_19 
REMARK       I    between atoms: C_22  and  N_20 
ROOT
ATOM      1  C   LIG d   1       2.562  86.491 113.041  0.00  0.00     0.161 C 
ATOM      2  C   LIG d   1       1.437  85.792 113.507  0.00  0.00     0.016 C 
ATOM      3  C   LIG d   1       0.755  86.123 114.701  0.00  0.00     0.038 C 
ATOM      4  C   LIG d   1       1.064  87.277 115.436  0.00  0.00     0.028 C 
ATOM      5  C   LIG d   1       2.513  87.726 115.278  0.00  0.00    -0.047 C 
ATOM      6  C   LIG d   1       2.847  87.821 113.771  0.00  0.00     0.091 C 
ENDROOT
BRANCH   1   7
ATOM      7  O   LIG d   1       2.446  86.714 111.622  0.00  0.00    -0.368 OA
BRANCH   7   8
ATOM      8  C   LIG d   1       1.756  85.686 110.869  0.00  0.00     0.119 C 
BRANCH   8   9
ATOM      9  C   LIG d   1       2.825  84.865 110.121  0.00  0.00     0.028 C 
ATOM     10  C   LIG d   1       2.406  83.399 109.923  0.00  0.00     0.006 C 
ENDBRANCH   8   9
BRANCH   8  11
ATOM     11  C   LIG d   1       0.872  86.293 109.776  0.00  0.00     0.028 C 
ATOM     12  C   LIG d   1      -0.594  85.844 109.878  0.00  0.00     0.006 C 
ENDBRANCH   8  11
ENDBRANCH   7   8
ENDBRANCH   1   7
BRANCH   6  13
ATOM     13  N   LIG d   1       4.270  88.173 113.527  0.00  0.00    -0.311 N 
ATOM     14  C   LIG d   1       4.683  89.410 113.259  0.00  0.00     0.210 C 
ATOM     15  C   LIG d   1       6.190  89.551 113.020  0.00  0.00     0.109 C 
ATOM     16  O   LIG d   1       3.950  90.410 113.229  0.00  0.00    -0.276 OA
ATOM     17  H   LIG d   1       4.937  87.427 113.563  0.00  0.00     0.149 HD
ENDBRANCH   6  13
BRANCH   5  18
ATOM     18  N   LIG d   1       2.661  89.012 115.984  0.00  0.00     0.381 N 
ATOM     19  H   LIG d   1       3.280  88.902 116.763  0.00  0.00    -0.090 HD
ATOM     20  H   LIG d   1       1.762  89.296 116.334  0.00  0.00    -0.090 HD
ATOM     21  H   LIG d   1       3.017  89.704 115.363  0.00  0.00    -0.090 HD
ENDBRANCH   5  18
BRANCH   3  22
ATOM     22  C   LIG d   1      -0.223  85.271 115.192  0.00  0.00     0.382 C 
ATOM     23  O   LIG d   1      -0.098  84.764 116.332  0.00  0.00    -0.241 OA
ATOM     24  O   LIG d   1      -1.208  84.970 114.491  0.00  0.00    -0.241 OA
ENDBRANCH   3  22
TORSDOF 7
ENDMDL
MODEL 2
REMARK VINA RESULT:      -6.2      4.065      6.197
REMARK  7 active torsions:
REMARK  status: ('A' for Active; 'I' for Inactive)
REMARK    1  A    between atoms: C_2  and  C_3 
REMARK    2  A    between atoms: C_3  and  O_6 
REMARK    3  A    between atoms: C_3  and  C_4 
REMARK    4  A    between atoms: C_7  and  O_6 
REMARK    5  A    between atoms: C_9  and  C_10 
REMARK    6  A    between atoms: N_15  and  C_14 
REMARK    7  A    between atoms: N_20  and  C_19 
REMARK       I    between atoms: C_22  and  N_20 
ROOT
ATOM      1  C   LIG d   1       0.177  83.291 112.171  0.00  0.00     0.161 C 
ATOM      2  C   LIG d   1      -1.033  82.696 112.567  0.00  0.00     0.016 C 
ATOM      3  C   LIG d   1      -1.426  81.397 112.173  0.00  0.00     0.038 C 
ATOM      4  C   LIG d   1      -0.563  80.540 111.475  0.00  0.00     0.028 C 
ATOM      5  C   LIG d   1       0.465  81.278 110.624  0.00  0.00    -0.047 C 
ATOM      6  C   LIG d   1       1.181  82.330 111.501  0.00  0.00     0.091 C 
ENDROOT
BRANCH   1   7
ATOM      7  O   LIG d   1       0.789  83.950 113.297  0.00  0.00    -0.368 OA
BRANCH   7   8
ATOM      8  C   LIG d   1       0.697  85.396 113.317  0.00  0.00     0.119 C 
BRANCH   8   9
ATOM      9  C   LIG d   1       2.124  85.953 113.148  0.00  0.00     0.028 C 
ATOM     10  C   LIG d   1       3.195  85.006 113.717  0.00  0.00     0.006 C 
ENDBRANCH   8   9
BRANCH   8  11
ATOM     11  C   LIG d   1       0.222  85.906 114.681  0.00  0.00     0.028 C 
ATOM     12  C   LIG d   1      -0.125  84.768 115.654  0.00  0.00     0.006 C 
ENDBRANCH   8  11
ENDBRANCH   7   8
ENDBRANCH   1   7
BRANCH   6  13
ATOM     13  N   LIG d   1       2.144  83.155 110.725  0.00  0.00    -0.311 N 
ATOM     14  C   LIG d   1       3.440  82.868 110.625  0.00  0.00     0.210 C 
ATOM     15  C   LIG d   1       4.260  83.860 109.793  0.00  0.00     0.109 C 
ATOM     16  O   LIG d   1       3.984  81.868 111.118  0.00  0.00    -0.276 OA
ATOM     17  H   LIG d   1       1.782  83.968 110.267  0.00  0.00     0.149 HD
ENDBRANCH   6  13
BRANCH   5  18
ATOM     18  N   LIG d   1       1.384  80.271 110.061  0.00  0.00     0.381 N 
ATOM     19  H   LIG d   1       1.394  80.341 109.063  0.00  0.00    -0.090 HD
ATOM     20  H   LIG d   1       1.055  79.355 110.311  0.00  0.00    -0.090 HD
ATOM     21  H   LIG d   1       2.303  80.411 110.420  0.00  0.00    -0.090 HD
ENDBRANCH   5  18
BRANCH   3  22
ATOM     22  C   LIG d   1      -2.713  80.957 112.444  0.00  0.00     0.382 C 
ATOM     23  O   LIG d   1      -2.890  79.919 113.127  0.00  0.00    -0.241 OA
ATOM     24  O   LIG d   1      -3.698  81.559 111.978  0.00  0.00    -0.241 OA
ENDBRANCH   3  22
TORSDOF 7
ENDMDL
MODEL 3
REMARK VINA RESULT:      -6.1      4.053      7.500
REMARK  7 active torsions:
REMARK  status: ('A' for Active; 'I' for Inactive)
REMARK    1  A    between atoms: C_2  and  C_3 
REMARK    2  A    between atoms: C_3  and  O_6 
REMARK    3  A    between atoms: C_3  and  C_4 
REMARK    4  A    between atoms: C_7  and  O_6 
REMARK    5  A    between atoms: C_9  and  C_10 
REMARK    6  A    between atoms: N_15  and  C_14 
REMARK    7  A    between atoms: N_20  and  C_19 
REMARK       I    between atoms: C_22  and  N_20 
ROOT
ATOM      1  C   LIG d   1      -0.152  83.560 112.597  0.00  0.00     0.161 C 
ATOM      2  C   LIG d   1       0.644  84.610 112.109  0.00  0.00     0.016 C 
ATOM      3  C   LIG d   1       1.209  84.620 110.813  0.00  0.00     0.038 C 
ATOM      4  C   LIG d   1       0.890  83.644 109.857  0.00  0.00     0.028 C 
ATOM      5  C   LIG d   1       0.496  82.303 110.469  0.00  0.00    -0.047 C 
ATOM      6  C   LIG d   1      -0.602  82.540 111.531  0.00  0.00     0.091 C 
ENDROOT
BRANCH   1   7
ATOM      7  O   LIG d   1      -1.296  84.097 113.292  0.00  0.00    -0.368 OA
BRANCH   7   8
ATOM      8  C   LIG d   1      -1.166  84.224 114.729  0.00  0.00     0.119 C 
BRANCH   8   9
ATOM      9  C   LIG d   1      -0.362  85.508 115.010  0.00  0.00     0.028 C 
ATOM     10  C   LIG d   1       0.537  85.377 116.251  0.00  0.00     0.006 C 
ENDBRANCH   8   9
BRANCH   8  11
ATOM     11  C   LIG d   1      -0.329  83.084 115.316  0.00  0.00     0.028 C 
ATOM     12  C   LIG d   1      -1.189  81.938 115.871  0.00  0.00     0.006 C 
ENDBRANCH   8  11
ENDBRANCH   7   8
ENDBRANCH   1   7
BRANCH   6  13
ATOM     13  N   LIG d   1      -0.986  81.290 112.238  0.00  0.00    -0.311 N 
ATOM     14  C   LIG d   1      -2.249  80.915 112.431  0.00  0.00     0.210 C 
ATOM     15  C   LIG d   1      -2.424  79.603 113.201  0.00  0.00     0.109 C 
ATOM     16  O   LIG d   1      -3.241  81.529 112.009  0.00  0.00    -0.276 OA
ATOM     17  H   LIG d   1      -0.243  80.717 112.585  0.00  0.00     0.149 HD
ENDBRANCH   6  13
BRANCH   5  18
ATOM     18  N   LIG d   1       0.057  81.424 109.369  0.00  0.00     0.381 N 
ATOM     19  H   LIG d   1      -0.243  80.544 109.739  0.00  0.00    -0.090 HD
ATOM     20  H   LIG d   1       0.834  81.259 108.754  0.00  0.00    -0.090 HD
ATOM     21  H   LIG d   1      -0.689  81.853 108.866  0.00  0.00    -0.090 HD
ENDBRANCH   5  18
BRANCH   3  22
ATOM     22  C   LIG d   1       2.137  85.594 110.475  0.00  0.00     0.382 C 
ATOM     23  O   LIG d   1       3.336  85.278 110.286  0.00  0.00    -0.241 OA
ATOM     24  O   LIG d   1       1.798  86.790 110.401  0.00  0.00    -0.241 OA
ENDBRANCH   3  22
TORSDOF 7
ENDMDL
MODEL 4
REMARK VINA RESULT:      -6.0      4.232      7.489
REMARK  7 active torsions:
REMARK  status: ('A' for Active; 'I' for Inactive)
REMARK    1  A    between atoms: C_2  and  C_3 
REMARK    2  A    between atoms: C_3  and  O_6 
REMARK    3  A    between atoms: C_3  and  C_4 
REMARK    4  A    between atoms: C_7  and  O_6 
REMARK    5  A    between atoms: C_9  and  C_10 
REMARK    6  A    between atoms: N_15  and  C_14 
REMARK    7  A    between atoms: N_20  and  C_19 
REMARK       I    between atoms: C_22  and  N_20 
ROOT
ATOM      1  C   LIG d   1       1.078  82.225 112.821  0.00  0.00     0.161 C 
ATOM      2  C   LIG d   1       2.191  82.971 112.396  0.00  0.00     0.016 C 
ATOM      3  C   LIG d   1       2.628  83.018 111.052  0.00  0.00     0.038 C 
ATOM      4  C   LIG d   1       1.888  82.440 110.011  0.00  0.00     0.028 C 
ATOM      5  C   LIG d   1       1.036  81.256 110.457  0.00  0.00    -0.047 C 
ATOM      6  C   LIG d   1       0.193  81.678 111.682  0.00  0.00     0.091 C 
ENDROOT
BRANCH   1   7
ATOM      7  O   LIG d   1       0.288  83.007 113.738  0.00  0.00    -0.368 OA
BRANCH   7   8
ATOM      8  C   LIG d   1       0.421  84.446 113.628  0.00  0.00     0.119 C 
BRANCH   8   9
ATOM      9  C   LIG d   1       0.332  85.030 115.051  0.00  0.00     0.028 C 
ATOM     10  C   LIG d   1       0.816  86.488 115.118  0.00  0.00     0.006 C 
ENDBRANCH   8   9
BRANCH   8  11
ATOM     11  C   LIG d   1      -0.759  85.057 112.865  0.00  0.00     0.028 C 
ATOM     12  C   LIG d   1      -0.402  85.430 111.417  0.00  0.00     0.006 C 
ENDBRANCH   8  11
ENDBRANCH   7   8
ENDBRANCH   1   7
BRANCH   6  13
ATOM     13  N   LIG d   1      -0.607  80.554 112.234  0.00  0.00    -0.311 N 
ATOM     14  C   LIG d   1      -1.934  80.582 112.342  0.00  0.00     0.210 C 
ATOM     15  C   LIG d   1      -2.559  79.326 112.957  0.00  0.00     0.109 C 
ATOM     16  O   LIG d   1      -2.655  81.514 111.958  0.00  0.00    -0.276 OA
ATOM     17  H   LIG d   1      -0.104  79.744 112.541  0.00  0.00     0.149 HD
ENDBRANCH   6  13
BRANCH   5  18
ATOM     18  N   LIG d   1       0.215  80.839 109.305  0.00  0.00     0.381 N 
ATOM     19  H   LIG d   1      -0.445  80.144 109.594  0.00  0.00    -0.090 HD
ATOM     20  H   LIG d   1       0.814  80.434 108.608  0.00  0.00    -0.090 HD
ATOM     21  H   LIG d   1      -0.265  81.625 108.926  0.00  0.00    -0.090 HD
ENDBRANCH   5  18
BRANCH   3  22
ATOM     22  C   LIG d   1       3.841  83.616 110.745  0.00  0.00     0.382 C 
ATOM     23  O   LIG d   1       4.368  83.424 109.623  0.00  0.00    -0.241 OA
ATOM     24  O   LIG d   1       4.436  84.309 111.592  0.00  0.00    -0.241 OA
ENDBRANCH   3  22
TORSDOF 7
ENDMDL
MODEL 5
REMARK VINA RESULT:      -5.9      2.254      4.837
REMARK  7 active torsions:
REMARK  status: ('A' for Active; 'I' for Inactive)
REMARK    1  A    between atoms: C_2  and  C_3 
REMARK    2  A    between atoms: C_3  and  O_6 
REMARK    3  A    between atoms: C_3  and  C_4 
REMARK    4  A    between atoms: C_7  and  O_6 
REMARK    5  A    between atoms: C_9  and  C_10 
REMARK    6  A    between atoms: N_15  and  C_14 
REMARK    7  A    between atoms: N_20  and  C_19 
REMARK       I    between atoms: C_22  and  N_20 
ROOT
ATOM      1  C   LIG d   1       2.520  87.761 114.943  0.00  0.00     0.161 C 
ATOM      2  C   LIG d   1       2.400  88.729 115.953  0.00  0.00     0.016 C 
ATOM      3  C   LIG d   1       3.165  89.917 115.987  0.00  0.00     0.038 C 
ATOM      4  C   LIG d   1       4.000  90.293 114.924  0.00  0.00     0.028 C 
ATOM      5  C   LIG d   1       4.531  89.108 114.124  0.00  0.00    -0.047 C 
ATOM      6  C   LIG d   1       3.345  88.205 113.716  0.00  0.00     0.091 C 
ENDROOT
BRANCH   1   7
ATOM      7  O   LIG d   1       1.212  87.318 114.532  0.00  0.00    -0.368 OA
BRANCH   7   8
ATOM      8  C   LIG d   1       0.908  85.921 114.769  0.00  0.00     0.119 C 
BRANCH   8   9
ATOM      9  C   LIG d   1      -0.423  85.609 114.058  0.00  0.00     0.028 C 
ATOM     10  C   LIG d   1      -0.226  85.244 112.577  0.00  0.00     0.006 C 
ENDBRANCH   8   9
BRANCH   8  11
ATOM     11  C   LIG d   1       0.647  85.651 116.254  0.00  0.00     0.028 C 
ATOM     12  C   LIG d   1      -0.122  84.343 116.496  0.00  0.00     0.006 C 
ENDBRANCH   8  11
ENDBRANCH   7   8
ENDBRANCH   1   7
BRANCH   6  13
ATOM     13  N   LIG d   1       3.786  86.978 113.003  0.00  0.00    -0.311 N 
ATOM     14  C   LIG d   1       3.299  86.602 111.821  0.00  0.00     0.210 C 
ATOM     15  C   LIG d   1       3.876  85.295 111.270  0.00  0.00     0.109 C 
ATOM     16  O   LIG d   1       2.468  87.245 111.162  0.00  0.00    -0.276 OA
ATOM     17  H   LIG d   1       4.481  86.414 113.451  0.00  0.00     0.149 HD
ENDBRANCH   6  13
BRANCH   5  18
ATOM     18  N   LIG d   1       5.272  89.647 112.968  0.00  0.00     0.381 N 
ATOM     19  H   LIG d   1       5.766  88.909 112.508  0.00  0.00    -0.090 HD
ATOM     20  H   LIG d   1       5.944  90.318 113.297  0.00  0.00    -0.090 HD
ATOM     21  H   LIG d   1       4.641  90.082 112.332  0.00  0.00    -0.090 HD
ENDBRANCH   5  18
BRANCH   3  22
ATOM     22  C   LIG d   1       3.129  90.726 117.113  0.00  0.00     0.382 C 
ATOM     23  O   LIG d   1       3.384  91.951 117.014  0.00  0.00    -0.241 OA
ATOM     24  O   LIG d   1       2.887  90.239 118.234  0.00  0.00    -0.241 OA
ENDBRANCH   3  22
TORSDOF 7
ENDMDL
MODEL 6
REMARK VINA RESULT:      -5.9      2.164      4.722
REMARK  7 active torsions:
REMARK  status: ('A' for Active; 'I' for Inactive)
REMARK    1  A    between atoms: C_2  and  C_3 
REMARK    2  A    between atoms: C_3  and  O_6 
REMARK    3  A    between atoms: C_3  and  C_4 
REMARK    4  A    between atoms: C_7  and  O_6 
REMARK    5  A    between atoms: C_9  and  C_10 
REMARK    6  A    between atoms: N_15  and  C_14 
REMARK    7  A    between atoms: N_20  and  C_19 
REMARK       I    between atoms: C_22  and  N_20 
ROOT
ATOM      1  C   LIG d   1       2.629  86.329 112.213  0.00  0.00     0.161 C 
ATOM      2  C   LIG d   1       3.411  87.490 112.100  0.00  0.00     0.016 C 
ATOM      3  C   LIG d   1       4.087  88.083 113.191  0.00  0.00     0.038 C 
ATOM      4  C   LIG d   1       4.149  87.465 114.449  0.00  0.00     0.028 C 
ATOM      5  C   LIG d   1       2.959  86.556 114.737  0.00  0.00    -0.047 C 
ATOM      6  C   LIG d   1       2.776  85.578 113.553  0.00  0.00     0.091 C 
ENDROOT
BRANCH   1   7
ATOM      7  O   LIG d   1       2.906  85.443 111.110  0.00  0.00    -0.368 OA
BRANCH   7   8
ATOM      8  C   LIG d   1       1.752  84.904 110.420  0.00  0.00     0.119 C 
BRANCH   8   9
ATOM      9  C   LIG d   1       2.271  83.975 109.306  0.00  0.00     0.028 C 
ATOM     10  C   LIG d   1       3.704  83.484 109.571  0.00  0.00     0.006 C 
ENDBRANCH   8   9
BRANCH   8  11
ATOM     11  C   LIG d   1       0.970  86.006 109.698  0.00  0.00     0.028 C 
ATOM     12  C   LIG d   1      -0.541  85.941 109.972  0.00  0.00     0.006 C 
ENDBRANCH   8  11
ENDBRANCH   7   8
ENDBRANCH   1   7
BRANCH   6  13
ATOM     13  N   LIG d   1       1.581  84.709 113.716  0.00  0.00    -0.311 N 
ATOM     14  C   LIG d   1       1.648  83.383 113.813  0.00  0.00     0.210 C 
ATOM     15  C   LIG d   1       0.296  82.676 113.955  0.00  0.00     0.109 C 
ATOM     16  O   LIG d   1       2.700  82.726 113.828  0.00  0.00    -0.276 OA
ATOM     17  H   LIG d   1       0.689  85.162 113.745  0.00  0.00     0.149 HD
ENDBRANCH   6  13
BRANCH   5  18
ATOM     18  N   LIG d   1       3.220  85.872 116.017  0.00  0.00     0.381 N 
ATOM     19  H   LIG d   1       2.513  85.184 116.184  0.00  0.00    -0.090 HD
ATOM     20  H   LIG d   1       3.186  86.547 116.760  0.00  0.00    -0.090 HD
ATOM     21  H   LIG d   1       4.117  85.437 115.995  0.00  0.00    -0.090 HD
ENDBRANCH   5  18
BRANCH   3  22
ATOM     22  C   LIG d   1       4.676  89.329 113.039  0.00  0.00     0.382 C 
ATOM     23  O   LIG d   1       4.002  90.369 113.232  0.00  0.00    -0.241 OA
ATOM     24  O   LIG d   1       5.862  89.426 112.670  0.00  0.00    -0.241 OA
ENDBRANCH   3  22
TORSDOF 7
ENDMDL
MODEL 7
REMARK VINA RESULT:      -5.7      4.899      6.408
REMARK  7 active torsions:
REMARK  status: ('A' for Active; 'I' for Inactive)
REMARK    1  A    between atoms: C_2  and  C_3 
REMARK    2  A    between atoms: C_3  and  O_6 
REMARK    3  A    between atoms: C_3  and  C_4 
REMARK    4  A    between atoms: C_7  and  O_6 
REMARK    5  A    between atoms: C_9  and  C_10 
REMARK    6  A    between atoms: N_15  and  C_14 
REMARK    7  A    between atoms: N_20  and  C_19 
REMARK       I    between atoms: C_22  and  N_20 
ROOT
ATOM      1  C   LIG d   1      -0.402  81.297 111.769  0.00  0.00     0.161 C 
ATOM      2  C   LIG d   1      -1.011  80.032 111.702  0.00  0.00     0.016 C 
ATOM      3  C   LIG d   1      -1.897  79.542 112.689  0.00  0.00     0.038 C 
ATOM      4  C   LIG d   1      -2.356  80.349 113.740  0.00  0.00     0.028 C 
ATOM      5  C   LIG d   1      -1.380  81.456 114.124  0.00  0.00    -0.047 C 
ATOM      6  C   LIG d   1      -0.977  82.235 112.850  0.00  0.00     0.091 C 
ENDROOT
BRANCH   1   7
ATOM      7  O   LIG d   1      -0.454  81.932 110.476  0.00  0.00    -0.368 OA
BRANCH   7   8
ATOM      8  C   LIG d   1       0.816  82.102 109.799  0.00  0.00     0.119 C 
BRANCH   8   9
ATOM      9  C   LIG d   1       1.890  81.387 110.641  0.00  0.00     0.028 C 
ATOM     10  C   LIG d   1       3.125  82.268 110.888  0.00  0.00     0.006 C 
ENDBRANCH   8   9
BRANCH   8  11
ATOM     11  C   LIG d   1       1.238  83.574 109.769  0.00  0.00     0.028 C 
ATOM     12  C   LIG d   1       0.041  84.536 109.701  0.00  0.00     0.006 C 
ENDBRANCH   8  11
ENDBRANCH   7   8
ENDBRANCH   1   7
BRANCH   6  13
ATOM     13  N   LIG d   1       0.041  83.282 113.124  0.00  0.00    -0.311 N 
ATOM     14  C   LIG d   1      -0.264  84.558 113.353  0.00  0.00     0.210 C 
ATOM     15  C   LIG d   1       0.938  85.477 113.594  0.00  0.00     0.109 C 
ATOM     16  O   LIG d   1      -1.418  85.011 113.412  0.00  0.00    -0.276 OA
ATOM     17  H   LIG d   1       1.000  82.996 113.127  0.00  0.00     0.149 HD
ENDBRANCH   6  13
BRANCH   5  18
ATOM     18  N   LIG d   1      -2.042  82.304 115.134  0.00  0.00     0.381 N 
ATOM     19  H   LIG d   1      -1.949  81.887 116.039  0.00  0.00    -0.090 HD
ATOM     20  H   LIG d   1      -3.020  82.367 114.915  0.00  0.00    -0.090 HD
ATOM     21  H   LIG d   1      -1.635  83.213 115.136  0.00  0.00    -0.090 HD
ENDBRANCH   5  18
BRANCH   3  22
ATOM     22  C   LIG d   1      -2.302  78.216 112.651  0.00  0.00     0.382 C 
ATOM     23  O   LIG d   1      -1.607  77.332 113.207  0.00  0.00    -0.241 OA
ATOM     24  O   LIG d   1      -3.331  77.888 112.030  0.00  0.00    -0.241 OA
ENDBRANCH   3  22
TORSDOF 7
ENDMDL
MODEL 8
REMARK VINA RESULT:      -5.7     25.695     28.191
REMARK  7 active torsions:
REMARK  status: ('A' for Active; 'I' for Inactive)
REMARK    1  A    between atoms: C_2  and  C_3 
REMARK    2  A    between atoms: C_3  and  O_6 
REMARK    3  A    between atoms: C_3  and  C_4 
REMARK    4  A    between atoms: C_7  and  O_6 
REMARK    5  A    between atoms: C_9  and  C_10 
REMARK    6  A    between atoms: N_15  and  C_14 
REMARK    7  A    between atoms: N_20  and  C_19 
REMARK       I    between atoms: C_22  and  N_20 
ROOT
ATOM      1  C   LIG d   1     -16.413  65.980 113.621  0.00  0.00     0.161 C 
ATOM      2  C   LIG d   1     -15.902  66.773 112.580  0.00  0.00     0.016 C 
ATOM      3  C   LIG d   1     -15.230  67.998 112.794  0.00  0.00     0.038 C 
ATOM      4  C   LIG d   1     -14.889  68.442 114.080  0.00  0.00     0.028 C 
ATOM      5  C   LIG d   1     -15.827  67.928 115.167  0.00  0.00    -0.047 C 
ATOM      6  C   LIG d   1     -15.953  66.393 115.035  0.00  0.00     0.091 C 
ENDROOT
BRANCH   1   7
ATOM      7  O   LIG d   1     -16.101  64.594 113.378  0.00  0.00    -0.368 OA
BRANCH   7   8
ATOM      8  C   LIG d   1     -17.215  63.746 113.004  0.00  0.00     0.119 C 
BRANCH   8   9
ATOM      9  C   LIG d   1     -18.470  64.637 112.927  0.00  0.00     0.028 C 
ATOM     10  C   LIG d   1     -19.247  64.445 111.614  0.00  0.00     0.006 C 
ENDBRANCH   8   9
BRANCH   8  11
ATOM     11  C   LIG d   1     -17.518  62.711 114.092  0.00  0.00     0.028 C 
ATOM     12  C   LIG d   1     -17.791  61.310 113.522  0.00  0.00     0.006 C 
ENDBRANCH   8  11
ENDBRANCH   7   8
ENDBRANCH   1   7
BRANCH   6  13
ATOM     13  N   LIG d   1     -16.918  65.818 116.008  0.00  0.00    -0.311 N 
ATOM     14  C   LIG d   1     -16.609  64.837 116.854  0.00  0.00     0.210 C 
ATOM     15  C   LIG d   1     -17.758  64.377 117.758  0.00  0.00     0.109 C 
ATOM     16  O   LIG d   1     -15.485  64.325 116.964  0.00  0.00    -0.276 OA
ATOM     17  H   LIG d   1     -17.846  66.195 116.008  0.00  0.00     0.149 HD
ENDBRANCH   6  13
BRANCH   5  18
ATOM     18  N   LIG d   1     -15.276  68.352 116.468  0.00  0.00     0.381 N 
ATOM     19  H   LIG d   1     -14.653  67.652 116.817  0.00  0.00    -0.090 HD
ATOM     20  H   LIG d   1     -16.032  68.456 117.122  0.00  0.00    -0.090 HD
ATOM     21  H   LIG d   1     -14.793  69.218 116.368  0.00  0.00    -0.090 HD
ENDBRANCH   5  18
BRANCH   3  22
ATOM     22  C   LIG d   1     -14.928  68.813 111.714  0.00  0.00     0.382 C 
ATOM     23  O   LIG d   1     -13.756  68.855 111.268  0.00  0.00    -0.241 OA
ATOM     24  O   LIG d   1     -15.803  69.541 111.207  0.00  0.00    -0.241 OA
ENDBRANCH   3  22
TORSDOF 7
ENDMDL
MODEL 9
REMARK VINA RESULT:      -5.7      2.900      5.619
REMARK  7 active torsions:
REMARK  status: ('A' for Active; 'I' for Inactive)
REMARK    1  A    between atoms: C_2  and  C_3 
REMARK    2  A    between atoms: C_3  and  O_6 
REMARK    3  A    between atoms: C_3  and  C_4 
REMARK    4  A    between atoms: C_7  and  O_6 
REMARK    5  A    between atoms: C_9  and  C_10 
REMARK    6  A    between atoms: N_15  and  C_14 
REMARK    7  A    between atoms: N_20  and  C_19 
REMARK       I    between atoms: C_22  and  N_20 
ROOT
ATOM      1  C   LIG d   1       0.800  85.016 111.130  0.00  0.00     0.161 C 
ATOM      2  C   LIG d   1       1.776  86.024 111.068  0.00  0.00     0.016 C 
ATOM      3  C   LIG d   1       2.525  86.452 112.188  0.00  0.00     0.038 C 
ATOM      4  C   LIG d   1       2.455  85.790 113.423  0.00  0.00     0.028 C 
ATOM      5  C   LIG d   1       1.119  85.097 113.664  0.00  0.00    -0.047 C 
ATOM      6  C   LIG d   1       0.788  84.207 112.444  0.00  0.00     0.091 C 
ENDROOT
BRANCH   1   7
ATOM      7  O   LIG d   1       0.937  84.133 109.999  0.00  0.00    -0.368 OA
BRANCH   7   8
ATOM      8  C   LIG d   1       1.844  83.016 110.169  0.00  0.00     0.119 C 
BRANCH   8   9
ATOM      9  C   LIG d   1       3.091  83.297 109.308  0.00  0.00     0.028 C 
ATOM     10  C   LIG d   1       4.310  83.697 110.156  0.00  0.00     0.006 C 
ENDBRANCH   8   9
BRANCH   8  11
ATOM     11  C   LIG d   1       1.246  81.723 109.606  0.00  0.00     0.028 C 
ATOM     12  C   LIG d   1       2.305  80.639 109.351  0.00  0.00     0.006 C 
ENDBRANCH   8  11
ENDBRANCH   7   8
ENDBRANCH   1   7
BRANCH   6  13
ATOM     13  N   LIG d   1      -0.544  83.557 112.560  0.00  0.00    -0.311 N 
ATOM     14  C   LIG d   1      -0.714  82.304 112.976  0.00  0.00     0.210 C 
ATOM     15  C   LIG d   1      -2.168  81.823 113.003  0.00  0.00     0.109 C 
ATOM     16  O   LIG d   1       0.199  81.555 113.356  0.00  0.00    -0.276 OA
ATOM     17  H   LIG d   1      -1.342  84.104 112.301  0.00  0.00     0.149 HD
ENDBRANCH   6  13
BRANCH   5  18
ATOM     18  N   LIG d   1       1.232  84.334 114.921  0.00  0.00     0.381 N 
ATOM     19  H   LIG d   1       0.453  83.714 115.013  0.00  0.00    -0.090 HD
ATOM     20  H   LIG d   1       1.216  84.977 115.694  0.00  0.00    -0.090 HD
ATOM     21  H   LIG d   1       2.082  83.815 114.930  0.00  0.00    -0.090 HD
ENDBRANCH   5  18
BRANCH   3  22
ATOM     22  C   LIG d   1       3.327  87.578 112.089  0.00  0.00     0.382 C 
ATOM     23  O   LIG d   1       4.490  87.482 111.626  0.00  0.00    -0.241 OA
ATOM     24  O   LIG d   1       2.919  88.682 112.497  0.00  0.00    -0.241 OA
ENDBRANCH   3  22
TORSDOF 7
ENDMDL
