MODEL 1
REMARK VINA RESULT:      -4.8      0.000      0.000
REMARK  7 active torsions:
REMARK  status: ('A' for Active; 'I' for Inactive)
REMARK    1  A    between atoms: C_2  and  C_3 
REMARK    2  A    between atoms: C_3  and  O_6 
REMARK    3  A    between atoms: C_3  and  C_4 
REMARK    4  A    between atoms: C_7  and  O_6 
REMARK    5  A    between atoms: C_9  and  C_10 
REMARK    6  A    between atoms: N_15  and  C_14 
REMARK    7  A    between atoms: N_20  and  C_19 
REMARK       I    between atoms: C_22  and  N_20 
ROOT
ATOM      1  C   LIG d   1      -2.979  91.747 117.476  0.00  0.00     0.161 C 
ATOM      2  C   LIG d   1      -4.267  92.303 117.411  0.00  0.00     0.016 C 
ATOM      3  C   LIG d   1      -5.333  91.713 116.693  0.00  0.00     0.038 C 
ATOM      4  C   LIG d   1      -5.222  90.441 116.113  0.00  0.00     0.028 C 
ATOM      5  C   LIG d   1      -3.794  90.074 115.726  0.00  0.00    -0.047 C 
ATOM      6  C   LIG d   1      -2.869  90.304 116.943  0.00  0.00     0.091 C 
ENDROOT
BRANCH   1   7
ATOM      7  O   LIG d   1      -2.483  91.821 118.828  0.00  0.00    -0.368 OA
BRANCH   7   8
ATOM      8  C   LIG d   1      -1.496  92.849 119.090  0.00  0.00     0.119 C 
BRANCH   8   9
ATOM      9  C   LIG d   1      -2.252  94.108 119.555  0.00  0.00     0.028 C 
ATOM     10  C   LIG d   1      -1.578  95.406 119.079  0.00  0.00     0.006 C 
ENDBRANCH   8   9
BRANCH   8  11
ATOM     11  C   LIG d   1      -0.769  93.263 117.807  0.00  0.00     0.028 C 
ATOM     12  C   LIG d   1       0.676  92.743 117.748  0.00  0.00     0.006 C 
ENDBRANCH   8  11
ENDBRANCH   7   8
ENDBRANCH   1   7
BRANCH   6  13
ATOM     13  N   LIG d   1      -1.440  90.049 116.624  0.00  0.00    -0.311 N 
ATOM     14  C   LIG d   1      -0.690  89.162 117.276  0.00  0.00     0.210 C 
ATOM     15  C   LIG d   1       0.764  89.071 116.802  0.00  0.00     0.109 C 
ATOM     16  O   LIG d   1      -1.099  88.420 118.182  0.00  0.00    -0.276 OA
ATOM     17  H   LIG d   1      -1.035  90.586 115.882  0.00  0.00     0.149 HD
ENDBRANCH   6  13
BRANCH   5  18
ATOM     18  N   LIG d   1      -3.803  88.674 115.262  0.00  0.00     0.381 N 
ATOM     19  H   LIG d   1      -4.370  88.119 115.873  0.00  0.00    -0.090 HD
ATOM     20  H   LIG d   1      -2.865  88.316 115.291  0.00  0.00    -0.090 HD
ATOM     21  H   LIG d   1      -4.158  88.625 114.332  0.00  0.00    -0.090 HD
ENDBRANCH   5  18
BRANCH   3  22
ATOM     22  C   LIG d   1      -6.515  92.417 116.517  0.00  0.00     0.382 C 
ATOM     23  O   LIG d   1      -7.303  92.571 117.481  0.00  0.00    -0.241 OA
ATOM     24  O   LIG d   1      -6.824  92.861 115.395  0.00  0.00    -0.241 OA
ENDBRANCH   3  22
TORSDOF 7
ENDMDL
MODEL 2
REMARK VINA RESULT:      -4.6     20.939     23.583
REMARK  7 active torsions:
REMARK  status: ('A' for Active; 'I' for Inactive)
REMARK    1  A    between atoms: C_2  and  C_3 
REMARK    2  A    between atoms: C_3  and  O_6 
REMARK    3  A    between atoms: C_3  and  C_4 
REMARK    4  A    between atoms: C_7  and  O_6 
REMARK    5  A    between atoms: C_9  and  C_10 
REMARK    6  A    between atoms: N_15  and  C_14 
REMARK    7  A    between atoms: N_20  and  C_19 
REMARK       I    between atoms: C_22  and  N_20 
ROOT
ATOM      1  C   LIG d   1     -23.814  83.401 113.858  0.00  0.00     0.161 C 
ATOM      2  C   LIG d   1     -22.968  84.515 113.988  0.00  0.00     0.016 C 
ATOM      3  C   LIG d   1     -23.406  85.849 113.820  0.00  0.00     0.038 C 
ATOM      4  C   LIG d   1     -24.762  86.169 113.657  0.00  0.00     0.028 C 
ATOM      5  C   LIG d   1     -25.576  85.050 113.017  0.00  0.00    -0.047 C 
ATOM      6  C   LIG d   1     -25.318  83.736 113.791  0.00  0.00     0.091 C 
ENDROOT
BRANCH   1   7
ATOM      7  O   LIG d   1     -23.556  82.465 114.923  0.00  0.00    -0.368 OA
BRANCH   7   8
ATOM      8  C   LIG d   1     -24.308  82.666 116.145  0.00  0.00     0.119 C 
BRANCH   8   9
ATOM      9  C   LIG d   1     -23.296  82.965 117.268  0.00  0.00     0.028 C 
ATOM     10  C   LIG d   1     -21.879  82.474 116.927  0.00  0.00     0.006 C 
ENDBRANCH   8   9
BRANCH   8  11
ATOM     11  C   LIG d   1     -25.025  81.383 116.576  0.00  0.00     0.028 C 
ATOM     12  C   LIG d   1     -24.729  80.195 115.647  0.00  0.00     0.006 C 
ENDBRANCH   8  11
ENDBRANCH   7   8
ENDBRANCH   1   7
BRANCH   6  13
ATOM     13  N   LIG d   1     -26.011  82.573 113.179  0.00  0.00    -0.311 N 
ATOM     14  C   LIG d   1     -27.203  82.134 113.582  0.00  0.00     0.210 C 
ATOM     15  C   LIG d   1     -27.729  80.908 112.829  0.00  0.00     0.109 C 
ATOM     16  O   LIG d   1     -27.888  82.663 114.469  0.00  0.00    -0.276 OA
ATOM     17  H   LIG d   1     -25.540  82.103 112.431  0.00  0.00     0.149 HD
ENDBRANCH   6  13
BRANCH   5  18
ATOM     18  N   LIG d   1     -26.992  85.463 113.034  0.00  0.00     0.381 N 
ATOM     19  H   LIG d   1     -27.457  85.045 113.815  0.00  0.00    -0.090 HD
ATOM     20  H   LIG d   1     -27.435  85.138 112.193  0.00  0.00    -0.090 HD
ATOM     21  H   LIG d   1     -27.057  86.455 113.090  0.00  0.00    -0.090 HD
ENDBRANCH   5  18
BRANCH   3  22
ATOM     22  C   LIG d   1     -22.476  86.877 113.773  0.00  0.00     0.382 C 
ATOM     23  O   LIG d   1     -21.436  86.750 113.083  0.00  0.00    -0.241 OA
ATOM     24  O   LIG d   1     -22.643  87.911 114.447  0.00  0.00    -0.241 OA
ENDBRANCH   3  22
TORSDOF 7
ENDMDL
MODEL 3
REMARK VINA RESULT:      -4.4      2.515      4.637
REMARK  7 active torsions:
REMARK  status: ('A' for Active; 'I' for Inactive)
REMARK    1  A    between atoms: C_2  and  C_3 
REMARK    2  A    between atoms: C_3  and  O_6 
REMARK    3  A    between atoms: C_3  and  C_4 
REMARK    4  A    between atoms: C_7  and  O_6 
REMARK    5  A    between atoms: C_9  and  C_10 
REMARK    6  A    between atoms: N_15  and  C_14 
REMARK    7  A    between atoms: N_20  and  C_19 
REMARK       I    between atoms: C_22  and  N_20 
ROOT
ATOM      1  C   LIG d   1      -1.413  89.810 117.289  0.00  0.00     0.161 C 
ATOM      2  C   LIG d   1      -2.620  89.447 116.669  0.00  0.00     0.016 C 
ATOM      3  C   LIG d   1      -3.681  90.353 116.441  0.00  0.00     0.038 C 
ATOM      4  C   LIG d   1      -3.546  91.729 116.684  0.00  0.00     0.028 C 
ATOM      5  C   LIG d   1      -2.532  92.055 117.775  0.00  0.00    -0.047 C 
ATOM      6  C   LIG d   1      -1.204  91.330 117.459  0.00  0.00     0.091 C 
ENDROOT
BRANCH   1   7
ATOM      7  O   LIG d   1      -0.303  89.229 116.576  0.00  0.00    -0.368 OA
BRANCH   7   8
ATOM      8  C   LIG d   1       0.068  87.883 116.961  0.00  0.00     0.119 C 
BRANCH   8   9
ATOM      9  C   LIG d   1       0.464  87.920 118.450  0.00  0.00     0.028 C 
ATOM     10  C   LIG d   1      -0.430  87.017 119.317  0.00  0.00     0.006 C 
ENDBRANCH   8   9
BRANCH   8  11
ATOM     11  C   LIG d   1       1.324  87.417 116.219  0.00  0.00     0.028 C 
ATOM     12  C   LIG d   1       1.034  86.975 114.776  0.00  0.00     0.006 C 
ENDBRANCH   8  11
ENDBRANCH   7   8
ENDBRANCH   1   7
BRANCH   6  13
ATOM     13  N   LIG d   1      -0.184  91.527 118.522  0.00  0.00    -0.311 N 
ATOM     14  C   LIG d   1       0.952  92.195 118.331  0.00  0.00     0.210 C 
ATOM     15  C   LIG d   1       1.874  92.265 119.553  0.00  0.00     0.109 C 
ATOM     16  O   LIG d   1       1.270  92.765 117.276  0.00  0.00    -0.276 OA
ATOM     17  H   LIG d   1      -0.375  91.125 119.418  0.00  0.00     0.149 HD
ENDBRANCH   6  13
BRANCH   5  18
ATOM     18  N   LIG d   1      -2.391  93.522 117.828  0.00  0.00     0.381 N 
ATOM     19  H   LIG d   1      -2.843  93.935 117.036  0.00  0.00    -0.090 HD
ATOM     20  H   LIG d   1      -1.415  93.757 117.791  0.00  0.00    -0.090 HD
ATOM     21  H   LIG d   1      -2.793  93.874 118.669  0.00  0.00    -0.090 HD
ENDBRANCH   5  18
BRANCH   3  22
ATOM     22  C   LIG d   1      -4.908  89.879 116.003  0.00  0.00     0.382 C 
ATOM     23  O   LIG d   1      -4.984  89.239 114.927  0.00  0.00    -0.241 OA
ATOM     24  O   LIG d   1      -5.946  90.121 116.647  0.00  0.00    -0.241 OA
ENDBRANCH   3  22
TORSDOF 7
ENDMDL
MODEL 4
REMARK VINA RESULT:      -4.3      2.732      6.548
REMARK  7 active torsions:
REMARK  status: ('A' for Active; 'I' for Inactive)
REMARK    1  A    between atoms: C_2  and  C_3 
REMARK    2  A    between atoms: C_3  and  O_6 
REMARK    3  A    between atoms: C_3  and  C_4 
REMARK    4  A    between atoms: C_7  and  O_6 
REMARK    5  A    between atoms: C_9  and  C_10 
REMARK    6  A    between atoms: N_15  and  C_14 
REMARK    7  A    between atoms: N_20  and  C_19 
REMARK       I    between atoms: C_22  and  N_20 
ROOT
ATOM      1  C   LIG d   1       0.151  90.212 116.910  0.00  0.00     0.161 C 
ATOM      2  C   LIG d   1       1.446  90.441 117.405  0.00  0.00     0.016 C 
ATOM      3  C   LIG d   1       1.871  91.686 117.924  0.00  0.00     0.038 C 
ATOM      4  C   LIG d   1       0.979  92.750 118.123  0.00  0.00     0.028 C 
ATOM      5  C   LIG d   1      -0.213  92.727 117.172  0.00  0.00    -0.047 C 
ATOM      6  C   LIG d   1      -0.868  91.328 117.222  0.00  0.00     0.091 C 
ENDROOT
BRANCH   1   7
ATOM      7  O   LIG d   1      -0.335  88.941 117.386  0.00  0.00    -0.368 OA
BRANCH   7   8
ATOM      8  C   LIG d   1      -0.186  88.693 118.806  0.00  0.00     0.119 C 
BRANCH   8   9
ATOM      9  C   LIG d   1       0.120  87.193 118.983  0.00  0.00     0.028 C 
ATOM     10  C   LIG d   1       0.989  86.632 117.845  0.00  0.00     0.006 C 
ENDBRANCH   8   9
BRANCH   8  11
ATOM     11  C   LIG d   1      -1.500  88.930 119.555  0.00  0.00     0.028 C 
ATOM     12  C   LIG d   1      -2.729  88.439 118.773  0.00  0.00     0.006 C 
ENDBRANCH   8  11
ENDBRANCH   7   8
ENDBRANCH   1   7
BRANCH   6  13
ATOM     13  N   LIG d   1      -1.991  91.193 116.258  0.00  0.00    -0.311 N 
ATOM     14  C   LIG d   1      -3.268  91.371 116.591  0.00  0.00     0.210 C 
ATOM     15  C   LIG d   1      -4.269  91.164 115.449  0.00  0.00     0.109 C 
ATOM     16  O   LIG d   1      -3.665  91.713 117.715  0.00  0.00    -0.276 OA
ATOM     17  H   LIG d   1      -1.756  90.948 115.315  0.00  0.00     0.149 HD
ENDBRANCH   6  13
BRANCH   5  18
ATOM     18  N   LIG d   1      -1.130  93.809 117.580  0.00  0.00     0.381 N 
ATOM     19  H   LIG d   1      -1.844  93.926 116.889  0.00  0.00    -0.090 HD
ATOM     20  H   LIG d   1      -0.611  94.667 117.646  0.00  0.00    -0.090 HD
ATOM     21  H   LIG d   1      -1.541  93.593 118.461  0.00  0.00    -0.090 HD
ENDBRANCH   5  18
BRANCH   3  22
ATOM     22  C   LIG d   1       3.212  91.888 118.213  0.00  0.00     0.382 C 
ATOM     23  O   LIG d   1       3.987  92.314 117.323  0.00  0.00    -0.241 OA
ATOM     24  O   LIG d   1       3.665  91.609 119.339  0.00  0.00    -0.241 OA
ENDBRANCH   3  22
TORSDOF 7
ENDMDL
MODEL 5
REMARK VINA RESULT:      -4.2     28.421     30.720
REMARK  7 active torsions:
REMARK  status: ('A' for Active; 'I' for Inactive)
REMARK    1  A    between atoms: C_2  and  C_3 
REMARK    2  A    between atoms: C_3  and  O_6 
REMARK    3  A    between atoms: C_3  and  C_4 
REMARK    4  A    between atoms: C_7  and  O_6 
REMARK    5  A    between atoms: C_9  and  C_10 
REMARK    6  A    between atoms: N_15  and  C_14 
REMARK    7  A    between atoms: N_20  and  C_19 
REMARK       I    between atoms: C_22  and  N_20 
ROOT
ATOM      1  C   LIG d   1     -15.776  64.901 115.762  0.00  0.00     0.161 C 
ATOM      2  C   LIG d   1     -15.004  65.249 116.883  0.00  0.00     0.016 C 
ATOM      3  C   LIG d   1     -15.517  65.965 117.989  0.00  0.00     0.038 C 
ATOM      4  C   LIG d   1     -16.884  66.254 118.116  0.00  0.00     0.028 C 
ATOM      5  C   LIG d   1     -17.606  66.366 116.778  0.00  0.00    -0.047 C 
ATOM      6  C   LIG d   1     -17.295  65.110 115.933  0.00  0.00     0.091 C 
ENDROOT
BRANCH   1   7
ATOM      7  O   LIG d   1     -15.497  63.540 115.380  0.00  0.00    -0.368 OA
BRANCH   7   8
ATOM      8  C   LIG d   1     -16.044  62.511 116.242  0.00  0.00     0.119 C 
BRANCH   8   9
ATOM      9  C   LIG d   1     -14.858  61.778 116.898  0.00  0.00     0.028 C 
ATOM     10  C   LIG d   1     -15.313  60.720 117.917  0.00  0.00     0.006 C 
ENDBRANCH   8   9
BRANCH   8  11
ATOM     11  C   LIG d   1     -16.784  61.441 115.433  0.00  0.00     0.028 C 
ATOM     12  C   LIG d   1     -16.898  61.795 113.941  0.00  0.00     0.006 C 
ENDBRANCH   8  11
ENDBRANCH   7   8
ENDBRANCH   1   7
BRANCH   6  13
ATOM     13  N   LIG d   1     -17.895  65.178 114.575  0.00  0.00    -0.311 N 
ATOM     14  C   LIG d   1     -19.085  64.661 114.272  0.00  0.00     0.210 C 
ATOM     15  C   LIG d   1     -19.507  64.823 112.809  0.00  0.00     0.109 C 
ATOM     16  O   LIG d   1     -19.844  64.111 115.084  0.00  0.00    -0.276 OA
ATOM     17  H   LIG d   1     -17.360  65.634 113.862  0.00  0.00     0.149 HD
ENDBRANCH   6  13
BRANCH   5  18
ATOM     18  N   LIG d   1     -19.045  66.531 117.061  0.00  0.00     0.381 N 
ATOM     19  H   LIG d   1     -19.387  67.354 116.607  0.00  0.00    -0.090 HD
ATOM     20  H   LIG d   1     -19.171  66.642 118.052  0.00  0.00    -0.090 HD
ATOM     21  H   LIG d   1     -19.549  65.733 116.742  0.00  0.00    -0.090 HD
ENDBRANCH   5  18
BRANCH   3  22
ATOM     22  C   LIG d   1     -14.651  66.436 118.964  0.00  0.00     0.382 C 
ATOM     23  O   LIG d   1     -13.879  65.642 119.554  0.00  0.00    -0.241 OA
ATOM     24  O   LIG d   1     -14.663  67.638 119.292  0.00  0.00    -0.241 OA
ENDBRANCH   3  22
TORSDOF 7
ENDMDL
MODEL 6
REMARK VINA RESULT:      -4.2      5.416      7.855
REMARK  7 active torsions:
REMARK  status: ('A' for Active; 'I' for Inactive)
REMARK    1  A    between atoms: C_2  and  C_3 
REMARK    2  A    between atoms: C_3  and  O_6 
REMARK    3  A    between atoms: C_3  and  C_4 
REMARK    4  A    between atoms: C_7  and  O_6 
REMARK    5  A    between atoms: C_9  and  C_10 
REMARK    6  A    between atoms: N_15  and  C_14 
REMARK    7  A    between atoms: N_20  and  C_19 
REMARK       I    between atoms: C_22  and  N_20 
ROOT
ATOM      1  C   LIG d   1       2.011  88.140 115.838  0.00  0.00     0.161 C 
ATOM      2  C   LIG d   1       1.110  87.349 115.107  0.00  0.00     0.016 C 
ATOM      3  C   LIG d   1       1.513  86.414 114.126  0.00  0.00     0.038 C 
ATOM      4  C   LIG d   1       2.863  86.096 113.915  0.00  0.00     0.028 C 
ATOM      5  C   LIG d   1       3.816  87.232 114.273  0.00  0.00    -0.047 C 
ATOM      6  C   LIG d   1       3.492  87.728 115.701  0.00  0.00     0.091 C 
ENDROOT
BRANCH   1   7
ATOM      7  O   LIG d   1       1.625  88.165 117.226  0.00  0.00    -0.368 OA
BRANCH   7   8
ATOM      8  C   LIG d   1       0.480  87.352 117.584  0.00  0.00     0.119 C 
BRANCH   8   9
ATOM      9  C   LIG d   1      -0.523  88.263 118.318  0.00  0.00     0.028 C 
ATOM     10  C   LIG d   1      -1.494  88.964 117.354  0.00  0.00     0.006 C 
ENDBRANCH   8   9
BRANCH   8  11
ATOM     11  C   LIG d   1       0.861  86.268 118.597  0.00  0.00     0.028 C 
ATOM     12  C   LIG d   1       1.442  85.010 117.933  0.00  0.00     0.006 C 
ENDBRANCH   8  11
ENDBRANCH   7   8
ENDBRANCH   1   7
BRANCH   6  13
ATOM     13  N   LIG d   1       4.322  88.895 116.098  0.00  0.00    -0.311 N 
ATOM     14  C   LIG d   1       5.479  88.784 116.748  0.00  0.00     0.210 C 
ATOM     15  C   LIG d   1       6.165  90.113 117.079  0.00  0.00     0.109 C 
ATOM     16  O   LIG d   1       6.019  87.710 117.054  0.00  0.00    -0.276 OA
ATOM     17  H   LIG d   1       3.975  89.803 115.861  0.00  0.00     0.149 HD
ENDBRANCH   6  13
BRANCH   5  18
ATOM     18  N   LIG d   1       5.192  86.719 114.137  0.00  0.00     0.381 N 
ATOM     19  H   LIG d   1       5.438  86.189 114.949  0.00  0.00    -0.090 HD
ATOM     20  H   LIG d   1       5.824  87.498 114.066  0.00  0.00    -0.090 HD
ATOM     21  H   LIG d   1       5.265  86.148 113.324  0.00  0.00    -0.090 HD
ENDBRANCH   5  18
BRANCH   3  22
ATOM     22  C   LIG d   1       0.562  85.814 113.315  0.00  0.00     0.382 C 
ATOM     23  O   LIG d   1       0.736  84.641 112.906  0.00  0.00    -0.241 OA
ATOM     24  O   LIG d   1      -0.448  86.447 112.952  0.00  0.00    -0.241 OA
ENDBRANCH   3  22
TORSDOF 7
ENDMDL
MODEL 7
REMARK VINA RESULT:      -4.1     20.589     23.908
REMARK  7 active torsions:
REMARK  status: ('A' for Active; 'I' for Inactive)
REMARK    1  A    between atoms: C_2  and  C_3 
REMARK    2  A    between atoms: C_3  and  O_6 
REMARK    3  A    between atoms: C_3  and  C_4 
REMARK    4  A    between atoms: C_7  and  O_6 
REMARK    5  A    between atoms: C_9  and  C_10 
REMARK    6  A    between atoms: N_15  and  C_14 
REMARK    7  A    between atoms: N_20  and  C_19 
REMARK       I    between atoms: C_22  and  N_20 
ROOT
ATOM      1  C   LIG d   1     -25.226  84.820 114.799  0.00  0.00     0.161 C 
ATOM      2  C   LIG d   1     -24.409  85.942 114.583  0.00  0.00     0.016 C 
ATOM      3  C   LIG d   1     -23.209  85.900 113.837  0.00  0.00     0.038 C 
ATOM      4  C   LIG d   1     -22.820  84.756 113.123  0.00  0.00     0.028 C 
ATOM      5  C   LIG d   1     -23.350  83.458 113.723  0.00  0.00    -0.047 C 
ATOM      6  C   LIG d   1     -24.875  83.590 113.936  0.00  0.00     0.091 C 
ENDROOT
BRANCH   1   7
ATOM      7  O   LIG d   1     -26.609  85.180 114.619  0.00  0.00    -0.368 OA
BRANCH   7   8
ATOM      8  C   LIG d   1     -27.027  86.427 115.227  0.00  0.00     0.119 C 
BRANCH   8   9
ATOM      9  C   LIG d   1     -28.041  86.085 116.336  0.00  0.00     0.028 C 
ATOM     10  C   LIG d   1     -28.648  84.683 116.164  0.00  0.00     0.006 C 
ENDBRANCH   8   9
BRANCH   8  11
ATOM     11  C   LIG d   1     -27.795  87.303 114.232  0.00  0.00     0.028 C 
ATOM     12  C   LIG d   1     -27.797  86.725 112.808  0.00  0.00     0.006 C 
ENDBRANCH   8  11
ENDBRANCH   7   8
ENDBRANCH   1   7
BRANCH   6  13
ATOM     13  N   LIG d   1     -25.460  82.394 114.598  0.00  0.00    -0.311 N 
ATOM     14  C   LIG d   1     -26.303  81.560 113.992  0.00  0.00     0.210 C 
ATOM     15  C   LIG d   1     -26.804  80.402 114.861  0.00  0.00     0.109 C 
ATOM     16  O   LIG d   1     -26.659  81.651 112.807  0.00  0.00    -0.276 OA
ATOM     17  H   LIG d   1     -25.201  82.228 115.550  0.00  0.00     0.149 HD
ENDBRANCH   6  13
BRANCH   5  18
ATOM     18  N   LIG d   1     -22.986  82.362 112.806  0.00  0.00     0.381 N 
ATOM     19  H   LIG d   1     -22.977  81.494 113.302  0.00  0.00    -0.090 HD
ATOM     20  H   LIG d   1     -22.063  82.531 112.448  0.00  0.00    -0.090 HD
ATOM     21  H   LIG d   1     -23.639  82.316 112.054  0.00  0.00    -0.090 HD
ENDBRANCH   5  18
BRANCH   3  22
ATOM     22  C   LIG d   1     -22.364  86.999 113.831  0.00  0.00     0.382 C 
ATOM     23  O   LIG d   1     -22.674  88.032 114.472  0.00  0.00    -0.241 OA
ATOM     24  O   LIG d   1     -21.316  86.986 113.158  0.00  0.00    -0.241 OA
ENDBRANCH   3  22
TORSDOF 7
ENDMDL
MODEL 8
REMARK VINA RESULT:      -4.1     29.888     32.032
REMARK  7 active torsions:
REMARK  status: ('A' for Active; 'I' for Inactive)
REMARK    1  A    between atoms: C_2  and  C_3 
REMARK    2  A    between atoms: C_3  and  O_6 
REMARK    3  A    between atoms: C_3  and  C_4 
REMARK    4  A    between atoms: C_7  and  O_6 
REMARK    5  A    between atoms: C_9  and  C_10 
REMARK    6  A    between atoms: N_15  and  C_14 
REMARK    7  A    between atoms: N_20  and  C_19 
REMARK       I    between atoms: C_22  and  N_20 
ROOT
ATOM      1  C   LIG d   1     -16.233  62.958 116.548  0.00  0.00     0.161 C 
ATOM      2  C   LIG d   1     -15.780  64.203 117.014  0.00  0.00     0.016 C 
ATOM      3  C   LIG d   1     -15.505  65.299 116.164  0.00  0.00     0.038 C 
ATOM      4  C   LIG d   1     -15.810  65.270 114.795  0.00  0.00     0.028 C 
ATOM      5  C   LIG d   1     -15.795  63.866 114.200  0.00  0.00    -0.047 C 
ATOM      6  C   LIG d   1     -16.678  62.943 115.071  0.00  0.00     0.091 C 
ENDROOT
BRANCH   1   7
ATOM      7  O   LIG d   1     -17.295  62.475 117.396  0.00  0.00    -0.368 OA
BRANCH   7   8
ATOM      8  C   LIG d   1     -16.902  61.567 118.455  0.00  0.00     0.119 C 
BRANCH   8   9
ATOM      9  C   LIG d   1     -15.943  60.529 117.842  0.00  0.00     0.028 C 
ATOM     10  C   LIG d   1     -14.847  60.089 118.827  0.00  0.00     0.006 C 
ENDBRANCH   8   9
BRANCH   8  11
ATOM     11  C   LIG d   1     -18.098  60.761 118.969  0.00  0.00     0.028 C 
ATOM     12  C   LIG d   1     -18.639  59.768 117.928  0.00  0.00     0.006 C 
ENDBRANCH   8  11
ENDBRANCH   7   8
ENDBRANCH   1   7
BRANCH   6  13
ATOM     13  N   LIG d   1     -16.651  61.531 114.607  0.00  0.00    -0.311 N 
ATOM     14  C   LIG d   1     -17.746  60.787 114.457  0.00  0.00     0.210 C 
ATOM     15  C   LIG d   1     -17.493  59.351 113.988  0.00  0.00     0.109 C 
ATOM     16  O   LIG d   1     -18.905  61.191 114.637  0.00  0.00    -0.276 OA
ATOM     17  H   LIG d   1     -15.754  61.133 114.409  0.00  0.00     0.149 HD
ENDBRANCH   6  13
BRANCH   5  18
ATOM     18  N   LIG d   1     -16.264  63.968 112.806  0.00  0.00     0.381 N 
ATOM     19  H   LIG d   1     -15.776  63.306 112.235  0.00  0.00    -0.090 HD
ATOM     20  H   LIG d   1     -16.063  64.890 112.461  0.00  0.00    -0.090 HD
ATOM     21  H   LIG d   1     -17.244  63.795 112.762  0.00  0.00    -0.090 HD
ENDBRANCH   5  18
BRANCH   3  22
ATOM     22  C   LIG d   1     -14.880  66.426 116.676  0.00  0.00     0.382 C 
ATOM     23  O   LIG d   1     -15.553  67.295 117.282  0.00  0.00    -0.241 OA
ATOM     24  O   LIG d   1     -13.660  66.606 116.501  0.00  0.00    -0.241 OA
ENDBRANCH   3  22
TORSDOF 7
ENDMDL
MODEL 9
REMARK VINA RESULT:      -4.0      6.036      8.470
REMARK  7 active torsions:
REMARK  status: ('A' for Active; 'I' for Inactive)
REMARK    1  A    between atoms: C_2  and  C_3 
REMARK    2  A    between atoms: C_3  and  O_6 
REMARK    3  A    between atoms: C_3  and  C_4 
REMARK    4  A    between atoms: C_7  and  O_6 
REMARK    5  A    between atoms: C_9  and  C_10 
REMARK    6  A    between atoms: N_15  and  C_14 
REMARK    7  A    between atoms: N_20  and  C_19 
REMARK       I    between atoms: C_22  and  N_20 
ROOT
ATOM      1  C   LIG d   1       3.598  87.932 116.054  0.00  0.00     0.161 C 
ATOM      2  C   LIG d   1       3.893  88.985 116.935  0.00  0.00     0.016 C 
ATOM      3  C   LIG d   1       2.905  89.801 117.532  0.00  0.00     0.038 C 
ATOM      4  C   LIG d   1       1.536  89.521 117.406  0.00  0.00     0.028 C 
ATOM      5  C   LIG d   1       1.187  88.777 116.121  0.00  0.00    -0.047 C 
ATOM      6  C   LIG d   1       2.106  87.541 115.992  0.00  0.00     0.091 C 
ENDROOT
BRANCH   1   7
ATOM      7  O   LIG d   1       4.404  86.782 116.379  0.00  0.00    -0.368 OA
BRANCH   7   8
ATOM      8  C   LIG d   1       5.176  86.217 115.291  0.00  0.00     0.119 C 
BRANCH   8   9
ATOM      9  C   LIG d   1       6.578  85.889 115.840  0.00  0.00     0.028 C 
ATOM     10  C   LIG d   1       7.244  87.102 116.512  0.00  0.00     0.006 C 
ENDBRANCH   8   9
BRANCH   8  11
ATOM     11  C   LIG d   1       5.406  87.244 114.179  0.00  0.00     0.028 C 
ATOM     12  C   LIG d   1       4.922  86.754 112.805  0.00  0.00     0.006 C 
ENDBRANCH   8  11
ENDBRANCH   7   8
ENDBRANCH   1   7
BRANCH   6  13
ATOM     13  N   LIG d   1       1.888  86.803 114.720  0.00  0.00    -0.311 N 
ATOM     14  C   LIG d   1       1.682  85.488 114.662  0.00  0.00     0.210 C 
ATOM     15  C   LIG d   1       1.500  84.924 113.249  0.00  0.00     0.109 C 
ATOM     16  O   LIG d   1       1.602  84.740 115.648  0.00  0.00    -0.276 OA
ATOM     17  H   LIG d   1       1.906  87.337 113.874  0.00  0.00     0.149 HD
ENDBRANCH   6  13
BRANCH   5  18
ATOM     18  N   LIG d   1      -0.245  88.428 116.184  0.00  0.00     0.381 N 
ATOM     19  H   LIG d   1      -0.696  88.696 115.332  0.00  0.00    -0.090 HD
ATOM     20  H   LIG d   1      -0.670  88.935 116.940  0.00  0.00    -0.090 HD
ATOM     21  H   LIG d   1      -0.351  87.448 116.330  0.00  0.00    -0.090 HD
ENDBRANCH   5  18
BRANCH   3  22
ATOM     22  C   LIG d   1       3.283  90.936 118.233  0.00  0.00     0.382 C 
ATOM     23  O   LIG d   1       3.495  90.869 119.468  0.00  0.00    -0.241 OA
ATOM     24  O   LIG d   1       3.371  92.036 117.655  0.00  0.00    -0.241 OA
ENDBRANCH   3  22
TORSDOF 7
ENDMDL
