MODEL 1
REMARK VINA RESULT:      -5.5      0.000      0.000
REMARK  7 active torsions:
REMARK  status: ('A' for Active; 'I' for Inactive)
REMARK    1  A    between atoms: C_2  and  C_3 
REMARK    2  A    between atoms: C_3  and  O_6 
REMARK    3  A    between atoms: C_3  and  C_4 
REMARK    4  A    between atoms: C_7  and  O_6 
REMARK    5  A    between atoms: C_9  and  C_10 
REMARK    6  A    between atoms: N_15  and  C_14 
REMARK    7  A    between atoms: N_20  and  C_19 
REMARK       I    between atoms: C_22  and  N_20 
ROOT
ATOM      1  C   LIG d   1      -8.137  74.806 117.562  0.00  0.00     0.161 C 
ATOM      2  C   LIG d   1      -8.176  76.178 117.861  0.00  0.00     0.016 C 
ATOM      3  C   LIG d   1      -9.316  76.827 118.388  0.00  0.00     0.038 C 
ATOM      4  C   LIG d   1     -10.453  76.114 118.796  0.00  0.00     0.028 C 
ATOM      5  C   LIG d   1     -10.646  74.800 118.045  0.00  0.00    -0.047 C 
ATOM      6  C   LIG d   1      -9.330  73.991 118.104  0.00  0.00     0.091 C 
ENDROOT
BRANCH   1   7
ATOM      7  O   LIG d   1      -6.894  74.240 118.023  0.00  0.00    -0.368 OA
BRANCH   7   8
ATOM      8  C   LIG d   1      -6.014  73.715 116.998  0.00  0.00     0.119 C 
BRANCH   8   9
ATOM      9  C   LIG d   1      -4.722  74.556 117.022  0.00  0.00     0.028 C 
ATOM     10  C   LIG d   1      -3.537  73.793 117.638  0.00  0.00     0.006 C 
ENDBRANCH   8   9
BRANCH   8  11
ATOM     11  C   LIG d   1      -6.604  73.918 115.600  0.00  0.00     0.028 C 
ATOM     12  C   LIG d   1      -5.771  74.878 114.735  0.00  0.00     0.006 C 
ENDBRANCH   8  11
ENDBRANCH   7   8
ENDBRANCH   1   7
BRANCH   6  13
ATOM     13  N   LIG d   1      -9.405  72.729 117.322  0.00  0.00    -0.311 N 
ATOM     14  C   LIG d   1      -8.979  71.555 117.783  0.00  0.00     0.210 C 
ATOM     15  C   LIG d   1      -9.131  70.384 116.808  0.00  0.00     0.109 C 
ATOM     16  O   LIG d   1      -8.520  71.366 118.920  0.00  0.00    -0.276 OA
ATOM     17  H   LIG d   1      -9.793  72.786 116.401  0.00  0.00     0.149 HD
ENDBRANCH   6  13
BRANCH   5  18
ATOM     18  N   LIG d   1     -11.785  74.097 118.664  0.00  0.00     0.381 N 
ATOM     19  H   LIG d   1     -11.910  73.205 118.228  0.00  0.00    -0.090 HD
ATOM     20  H   LIG d   1     -12.619  74.638 118.518  0.00  0.00    -0.090 HD
ATOM     21  H   LIG d   1     -11.624  73.977 119.640  0.00  0.00    -0.090 HD
ENDBRANCH   5  18
BRANCH   3  22
ATOM     22  C   LIG d   1      -9.340  78.211 118.475  0.00  0.00     0.382 C 
ATOM     23  O   LIG d   1     -10.405  78.801 118.777  0.00  0.00    -0.241 OA
ATOM     24  O   LIG d   1      -8.322  78.878 118.211  0.00  0.00    -0.241 OA
ENDBRANCH   3  22
TORSDOF 7
ENDMDL
MODEL 2
REMARK VINA RESULT:      -5.5      2.397      4.166
REMARK  7 active torsions:
REMARK  status: ('A' for Active; 'I' for Inactive)
REMARK    1  A    between atoms: C_2  and  C_3 
REMARK    2  A    between atoms: C_3  and  O_6 
REMARK    3  A    between atoms: C_3  and  C_4 
REMARK    4  A    between atoms: C_7  and  O_6 
REMARK    5  A    between atoms: C_9  and  C_10 
REMARK    6  A    between atoms: N_15  and  C_14 
REMARK    7  A    between atoms: N_20  and  C_19 
REMARK       I    between atoms: C_22  and  N_20 
ROOT
ATOM      1  C   LIG d   1      -8.775  74.020 119.008  0.00  0.00     0.161 C 
ATOM      2  C   LIG d   1     -10.167  74.139 118.854  0.00  0.00     0.016 C 
ATOM      3  C   LIG d   1     -10.808  75.342 118.478  0.00  0.00     0.038 C 
ATOM      4  C   LIG d   1     -10.084  76.476 118.082  0.00  0.00     0.028 C 
ATOM      5  C   LIG d   1      -8.695  76.556 118.706  0.00  0.00    -0.047 C 
ATOM      6  C   LIG d   1      -7.961  75.216 118.471  0.00  0.00     0.091 C 
ENDROOT
BRANCH   1   7
ATOM      7  O   LIG d   1      -8.320  72.793 118.404  0.00  0.00    -0.368 OA
BRANCH   7   8
ATOM      8  C   LIG d   1      -8.350  72.746 116.956  0.00  0.00     0.119 C 
BRANCH   8   9
ATOM      9  C   LIG d   1      -9.245  71.560 116.549  0.00  0.00     0.028 C 
ATOM     10  C   LIG d   1      -8.994  70.312 117.413  0.00  0.00     0.006 C 
ENDBRANCH   8   9
BRANCH   8  11
ATOM     11  C   LIG d   1      -6.967  72.426 116.381  0.00  0.00     0.028 C 
ATOM     12  C   LIG d   1      -6.448  73.518 115.432  0.00  0.00     0.006 C 
ENDBRANCH   8  11
ENDBRANCH   7   8
ENDBRANCH   1   7
BRANCH   6  13
ATOM     13  N   LIG d   1      -6.626  75.179 119.123  0.00  0.00    -0.311 N 
ATOM     14  C   LIG d   1      -5.508  75.592 118.528  0.00  0.00     0.210 C 
ATOM     15  C   LIG d   1      -4.236  75.448 119.371  0.00  0.00     0.109 C 
ATOM     16  O   LIG d   1      -5.453  76.092 117.395  0.00  0.00    -0.276 OA
ATOM     17  H   LIG d   1      -6.583  74.817 120.056  0.00  0.00     0.149 HD
ENDBRANCH   6  13
BRANCH   5  18
ATOM     18  N   LIG d   1      -8.001  77.709 118.102  0.00  0.00     0.381 N 
ATOM     19  H   LIG d   1      -8.671  78.381 117.786  0.00  0.00    -0.090 HD
ATOM     20  H   LIG d   1      -7.474  77.391 117.307  0.00  0.00    -0.090 HD
ATOM     21  H   LIG d   1      -7.390  78.127 118.768  0.00  0.00    -0.090 HD
ENDBRANCH   5  18
BRANCH   3  22
ATOM     22  C   LIG d   1     -12.191  75.430 118.536  0.00  0.00     0.382 C 
ATOM     23  O   LIG d   1     -12.893  74.408 118.344  0.00  0.00    -0.241 OA
ATOM     24  O   LIG d   1     -12.746  76.528 118.733  0.00  0.00    -0.241 OA
ENDBRANCH   3  22
TORSDOF 7
ENDMDL
MODEL 3
REMARK VINA RESULT:      -5.3      2.307      4.172
REMARK  7 active torsions:
REMARK  status: ('A' for Active; 'I' for Inactive)
REMARK    1  A    between atoms: C_2  and  C_3 
REMARK    2  A    between atoms: C_3  and  O_6 
REMARK    3  A    between atoms: C_3  and  C_4 
REMARK    4  A    between atoms: C_7  and  O_6 
REMARK    5  A    between atoms: C_9  and  C_10 
REMARK    6  A    between atoms: N_15  and  C_14 
REMARK    7  A    between atoms: N_20  and  C_19 
REMARK       I    between atoms: C_22  and  N_20 
ROOT
ATOM      1  C   LIG d   1      -7.898  74.974 119.098  0.00  0.00     0.161 C 
ATOM      2  C   LIG d   1      -9.057  75.760 119.216  0.00  0.00     0.016 C 
ATOM      3  C   LIG d   1      -9.196  77.036 118.624  0.00  0.00     0.038 C 
ATOM      4  C   LIG d   1      -8.235  77.552 117.741  0.00  0.00     0.028 C 
ATOM      5  C   LIG d   1      -6.830  77.016 117.994  0.00  0.00    -0.047 C 
ATOM      6  C   LIG d   1      -6.884  75.472 118.048  0.00  0.00     0.091 C 
ENDROOT
BRANCH   1   7
ATOM      7  O   LIG d   1      -8.261  73.605 118.834  0.00  0.00    -0.368 OA
BRANCH   7   8
ATOM      8  C   LIG d   1      -8.576  73.283 117.457  0.00  0.00     0.119 C 
BRANCH   8   9
ATOM      9  C   LIG d   1      -9.985  72.657 117.438  0.00  0.00     0.028 C 
ATOM     10  C   LIG d   1     -10.614  72.587 118.840  0.00  0.00     0.006 C 
ENDBRANCH   8   9
BRANCH   8  11
ATOM     11  C   LIG d   1      -7.643  72.198 116.910  0.00  0.00     0.028 C 
ATOM     12  C   LIG d   1      -8.378  70.888 116.587  0.00  0.00     0.006 C 
ENDBRANCH   8  11
ENDBRANCH   7   8
ENDBRANCH   1   7
BRANCH   6  13
ATOM     13  N   LIG d   1      -5.565  74.870 118.375  0.00  0.00    -0.311 N 
ATOM     14  C   LIG d   1      -4.712  74.427 117.453  0.00  0.00     0.210 C 
ATOM     15  C   LIG d   1      -3.417  73.824 118.007  0.00  0.00     0.109 C 
ATOM     16  O   LIG d   1      -4.891  74.504 116.229  0.00  0.00    -0.276 OA
ATOM     17  H   LIG d   1      -5.325  74.797 119.345  0.00  0.00     0.149 HD
ENDBRANCH   6  13
BRANCH   5  18
ATOM     18  N   LIG d   1      -5.958  77.528 116.921  0.00  0.00     0.381 N 
ATOM     19  H   LIG d   1      -5.001  77.331 117.138  0.00  0.00    -0.090 HD
ATOM     20  H   LIG d   1      -6.068  78.525 116.859  0.00  0.00    -0.090 HD
ATOM     21  H   LIG d   1      -6.202  77.105 116.052  0.00  0.00    -0.090 HD
ENDBRANCH   5  18
BRANCH   3  22
ATOM     22  C   LIG d   1     -10.288  77.828 118.945  0.00  0.00     0.382 C 
ATOM     23  O   LIG d   1     -11.371  77.293 119.283  0.00  0.00    -0.241 OA
ATOM     24  O   LIG d   1     -10.216  79.068 118.857  0.00  0.00    -0.241 OA
ENDBRANCH   3  22
TORSDOF 7
ENDMDL
MODEL 4
REMARK VINA RESULT:      -5.1      2.302      4.977
REMARK  7 active torsions:
REMARK  status: ('A' for Active; 'I' for Inactive)
REMARK    1  A    between atoms: C_2  and  C_3 
REMARK    2  A    between atoms: C_3  and  O_6 
REMARK    3  A    between atoms: C_3  and  C_4 
REMARK    4  A    between atoms: C_7  and  O_6 
REMARK    5  A    between atoms: C_9  and  C_10 
REMARK    6  A    between atoms: N_15  and  C_14 
REMARK    7  A    between atoms: N_20  and  C_19 
REMARK       I    between atoms: C_22  and  N_20 
ROOT
ATOM      1  C   LIG d   1      -7.293  75.745 117.148  0.00  0.00     0.161 C 
ATOM      2  C   LIG d   1      -6.439  76.339 116.204  0.00  0.00     0.016 C 
ATOM      3  C   LIG d   1      -5.800  75.617 115.170  0.00  0.00     0.038 C 
ATOM      4  C   LIG d   1      -6.093  74.269 114.916  0.00  0.00     0.028 C 
ATOM      5  C   LIG d   1      -6.562  73.508 116.152  0.00  0.00    -0.047 C 
ATOM      6  C   LIG d   1      -7.712  74.297 116.820  0.00  0.00     0.091 C 
ENDROOT
BRANCH   1   7
ATOM      7  O   LIG d   1      -8.457  76.572 117.342  0.00  0.00    -0.368 OA
BRANCH   7   8
ATOM      8  C   LIG d   1      -8.554  77.247 118.620  0.00  0.00     0.119 C 
BRANCH   8   9
ATOM      9  C   LIG d   1      -9.806  76.706 119.336  0.00  0.00     0.028 C 
ATOM     10  C   LIG d   1     -10.830  76.108 118.357  0.00  0.00     0.006 C 
ENDBRANCH   8   9
BRANCH   8  11
ATOM     11  C   LIG d   1      -8.805  78.747 118.441  0.00  0.00     0.028 C 
ATOM     12  C   LIG d   1      -7.536  79.521 118.050  0.00  0.00     0.006 C 
ENDBRANCH   8  11
ENDBRANCH   7   8
ENDBRANCH   1   7
BRANCH   6  13
ATOM     13  N   LIG d   1      -8.173  73.664 118.083  0.00  0.00    -0.311 N 
ATOM     14  C   LIG d   1      -9.211  72.832 118.151  0.00  0.00     0.210 C 
ATOM     15  C   LIG d   1      -9.530  72.309 119.555  0.00  0.00     0.109 C 
ATOM     16  O   LIG d   1      -9.877  72.453 117.176  0.00  0.00    -0.276 OA
ATOM     17  H   LIG d   1      -7.669  73.893 118.918  0.00  0.00     0.149 HD
ENDBRANCH   6  13
BRANCH   5  18
ATOM     18  N   LIG d   1      -6.964  72.157 115.717  0.00  0.00     0.381 N 
ATOM     19  H   LIG d   1      -7.955  72.051 115.812  0.00  0.00    -0.090 HD
ATOM     20  H   LIG d   1      -6.516  71.479 116.308  0.00  0.00    -0.090 HD
ATOM     21  H   LIG d   1      -6.697  72.010 114.769  0.00  0.00    -0.090 HD
ENDBRANCH   5  18
BRANCH   3  22
ATOM     22  C   LIG d   1      -4.826  76.235 114.401  0.00  0.00     0.382 C 
ATOM     23  O   LIG d   1      -4.139  77.165 114.888  0.00  0.00    -0.241 OA
ATOM     24  O   LIG d   1      -4.655  75.905 113.212  0.00  0.00    -0.241 OA
ENDBRANCH   3  22
TORSDOF 7
ENDMDL
MODEL 5
REMARK VINA RESULT:      -5.0      1.906      4.819
REMARK  7 active torsions:
REMARK  status: ('A' for Active; 'I' for Inactive)
REMARK    1  A    between atoms: C_2  and  C_3 
REMARK    2  A    between atoms: C_3  and  O_6 
REMARK    3  A    between atoms: C_3  and  C_4 
REMARK    4  A    between atoms: C_7  and  O_6 
REMARK    5  A    between atoms: C_9  and  C_10 
REMARK    6  A    between atoms: N_15  and  C_14 
REMARK    7  A    between atoms: N_20  and  C_19 
REMARK       I    between atoms: C_22  and  N_20 
ROOT
ATOM      1  C   LIG d   1      -7.407  74.739 117.130  0.00  0.00     0.161 C 
ATOM      2  C   LIG d   1      -7.366  73.398 116.711  0.00  0.00     0.016 C 
ATOM      3  C   LIG d   1      -8.387  72.462 116.996  0.00  0.00     0.038 C 
ATOM      4  C   LIG d   1      -9.597  72.845 117.593  0.00  0.00     0.028 C 
ATOM      5  C   LIG d   1      -9.471  74.077 118.483  0.00  0.00    -0.047 C 
ATOM      6  C   LIG d   1      -8.770  75.201 117.687  0.00  0.00     0.091 C 
ENDROOT
BRANCH   1   7
ATOM      7  O   LIG d   1      -6.987  75.600 116.054  0.00  0.00    -0.368 OA
BRANCH   7   8
ATOM      8  C   LIG d   1      -5.577  75.564 115.722  0.00  0.00     0.119 C 
BRANCH   8   9
ATOM      9  C   LIG d   1      -4.925  76.818 116.337  0.00  0.00     0.028 C 
ATOM     10  C   LIG d   1      -3.775  77.365 115.474  0.00  0.00     0.006 C 
ENDBRANCH   8   9
BRANCH   8  11
ATOM     11  C   LIG d   1      -5.357  75.693 114.211  0.00  0.00     0.028 C 
ATOM     12  C   LIG d   1      -6.655  75.988 113.443  0.00  0.00     0.006 C 
ENDBRANCH   8  11
ENDBRANCH   7   8
ENDBRANCH   1   7
BRANCH   6  13
ATOM     13  N   LIG d   1      -8.531  76.415 118.510  0.00  0.00    -0.311 N 
ATOM     14  C   LIG d   1      -9.440  77.372 118.685  0.00  0.00     0.210 C 
ATOM     15  C   LIG d   1      -8.982  78.547 119.555  0.00  0.00     0.109 C 
ATOM     16  O   LIG d   1     -10.592  77.345 118.229  0.00  0.00    -0.276 OA
ATOM     17  H   LIG d   1      -7.632  76.503 118.943  0.00  0.00     0.149 HD
ENDBRANCH   6  13
BRANCH   5  18
ATOM     18  N   LIG d   1     -10.828  74.445 118.930  0.00  0.00     0.381 N 
ATOM     19  H   LIG d   1     -10.798  74.763 119.878  0.00  0.00    -0.090 HD
ATOM     20  H   LIG d   1     -11.415  73.631 118.889  0.00  0.00    -0.090 HD
ATOM     21  H   LIG d   1     -11.198  75.160 118.343  0.00  0.00    -0.090 HD
ENDBRANCH   5  18
BRANCH   3  22
ATOM     22  C   LIG d   1      -8.185  71.119 116.717  0.00  0.00     0.382 C 
ATOM     23  O   LIG d   1      -8.924  70.252 117.243  0.00  0.00    -0.241 OA
ATOM     24  O   LIG d   1      -7.245  70.761 115.982  0.00  0.00    -0.241 OA
ENDBRANCH   3  22
TORSDOF 7
ENDMDL
MODEL 6
REMARK VINA RESULT:      -4.9     10.502     13.652
REMARK  7 active torsions:
REMARK  status: ('A' for Active; 'I' for Inactive)
REMARK    1  A    between atoms: C_2  and  C_3 
REMARK    2  A    between atoms: C_3  and  O_6 
REMARK    3  A    between atoms: C_3  and  C_4 
REMARK    4  A    between atoms: C_7  and  O_6 
REMARK    5  A    between atoms: C_9  and  C_10 
REMARK    6  A    between atoms: N_15  and  C_14 
REMARK    7  A    between atoms: N_20  and  C_19 
REMARK       I    between atoms: C_22  and  N_20 
ROOT
ATOM      1  C   LIG d   1     -16.844  65.010 115.253  0.00  0.00     0.161 C 
ATOM      2  C   LIG d   1     -16.405  66.013 114.373  0.00  0.00     0.016 C 
ATOM      3  C   LIG d   1     -15.456  66.999 114.727  0.00  0.00     0.038 C 
ATOM      4  C   LIG d   1     -14.763  66.957 115.946  0.00  0.00     0.028 C 
ATOM      5  C   LIG d   1     -15.538  66.261 117.059  0.00  0.00    -0.047 C 
ATOM      6  C   LIG d   1     -16.017  64.882 116.550  0.00  0.00     0.091 C 
ENDROOT
BRANCH   1   7
ATOM      7  O   LIG d   1     -16.896  63.745 114.565  0.00  0.00    -0.368 OA
BRANCH   7   8
ATOM      8  C   LIG d   1     -18.194  63.349 114.058  0.00  0.00     0.119 C 
BRANCH   8   9
ATOM      9  C   LIG d   1     -19.262  64.016 114.947  0.00  0.00     0.028 C 
ATOM     10  C   LIG d   1     -20.433  64.588 114.129  0.00  0.00     0.006 C 
ENDBRANCH   8   9
BRANCH   8  11
ATOM     11  C   LIG d   1     -18.419  61.842 114.215  0.00  0.00     0.028 C 
ATOM     12  C   LIG d   1     -17.842  61.288 115.528  0.00  0.00     0.006 C 
ENDBRANCH   8  11
ENDBRANCH   7   8
ENDBRANCH   1   7
BRANCH   6  13
ATOM     13  N   LIG d   1     -16.856  64.169 117.549  0.00  0.00    -0.311 N 
ATOM     14  C   LIG d   1     -16.371  63.274 118.408  0.00  0.00     0.210 C 
ATOM     15  C   LIG d   1     -17.411  62.642 119.338  0.00  0.00     0.109 C 
ATOM     16  O   LIG d   1     -15.174  62.967 118.508  0.00  0.00    -0.276 OA
ATOM     17  H   LIG d   1     -17.834  64.381 117.558  0.00  0.00     0.149 HD
ENDBRANCH   6  13
BRANCH   5  18
ATOM     18  N   LIG d   1     -14.647  66.166 118.231  0.00  0.00     0.381 N 
ATOM     19  H   LIG d   1     -15.180  66.269 119.071  0.00  0.00    -0.090 HD
ATOM     20  H   LIG d   1     -13.976  66.914 118.190  0.00  0.00    -0.090 HD
ATOM     21  H   LIG d   1     -14.177  65.288 118.232  0.00  0.00    -0.090 HD
ENDBRANCH   5  18
BRANCH   3  22
ATOM     22  C   LIG d   1     -15.220  68.064 113.871  0.00  0.00     0.382 C 
ATOM     23  O   LIG d   1     -14.393  68.953 114.190  0.00  0.00    -0.241 OA
ATOM     24  O   LIG d   1     -15.855  68.172 112.805  0.00  0.00    -0.241 OA
ENDBRANCH   3  22
TORSDOF 7
ENDMDL
MODEL 7
REMARK VINA RESULT:      -4.9      2.553      6.194
REMARK  7 active torsions:
REMARK  status: ('A' for Active; 'I' for Inactive)
REMARK    1  A    between atoms: C_2  and  C_3 
REMARK    2  A    between atoms: C_3  and  O_6 
REMARK    3  A    between atoms: C_3  and  C_4 
REMARK    4  A    between atoms: C_7  and  O_6 
REMARK    5  A    between atoms: C_9  and  C_10 
REMARK    6  A    between atoms: N_15  and  C_14 
REMARK    7  A    between atoms: N_20  and  C_19 
REMARK       I    between atoms: C_22  and  N_20 
ROOT
ATOM      1  C   LIG d   1      -8.192  74.961 117.751  0.00  0.00     0.161 C 
ATOM      2  C   LIG d   1      -8.518  73.604 117.585  0.00  0.00     0.016 C 
ATOM      3  C   LIG d   1      -7.764  72.715 116.785  0.00  0.00     0.038 C 
ATOM      4  C   LIG d   1      -6.539  73.089 116.213  0.00  0.00     0.028 C 
ATOM      5  C   LIG d   1      -6.430  74.585 115.938  0.00  0.00    -0.047 C 
ATOM      6  C   LIG d   1      -6.797  75.360 117.225  0.00  0.00     0.091 C 
ENDROOT
BRANCH   1   7
ATOM      7  O   LIG d   1      -8.329  75.330 119.137  0.00  0.00    -0.368 OA
BRANCH   7   8
ATOM      8  C   LIG d   1      -9.415  76.236 119.451  0.00  0.00     0.119 C 
BRANCH   8   9
ATOM      9  C   LIG d   1     -10.389  76.223 118.257  0.00  0.00     0.028 C 
ATOM     10  C   LIG d   1     -11.731  75.556 118.602  0.00  0.00     0.006 C 
ENDBRANCH   8   9
BRANCH   8  11
ATOM     11  C   LIG d   1      -8.921  77.682 119.555  0.00  0.00     0.028 C 
ATOM     12  C   LIG d   1      -9.832  78.677 118.817  0.00  0.00     0.006 C 
ENDBRANCH   8  11
ENDBRANCH   7   8
ENDBRANCH   1   7
BRANCH   6  13
ATOM     13  N   LIG d   1      -6.798  76.832 117.020  0.00  0.00    -0.311 N 
ATOM     14  C   LIG d   1      -5.927  77.654 117.602  0.00  0.00     0.210 C 
ATOM     15  C   LIG d   1      -6.117  79.137 117.271  0.00  0.00     0.109 C 
ATOM     16  O   LIG d   1      -4.996  77.292 118.336  0.00  0.00    -0.276 OA
ATOM     17  H   LIG d   1      -7.502  77.207 116.414  0.00  0.00     0.149 HD
ENDBRANCH   6  13
BRANCH   5  18
ATOM     18  N   LIG d   1      -5.057  74.854 115.473  0.00  0.00     0.381 N 
ATOM     19  H   LIG d   1      -4.420  74.790 116.243  0.00  0.00    -0.090 HD
ATOM     20  H   LIG d   1      -5.015  75.789 115.107  0.00  0.00    -0.090 HD
ATOM     21  H   LIG d   1      -4.802  74.201 114.766  0.00  0.00    -0.090 HD
ENDBRANCH   5  18
BRANCH   3  22
ATOM     22  C   LIG d   1      -8.256  71.446 116.517  0.00  0.00     0.382 C 
ATOM     23  O   LIG d   1      -7.470  70.527 116.185  0.00  0.00    -0.241 OA
ATOM     24  O   LIG d   1      -9.480  71.221 116.560  0.00  0.00    -0.241 OA
ENDBRANCH   3  22
TORSDOF 7
ENDMDL
MODEL 8
REMARK VINA RESULT:      -4.8     10.806     14.316
REMARK  7 active torsions:
REMARK  status: ('A' for Active; 'I' for Inactive)
REMARK    1  A    between atoms: C_2  and  C_3 
REMARK    2  A    between atoms: C_3  and  O_6 
REMARK    3  A    between atoms: C_3  and  C_4 
REMARK    4  A    between atoms: C_7  and  O_6 
REMARK    5  A    between atoms: C_9  and  C_10 
REMARK    6  A    between atoms: N_15  and  C_14 
REMARK    7  A    between atoms: N_20  and  C_19 
REMARK       I    between atoms: C_22  and  N_20 
ROOT
ATOM      1  C   LIG d   1     -17.494  64.801 115.731  0.00  0.00     0.161 C 
ATOM      2  C   LIG d   1     -17.722  63.895 116.779  0.00  0.00     0.016 C 
ATOM      3  C   LIG d   1     -16.880  63.784 117.910  0.00  0.00     0.038 C 
ATOM      4  C   LIG d   1     -15.830  64.685 118.143  0.00  0.00     0.028 C 
ATOM      5  C   LIG d   1     -15.258  65.291 116.866  0.00  0.00    -0.047 C 
ATOM      6  C   LIG d   1     -16.416  65.867 116.021  0.00  0.00     0.091 C 
ENDROOT
BRANCH   1   7
ATOM      7  O   LIG d   1     -18.733  65.432 115.352  0.00  0.00    -0.368 OA
BRANCH   7   8
ATOM      8  C   LIG d   1     -19.765  65.472 116.368  0.00  0.00     0.119 C 
BRANCH   8   9
ATOM      9  C   LIG d   1     -21.114  65.217 115.668  0.00  0.00     0.028 C 
ATOM     10  C   LIG d   1     -20.974  65.126 114.140  0.00  0.00     0.006 C 
ENDBRANCH   8   9
BRANCH   8  11
ATOM     11  C   LIG d   1     -19.886  66.868 116.986  0.00  0.00     0.028 C 
ATOM     12  C   LIG d   1     -19.113  67.003 118.308  0.00  0.00     0.006 C 
ENDBRANCH   8  11
ENDBRANCH   7   8
ENDBRANCH   1   7
BRANCH   6  13
ATOM     13  N   LIG d   1     -15.953  66.405 114.716  0.00  0.00    -0.311 N 
ATOM     14  C   LIG d   1     -15.561  67.666 114.539  0.00  0.00     0.210 C 
ATOM     15  C   LIG d   1     -15.141  68.018 113.109  0.00  0.00     0.109 C 
ATOM     16  O   LIG d   1     -15.492  68.517 115.438  0.00  0.00    -0.276 OA
ATOM     17  H   LIG d   1     -15.947  65.774 113.938  0.00  0.00     0.149 HD
ENDBRANCH   6  13
BRANCH   5  18
ATOM     18  N   LIG d   1     -14.268  66.311 117.262  0.00  0.00     0.381 N 
ATOM     19  H   LIG d   1     -14.642  67.225 117.105  0.00  0.00    -0.090 HD
ATOM     20  H   LIG d   1     -13.446  66.204 116.693  0.00  0.00    -0.090 HD
ATOM     21  H   LIG d   1     -14.031  66.201 118.224  0.00  0.00    -0.090 HD
ENDBRANCH   5  18
BRANCH   3  22
ATOM     22  C   LIG d   1     -17.062  62.739 118.803  0.00  0.00     0.382 C 
ATOM     23  O   LIG d   1     -16.122  62.386 119.555  0.00  0.00    -0.241 OA
ATOM     24  O   LIG d   1     -18.140  62.115 118.834  0.00  0.00    -0.241 OA
ENDBRANCH   3  22
TORSDOF 7
ENDMDL
MODEL 9
REMARK VINA RESULT:      -4.8      2.789      5.587
REMARK  7 active torsions:
REMARK  status: ('A' for Active; 'I' for Inactive)
REMARK    1  A    between atoms: C_2  and  C_3 
REMARK    2  A    between atoms: C_3  and  O_6 
REMARK    3  A    between atoms: C_3  and  C_4 
REMARK    4  A    between atoms: C_7  and  O_6 
REMARK    5  A    between atoms: C_9  and  C_10 
REMARK    6  A    between atoms: N_15  and  C_14 
REMARK    7  A    between atoms: N_20  and  C_19 
REMARK       I    between atoms: C_22  and  N_20 
ROOT
ATOM      1  C   LIG d   1      -5.270  74.552 117.174  0.00  0.00     0.161 C 
ATOM      2  C   LIG d   1      -5.787  73.283 116.867  0.00  0.00     0.016 C 
ATOM      3  C   LIG d   1      -7.164  72.967 116.933  0.00  0.00     0.038 C 
ATOM      4  C   LIG d   1      -8.139  73.947 117.165  0.00  0.00     0.028 C 
ATOM      5  C   LIG d   1      -7.626  75.133 117.976  0.00  0.00    -0.047 C 
ATOM      6  C   LIG d   1      -6.330  75.664 117.321  0.00  0.00     0.091 C 
ENDROOT
BRANCH   1   7
ATOM      7  O   LIG d   1      -4.283  74.928 116.193  0.00  0.00    -0.368 OA
BRANCH   7   8
ATOM      8  C   LIG d   1      -2.918  75.030 116.668  0.00  0.00     0.119 C 
BRANCH   8   9
ATOM      9  C   LIG d   1      -2.390  76.420 116.265  0.00  0.00     0.028 C 
ATOM     10  C   LIG d   1      -2.830  76.826 114.848  0.00  0.00     0.006 C 
ENDBRANCH   8   9
BRANCH   8  11
ATOM     11  C   LIG d   1      -2.004  74.027 115.958  0.00  0.00     0.028 C 
ATOM     12  C   LIG d   1      -1.113  73.239 116.931  0.00  0.00     0.006 C 
ENDBRANCH   8  11
ENDBRANCH   7   8
ENDBRANCH   1   7
BRANCH   6  13
ATOM     13  N   LIG d   1      -5.715  76.771 118.099  0.00  0.00    -0.311 N 
ATOM     14  C   LIG d   1      -5.427  77.962 117.577  0.00  0.00     0.210 C 
ATOM     15  C   LIG d   1      -4.778  78.954 118.548  0.00  0.00     0.109 C 
ATOM     16  O   LIG d   1      -5.676  78.302 116.411  0.00  0.00    -0.276 OA
ATOM     17  H   LIG d   1      -5.508  76.592 119.062  0.00  0.00     0.149 HD
ENDBRANCH   6  13
BRANCH   5  18
ATOM     18  N   LIG d   1      -8.703  76.139 118.025  0.00  0.00     0.381 N 
ATOM     19  H   LIG d   1      -9.559  75.705 118.307  0.00  0.00    -0.090 HD
ATOM     20  H   LIG d   1      -8.832  76.523 117.105  0.00  0.00    -0.090 HD
ATOM     21  H   LIG d   1      -8.463  76.864 118.665  0.00  0.00    -0.090 HD
ENDBRANCH   5  18
BRANCH   3  22
ATOM     22  C   LIG d   1      -7.573  71.648 116.804  0.00  0.00     0.382 C 
ATOM     23  O   LIG d   1      -7.338  71.019 115.744  0.00  0.00    -0.241 OA
ATOM     24  O   LIG d   1      -8.214  71.093 117.717  0.00  0.00    -0.241 OA
ENDBRANCH   3  22
TORSDOF 7
ENDMDL
