MODEL 1
REMARK VINA RESULT:      -5.4      0.000      0.000
REMARK  7 active torsions:
REMARK  status: ('A' for Active; 'I' for Inactive)
REMARK    1  A    between atoms: C_2  and  C_3 
REMARK    2  A    between atoms: C_3  and  O_6 
REMARK    3  A    between atoms: C_3  and  C_4 
REMARK    4  A    between atoms: C_7  and  O_6 
REMARK    5  A    between atoms: C_9  and  C_10 
REMARK    6  A    between atoms: N_15  and  C_14 
REMARK    7  A    between atoms: N_20  and  C_19 
REMARK       I    between atoms: C_22  and  N_20 
ROOT
ATOM      1  C   LIG d   1      -7.487  75.450 117.702  0.00  0.00     0.161 C 
ATOM      2  C   LIG d   1      -7.656  74.083 117.430  0.00  0.00     0.016 C 
ATOM      3  C   LIG d   1      -8.864  73.386 117.662  0.00  0.00     0.038 C 
ATOM      4  C   LIG d   1     -10.040  74.048 118.044  0.00  0.00     0.028 C 
ATOM      5  C   LIG d   1      -9.785  75.340 118.814  0.00  0.00    -0.047 C 
ATOM      6  C   LIG d   1      -8.792  76.213 118.014  0.00  0.00     0.091 C 
ENDROOT
BRANCH   1   7
ATOM      7  O   LIG d   1      -6.786  76.082 116.613  0.00  0.00    -0.368 OA
BRANCH   7   8
ATOM      8  C   LIG d   1      -5.912  75.227 115.836  0.00  0.00     0.119 C 
BRANCH   8   9
ATOM      9  C   LIG d   1      -4.462  75.553 116.245  0.00  0.00     0.028 C 
ATOM     10  C   LIG d   1      -3.931  74.603 117.332  0.00  0.00     0.006 C 
ENDBRANCH   8   9
BRANCH   8  11
ATOM     11  C   LIG d   1      -5.995  75.555 114.342  0.00  0.00     0.028 C 
ATOM     12  C   LIG d   1      -4.772  75.060 113.554  0.00  0.00     0.006 C 
ENDBRANCH   8  11
ENDBRANCH   7   8
ENDBRANCH   1   7
BRANCH   6  13
ATOM     13  N   LIG d   1      -8.423  77.458 118.736  0.00  0.00    -0.311 N 
ATOM     14  C   LIG d   1      -9.137  78.581 118.674  0.00  0.00     0.210 C 
ATOM     15  C   LIG d   1      -8.569  79.754 119.479  0.00  0.00     0.109 C 
ATOM     16  O   LIG d   1     -10.204  78.707 118.055  0.00  0.00    -0.276 OA
ATOM     17  H   LIG d   1      -7.588  77.435 119.288  0.00  0.00     0.149 HD
ENDBRANCH   6  13
BRANCH   5  18
ATOM     18  N   LIG d   1     -11.089  75.996 119.028  0.00  0.00     0.381 N 
ATOM     19  H   LIG d   1     -11.335  76.533 118.221  0.00  0.00    -0.090 HD
ATOM     20  H   LIG d   1     -11.014  76.620 119.812  0.00  0.00    -0.090 HD
ATOM     21  H   LIG d   1     -11.790  75.311 119.206  0.00  0.00    -0.090 HD
ENDBRANCH   5  18
BRANCH   3  22
ATOM     22  C   LIG d   1      -8.893  72.004 117.551  0.00  0.00     0.382 C 
ATOM     23  O   LIG d   1      -8.329  71.293 118.419  0.00  0.00    -0.241 OA
ATOM     24  O   LIG d   1      -9.436  71.460 116.571  0.00  0.00    -0.241 OA
ENDBRANCH   3  22
TORSDOF 7
ENDMDL
MODEL 2
REMARK VINA RESULT:      -4.9      4.800      8.036
REMARK  7 active torsions:
REMARK  status: ('A' for Active; 'I' for Inactive)
REMARK    1  A    between atoms: C_2  and  C_3 
REMARK    2  A    between atoms: C_3  and  O_6 
REMARK    3  A    between atoms: C_3  and  C_4 
REMARK    4  A    between atoms: C_7  and  O_6 
REMARK    5  A    between atoms: C_9  and  C_10 
REMARK    6  A    between atoms: N_15  and  C_14 
REMARK    7  A    between atoms: N_20  and  C_19 
REMARK       I    between atoms: C_22  and  N_20 
ROOT
ATOM      1  C   LIG d   1      -3.080  76.896 116.174  0.00  0.00     0.161 C 
ATOM      2  C   LIG d   1      -3.370  78.062 115.446  0.00  0.00     0.016 C 
ATOM      3  C   LIG d   1      -2.405  79.049 115.140  0.00  0.00     0.038 C 
ATOM      4  C   LIG d   1      -1.042  78.862 115.414  0.00  0.00     0.028 C 
ATOM      5  C   LIG d   1      -0.783  77.932 116.594  0.00  0.00    -0.047 C 
ATOM      6  C   LIG d   1      -1.576  76.623 116.384  0.00  0.00     0.091 C 
ENDROOT
BRANCH   1   7
ATOM      7  O   LIG d   1      -3.714  75.761 115.551  0.00  0.00    -0.368 OA
BRANCH   7   8
ATOM      8  C   LIG d   1      -5.127  75.592 115.822  0.00  0.00     0.119 C 
BRANCH   8   9
ATOM      9  C   LIG d   1      -5.265  74.486 116.886  0.00  0.00     0.028 C 
ATOM     10  C   LIG d   1      -6.618  73.759 116.805  0.00  0.00     0.006 C 
ENDBRANCH   8   9
BRANCH   8  11
ATOM     11  C   LIG d   1      -5.871  75.066 114.591  0.00  0.00     0.028 C 
ATOM     12  C   LIG d   1      -5.267  75.568 113.270  0.00  0.00     0.006 C 
ENDBRANCH   8  11
ENDBRANCH   7   8
ENDBRANCH   1   7
BRANCH   6  13
ATOM     13  N   LIG d   1      -1.446  75.690 117.535  0.00  0.00    -0.311 N 
ATOM     14  C   LIG d   1      -1.221  74.385 117.398  0.00  0.00     0.210 C 
ATOM     15  C   LIG d   1      -1.140  73.602 118.712  0.00  0.00     0.109 C 
ATOM     16  O   LIG d   1      -1.049  73.806 116.315  0.00  0.00    -0.276 OA
ATOM     17  H   LIG d   1      -1.541  76.081 118.452  0.00  0.00     0.149 HD
ENDBRANCH   6  13
BRANCH   5  18
ATOM     18  N   LIG d   1       0.674  77.718 116.681  0.00  0.00     0.381 N 
ATOM     19  H   LIG d   1       0.909  77.348 117.580  0.00  0.00    -0.090 HD
ATOM     20  H   LIG d   1       1.140  78.602 116.572  0.00  0.00    -0.090 HD
ATOM     21  H   LIG d   1       0.970  77.089 115.967  0.00  0.00    -0.090 HD
ENDBRANCH   5  18
BRANCH   3  22
ATOM     22  C   LIG d   1      -2.807  80.256 114.589  0.00  0.00     0.382 C 
ATOM     23  O   LIG d   1      -2.954  81.262 115.323  0.00  0.00    -0.241 OA
ATOM     24  O   LIG d   1      -3.066  80.340 113.373  0.00  0.00    -0.241 OA
ENDBRANCH   3  22
TORSDOF 7
ENDMDL
MODEL 3
REMARK VINA RESULT:      -4.9      4.485      7.192
REMARK  7 active torsions:
REMARK  status: ('A' for Active; 'I' for Inactive)
REMARK    1  A    between atoms: C_2  and  C_3 
REMARK    2  A    between atoms: C_3  and  O_6 
REMARK    3  A    between atoms: C_3  and  C_4 
REMARK    4  A    between atoms: C_7  and  O_6 
REMARK    5  A    between atoms: C_9  and  C_10 
REMARK    6  A    between atoms: N_15  and  C_14 
REMARK    7  A    between atoms: N_20  and  C_19 
REMARK       I    between atoms: C_22  and  N_20 
ROOT
ATOM      1  C   LIG d   1      -2.938  75.386 116.142  0.00  0.00     0.161 C 
ATOM      2  C   LIG d   1      -2.583  74.534 117.201  0.00  0.00     0.016 C 
ATOM      3  C   LIG d   1      -1.366  74.642 117.913  0.00  0.00     0.038 C 
ATOM      4  C   LIG d   1      -0.483  75.713 117.712  0.00  0.00     0.028 C 
ATOM      5  C   LIG d   1      -0.561  76.308 116.310  0.00  0.00    -0.047 C 
ATOM      6  C   LIG d   1      -2.037  76.629 115.983  0.00  0.00     0.091 C 
ENDROOT
BRANCH   1   7
ATOM      7  O   LIG d   1      -4.318  75.782 116.275  0.00  0.00    -0.368 OA
BRANCH   7   8
ATOM      8  C   LIG d   1      -5.292  74.917 115.641  0.00  0.00     0.119 C 
BRANCH   8   9
ATOM      9  C   LIG d   1      -6.021  75.750 114.568  0.00  0.00     0.028 C 
ATOM     10  C   LIG d   1      -5.360  75.630 113.185  0.00  0.00     0.006 C 
ENDBRANCH   8   9
BRANCH   8  11
ATOM     11  C   LIG d   1      -6.381  74.486 116.629  0.00  0.00     0.028 C 
ATOM     12  C   LIG d   1      -6.419  75.360 117.892  0.00  0.00     0.006 C 
ENDBRANCH   8  11
ENDBRANCH   7   8
ENDBRANCH   1   7
BRANCH   6  13
ATOM     13  N   LIG d   1      -2.213  77.137 114.597  0.00  0.00    -0.311 N 
ATOM     14  C   LIG d   1      -2.253  78.433 114.291  0.00  0.00     0.210 C 
ATOM     15  C   LIG d   1      -2.462  78.740 112.805  0.00  0.00     0.109 C 
ATOM     16  O   LIG d   1      -2.103  79.357 115.105  0.00  0.00    -0.276 OA
ATOM     17  H   LIG d   1      -2.312  76.456 113.871  0.00  0.00     0.149 HD
ENDBRANCH   6  13
BRANCH   5  18
ATOM     18  N   LIG d   1       0.309  77.499 116.282  0.00  0.00     0.381 N 
ATOM     19  H   LIG d   1       0.197  78.020 117.129  0.00  0.00    -0.090 HD
ATOM     20  H   LIG d   1       0.035  78.084 115.513  0.00  0.00    -0.090 HD
ATOM     21  H   LIG d   1       1.261  77.224 116.177  0.00  0.00    -0.090 HD
ENDBRANCH   5  18
BRANCH   3  22
ATOM     22  C   LIG d   1      -1.004  73.649 118.810  0.00  0.00     0.382 C 
ATOM     23  O   LIG d   1       0.092  73.721 119.417  0.00  0.00    -0.241 OA
ATOM     24  O   LIG d   1      -1.739  72.659 118.987  0.00  0.00    -0.241 OA
ENDBRANCH   3  22
TORSDOF 7
ENDMDL
MODEL 4
REMARK VINA RESULT:      -4.9      2.116      2.901
REMARK  7 active torsions:
REMARK  status: ('A' for Active; 'I' for Inactive)
REMARK    1  A    between atoms: C_2  and  C_3 
REMARK    2  A    between atoms: C_3  and  O_6 
REMARK    3  A    between atoms: C_3  and  C_4 
REMARK    4  A    between atoms: C_7  and  O_6 
REMARK    5  A    between atoms: C_9  and  C_10 
REMARK    6  A    between atoms: N_15  and  C_14 
REMARK    7  A    between atoms: N_20  and  C_19 
REMARK       I    between atoms: C_22  and  N_20 
ROOT
ATOM      1  C   LIG d   1      -7.211  77.045 117.579  0.00  0.00     0.161 C 
ATOM      2  C   LIG d   1      -8.249  76.105 117.475  0.00  0.00     0.016 C 
ATOM      3  C   LIG d   1      -9.557  76.332 117.962  0.00  0.00     0.038 C 
ATOM      4  C   LIG d   1      -9.958  77.582 118.454  0.00  0.00     0.028 C 
ATOM      5  C   LIG d   1      -8.811  78.398 119.042  0.00  0.00    -0.047 C 
ATOM      6  C   LIG d   1      -7.659  78.457 118.013  0.00  0.00     0.091 C 
ENDROOT
BRANCH   1   7
ATOM      7  O   LIG d   1      -6.484  77.111 116.336  0.00  0.00    -0.368 OA
BRANCH   7   8
ATOM      8  C   LIG d   1      -6.094  75.840 115.759  0.00  0.00     0.119 C 
BRANCH   8   9
ATOM      9  C   LIG d   1      -4.620  75.594 116.135  0.00  0.00     0.028 C 
ATOM     10  C   LIG d   1      -4.464  74.511 117.216  0.00  0.00     0.006 C 
ENDBRANCH   8   9
BRANCH   8  11
ATOM     11  C   LIG d   1      -6.118  75.893 114.228  0.00  0.00     0.028 C 
ATOM     12  C   LIG d   1      -4.960  75.112 113.587  0.00  0.00     0.006 C 
ENDBRANCH   8  11
ENDBRANCH   7   8
ENDBRANCH   1   7
BRANCH   6  13
ATOM     13  N   LIG d   1      -6.463  79.165 118.541  0.00  0.00    -0.311 N 
ATOM     14  C   LIG d   1      -6.064  80.357 118.101  0.00  0.00     0.210 C 
ATOM     15  C   LIG d   1      -4.795  80.900 118.766  0.00  0.00     0.109 C 
ATOM     16  O   LIG d   1      -6.658  81.031 117.246  0.00  0.00    -0.276 OA
ATOM     17  H   LIG d   1      -5.940  78.704 119.260  0.00  0.00     0.149 HD
ENDBRANCH   6  13
BRANCH   5  18
ATOM     18  N   LIG d   1      -9.343  79.729 119.391  0.00  0.00     0.381 N 
ATOM     19  H   LIG d   1      -9.636  79.736 120.347  0.00  0.00    -0.090 HD
ATOM     20  H   LIG d   1     -10.144  79.920 118.814  0.00  0.00    -0.090 HD
ATOM     21  H   LIG d   1      -8.645  80.424 119.244  0.00  0.00    -0.090 HD
ENDBRANCH   5  18
BRANCH   3  22
ATOM     22  C   LIG d   1     -10.469  75.288 117.995  0.00  0.00     0.382 C 
ATOM     23  O   LIG d   1     -10.085  74.113 117.776  0.00  0.00    -0.241 OA
ATOM     24  O   LIG d   1     -11.677  75.511 118.198  0.00  0.00    -0.241 OA
ENDBRANCH   3  22
TORSDOF 7
ENDMDL
MODEL 5
REMARK VINA RESULT:      -4.9      1.798      5.054
REMARK  7 active torsions:
REMARK  status: ('A' for Active; 'I' for Inactive)
REMARK    1  A    between atoms: C_2  and  C_3 
REMARK    2  A    between atoms: C_3  and  O_6 
REMARK    3  A    between atoms: C_3  and  C_4 
REMARK    4  A    between atoms: C_7  and  O_6 
REMARK    5  A    between atoms: C_9  and  C_10 
REMARK    6  A    between atoms: N_15  and  C_14 
REMARK    7  A    between atoms: N_20  and  C_19 
REMARK       I    between atoms: C_22  and  N_20 
ROOT
ATOM      1  C   LIG d   1      -7.396  76.763 117.585  0.00  0.00     0.161 C 
ATOM      2  C   LIG d   1      -7.025  78.107 117.757  0.00  0.00     0.016 C 
ATOM      3  C   LIG d   1      -7.874  79.081 118.331  0.00  0.00     0.038 C 
ATOM      4  C   LIG d   1      -9.104  78.742 118.913  0.00  0.00     0.028 C 
ATOM      5  C   LIG d   1      -9.735  77.491 118.311  0.00  0.00    -0.047 C 
ATOM      6  C   LIG d   1      -8.692  76.351 118.315  0.00  0.00     0.091 C 
ENDROOT
BRANCH   1   7
ATOM      7  O   LIG d   1      -6.307  75.902 117.972  0.00  0.00    -0.368 OA
BRANCH   7   8
ATOM      8  C   LIG d   1      -5.336  75.600 116.940  0.00  0.00     0.119 C 
BRANCH   8   9
ATOM      9  C   LIG d   1      -6.056  74.780 115.852  0.00  0.00     0.028 C 
ATOM     10  C   LIG d   1      -5.800  75.329 114.438  0.00  0.00     0.006 C 
ENDBRANCH   8   9
BRANCH   8  11
ATOM     11  C   LIG d   1      -4.227  74.686 117.470  0.00  0.00     0.028 C 
ATOM     12  C   LIG d   1      -2.858  74.982 116.837  0.00  0.00     0.006 C 
ENDBRANCH   8  11
ENDBRANCH   7   8
ENDBRANCH   1   7
BRANCH   6  13
ATOM     13  N   LIG d   1      -9.201  75.115 117.665  0.00  0.00    -0.311 N 
ATOM     14  C   LIG d   1      -9.093  73.904 118.209  0.00  0.00     0.210 C 
ATOM     15  C   LIG d   1      -9.667  72.762 117.363  0.00  0.00     0.109 C 
ATOM     16  O   LIG d   1      -8.607  73.670 119.326  0.00  0.00    -0.276 OA
ATOM     17  H   LIG d   1      -9.638  75.217 116.771  0.00  0.00     0.149 HD
ENDBRANCH   6  13
BRANCH   5  18
ATOM     18  N   LIG d   1     -10.940  77.175 119.102  0.00  0.00     0.381 N 
ATOM     19  H   LIG d   1     -11.225  76.233 118.922  0.00  0.00    -0.090 HD
ATOM     20  H   LIG d   1     -11.684  77.789 118.820  0.00  0.00    -0.090 HD
ATOM     21  H   LIG d   1     -10.752  77.294 120.073  0.00  0.00    -0.090 HD
ENDBRANCH   5  18
BRANCH   3  22
ATOM     22  C   LIG d   1      -7.511  80.419 118.290  0.00  0.00     0.382 C 
ATOM     23  O   LIG d   1      -7.802  81.177 119.246  0.00  0.00    -0.241 OA
ATOM     24  O   LIG d   1      -6.934  80.887 117.290  0.00  0.00    -0.241 OA
ENDBRANCH   3  22
TORSDOF 7
ENDMDL
MODEL 6
REMARK VINA RESULT:      -4.9      1.701      4.711
REMARK  7 active torsions:
REMARK  status: ('A' for Active; 'I' for Inactive)
REMARK    1  A    between atoms: C_2  and  C_3 
REMARK    2  A    between atoms: C_3  and  O_6 
REMARK    3  A    between atoms: C_3  and  C_4 
REMARK    4  A    between atoms: C_7  and  O_6 
REMARK    5  A    between atoms: C_9  and  C_10 
REMARK    6  A    between atoms: N_15  and  C_14 
REMARK    7  A    between atoms: N_20  and  C_19 
REMARK       I    between atoms: C_22  and  N_20 
ROOT
ATOM      1  C   LIG d   1      -6.754  75.898 117.147  0.00  0.00     0.161 C 
ATOM      2  C   LIG d   1      -6.967  77.241 117.497  0.00  0.00     0.016 C 
ATOM      3  C   LIG d   1      -8.171  77.717 118.066  0.00  0.00     0.038 C 
ATOM      4  C   LIG d   1      -9.196  76.847 118.465  0.00  0.00     0.028 C 
ATOM      5  C   LIG d   1      -9.231  75.546 117.669  0.00  0.00    -0.047 C 
ATOM      6  C   LIG d   1      -7.820  74.915 117.677  0.00  0.00     0.091 C 
ENDROOT
BRANCH   1   7
ATOM      7  O   LIG d   1      -5.439  75.485 117.567  0.00  0.00    -0.368 OA
BRANCH   7   8
ATOM      8  C   LIG d   1      -4.533  75.074 116.514  0.00  0.00     0.119 C 
BRANCH   8   9
ATOM      9  C   LIG d   1      -3.099  75.373 116.994  0.00  0.00     0.028 C 
ATOM     10  C   LIG d   1      -2.032  74.844 116.020  0.00  0.00     0.006 C 
ENDBRANCH   8   9
BRANCH   8  11
ATOM     11  C   LIG d   1      -4.723  75.922 115.253  0.00  0.00     0.028 C 
ATOM     12  C   LIG d   1      -5.157  75.091 114.035  0.00  0.00     0.006 C 
ENDBRANCH   8  11
ENDBRANCH   7   8
ENDBRANCH   1   7
BRANCH   6  13
ATOM     13  N   LIG d   1      -7.745  73.682 116.851  0.00  0.00    -0.311 N 
ATOM     14  C   LIG d   1      -8.032  72.468 117.318  0.00  0.00     0.210 C 
ATOM     15  C   LIG d   1      -7.871  71.331 116.304  0.00  0.00     0.109 C 
ATOM     16  O   LIG d   1      -8.435  72.229 118.466  0.00  0.00    -0.276 OA
ATOM     17  H   LIG d   1      -7.457  73.788 115.898  0.00  0.00     0.149 HD
ENDBRANCH   6  13
BRANCH   5  18
ATOM     18  N   LIG d   1     -10.256  74.678 118.279  0.00  0.00     0.381 N 
ATOM     19  H   LIG d   1     -11.161  75.086 118.159  0.00  0.00    -0.090 HD
ATOM     20  H   LIG d   1     -10.072  74.601 119.264  0.00  0.00    -0.090 HD
ATOM     21  H   LIG d   1     -10.232  73.775 117.859  0.00  0.00    -0.090 HD
ENDBRANCH   5  18
BRANCH   3  22
ATOM     22  C   LIG d   1      -8.374  79.081 118.204  0.00  0.00     0.382 C 
ATOM     23  O   LIG d   1      -9.364  79.506 118.848  0.00  0.00    -0.241 OA
ATOM     24  O   LIG d   1      -7.605  79.893 117.655  0.00  0.00    -0.241 OA
ENDBRANCH   3  22
TORSDOF 7
ENDMDL
MODEL 7
REMARK VINA RESULT:      -4.8      4.171      7.423
REMARK  7 active torsions:
REMARK  status: ('A' for Active; 'I' for Inactive)
REMARK    1  A    between atoms: C_2  and  C_3 
REMARK    2  A    between atoms: C_3  and  O_6 
REMARK    3  A    between atoms: C_3  and  C_4 
REMARK    4  A    between atoms: C_7  and  O_6 
REMARK    5  A    between atoms: C_9  and  C_10 
REMARK    6  A    between atoms: N_15  and  C_14 
REMARK    7  A    between atoms: N_20  and  C_19 
REMARK       I    between atoms: C_22  and  N_20 
ROOT
ATOM      1  C   LIG d   1      -3.344  76.118 114.461  0.00  0.00     0.161 C 
ATOM      2  C   LIG d   1      -2.473  77.113 113.984  0.00  0.00     0.016 C 
ATOM      3  C   LIG d   1      -2.331  78.380 114.595  0.00  0.00     0.038 C 
ATOM      4  C   LIG d   1      -2.943  78.685 115.820  0.00  0.00     0.028 C 
ATOM      5  C   LIG d   1      -4.223  77.896 116.071  0.00  0.00    -0.047 C 
ATOM      6  C   LIG d   1      -3.936  76.392 115.859  0.00  0.00     0.091 C 
ENDROOT
BRANCH   1   7
ATOM      7  O   LIG d   1      -2.682  74.838 114.439  0.00  0.00    -0.368 OA
BRANCH   7   8
ATOM      8  C   LIG d   1      -1.265  74.848 114.740  0.00  0.00     0.119 C 
BRANCH   8   9
ATOM      9  C   LIG d   1      -0.609  73.721 113.918  0.00  0.00     0.028 C 
ATOM     10  C   LIG d   1       0.761  74.128 113.352  0.00  0.00     0.006 C 
ENDBRANCH   8   9
BRANCH   8  11
ATOM     11  C   LIG d   1      -1.003  74.487 116.205  0.00  0.00     0.028 C 
ATOM     12  C   LIG d   1      -0.443  75.664 117.018  0.00  0.00     0.006 C 
ENDBRANCH   8  11
ENDBRANCH   7   8
ENDBRANCH   1   7
BRANCH   6  13
ATOM     13  N   LIG d   1      -5.156  75.556 116.003  0.00  0.00    -0.311 N 
ATOM     14  C   LIG d   1      -5.196  74.435 116.719  0.00  0.00     0.210 C 
ATOM     15  C   LIG d   1      -6.549  73.715 116.719  0.00  0.00     0.109 C 
ATOM     16  O   LIG d   1      -4.249  73.984 117.382  0.00  0.00    -0.276 OA
ATOM     17  H   LIG d   1      -5.980  75.865 115.523  0.00  0.00     0.149 HD
ENDBRANCH   6  13
BRANCH   5  18
ATOM     18  N   LIG d   1      -4.679  78.210 117.439  0.00  0.00     0.381 N 
ATOM     19  H   LIG d   1      -5.675  78.124 117.492  0.00  0.00    -0.090 HD
ATOM     20  H   LIG d   1      -4.433  79.161 117.653  0.00  0.00    -0.090 HD
ATOM     21  H   LIG d   1      -4.250  77.593 118.092  0.00  0.00    -0.090 HD
ENDBRANCH   5  18
BRANCH   3  22
ATOM     22  C   LIG d   1      -1.601  79.372 113.958  0.00  0.00     0.382 C 
ATOM     23  O   LIG d   1      -1.940  79.763 112.815  0.00  0.00    -0.241 OA
ATOM     24  O   LIG d   1      -0.582  79.848 114.493  0.00  0.00    -0.241 OA
ENDBRANCH   3  22
TORSDOF 7
ENDMDL
MODEL 8
REMARK VINA RESULT:      -4.8      3.449      6.557
REMARK  7 active torsions:
REMARK  status: ('A' for Active; 'I' for Inactive)
REMARK    1  A    between atoms: C_2  and  C_3 
REMARK    2  A    between atoms: C_3  and  O_6 
REMARK    3  A    between atoms: C_3  and  C_4 
REMARK    4  A    between atoms: C_7  and  O_6 
REMARK    5  A    between atoms: C_9  and  C_10 
REMARK    6  A    between atoms: N_15  and  C_14 
REMARK    7  A    between atoms: N_20  and  C_19 
REMARK       I    between atoms: C_22  and  N_20 
ROOT
ATOM      1  C   LIG d   1      -4.492  74.790 117.075  0.00  0.00     0.161 C 
ATOM      2  C   LIG d   1      -3.604  74.181 117.977  0.00  0.00     0.016 C 
ATOM      3  C   LIG d   1      -2.214  74.438 117.993  0.00  0.00     0.038 C 
ATOM      4  C   LIG d   1      -1.636  75.442 117.202  0.00  0.00     0.028 C 
ATOM      5  C   LIG d   1      -2.414  75.727 115.922  0.00  0.00    -0.047 C 
ATOM      6  C   LIG d   1      -3.898  75.970 116.280  0.00  0.00     0.091 C 
ENDROOT
BRANCH   1   7
ATOM      7  O   LIG d   1      -5.686  75.204 117.770  0.00  0.00    -0.368 OA
BRANCH   7   8
ATOM      8  C   LIG d   1      -6.942  74.776 117.189  0.00  0.00     0.119 C 
BRANCH   8   9
ATOM      9  C   LIG d   1      -7.997  74.783 118.312  0.00  0.00     0.028 C 
ATOM     10  C   LIG d   1      -9.060  75.877 118.111  0.00  0.00     0.006 C 
ENDBRANCH   8   9
BRANCH   8  11
ATOM     11  C   LIG d   1      -6.869  73.324 116.710  0.00  0.00     0.028 C 
ATOM     12  C   LIG d   1      -7.998  72.451 117.280  0.00  0.00     0.006 C 
ENDBRANCH   8  11
ENDBRANCH   7   8
ENDBRANCH   1   7
BRANCH   6  13
ATOM     13  N   LIG d   1      -4.745  76.173 115.075  0.00  0.00    -0.311 N 
ATOM     14  C   LIG d   1      -4.562  75.517 113.931  0.00  0.00     0.210 C 
ATOM     15  C   LIG d   1      -5.534  75.891 112.808  0.00  0.00     0.109 C 
ATOM     16  O   LIG d   1      -3.707  74.637 113.750  0.00  0.00    -0.276 OA
ATOM     17  H   LIG d   1      -5.482  76.847 115.145  0.00  0.00     0.149 HD
ENDBRANCH   6  13
BRANCH   5  18
ATOM     18  N   LIG d   1      -1.780  76.884 115.264  0.00  0.00     0.381 N 
ATOM     19  H   LIG d   1      -0.910  76.607 114.854  0.00  0.00    -0.090 HD
ATOM     20  H   LIG d   1      -1.592  77.589 115.955  0.00  0.00    -0.090 HD
ATOM     21  H   LIG d   1      -2.384  77.251 114.562  0.00  0.00    -0.090 HD
ENDBRANCH   5  18
BRANCH   3  22
ATOM     22  C   LIG d   1      -1.380  73.657 118.780  0.00  0.00     0.382 C 
ATOM     23  O   LIG d   1      -0.301  74.130 119.210  0.00  0.00    -0.241 OA
ATOM     24  O   LIG d   1      -1.672  72.472 119.027  0.00  0.00    -0.241 OA
ENDBRANCH   3  22
TORSDOF 7
ENDMDL
MODEL 9
REMARK VINA RESULT:      -4.8      2.660      5.218
REMARK  7 active torsions:
REMARK  status: ('A' for Active; 'I' for Inactive)
REMARK    1  A    between atoms: C_2  and  C_3 
REMARK    2  A    between atoms: C_3  and  O_6 
REMARK    3  A    between atoms: C_3  and  C_4 
REMARK    4  A    between atoms: C_7  and  O_6 
REMARK    5  A    between atoms: C_9  and  C_10 
REMARK    6  A    between atoms: N_15  and  C_14 
REMARK    7  A    between atoms: N_20  and  C_19 
REMARK       I    between atoms: C_22  and  N_20 
ROOT
ATOM      1  C   LIG d   1      -5.691  76.307 115.895  0.00  0.00     0.161 C 
ATOM      2  C   LIG d   1      -4.729  75.421 115.382  0.00  0.00     0.016 C 
ATOM      3  C   LIG d   1      -3.379  75.409 115.803  0.00  0.00     0.038 C 
ATOM      4  C   LIG d   1      -2.932  76.186 116.882  0.00  0.00     0.028 C 
ATOM      5  C   LIG d   1      -3.749  77.456 117.093  0.00  0.00    -0.047 C 
ATOM      6  C   LIG d   1      -5.248  77.086 117.152  0.00  0.00     0.091 C 
ENDROOT
BRANCH   1   7
ATOM      7  O   LIG d   1      -6.920  75.598 116.153  0.00  0.00    -0.368 OA
BRANCH   7   8
ATOM      8  C   LIG d   1      -6.921  74.722 117.306  0.00  0.00     0.119 C 
BRANCH   8   9
ATOM      9  C   LIG d   1      -7.020  73.274 116.788  0.00  0.00     0.028 C 
ATOM     10  C   LIG d   1      -8.149  72.483 117.470  0.00  0.00     0.006 C 
ENDBRANCH   8   9
BRANCH   8  11
ATOM     11  C   LIG d   1      -8.171  74.932 118.165  0.00  0.00     0.028 C 
ATOM     12  C   LIG d   1      -9.133  75.974 117.571  0.00  0.00     0.006 C 
ENDBRANCH   8  11
ENDBRANCH   7   8
ENDBRANCH   1   7
BRANCH   6  13
ATOM     13  N   LIG d   1      -6.124  78.281 117.271  0.00  0.00    -0.311 N 
ATOM     14  C   LIG d   1      -6.808  78.581 118.374  0.00  0.00     0.210 C 
ATOM     15  C   LIG d   1      -7.665  79.847 118.278  0.00  0.00     0.109 C 
ATOM     16  O   LIG d   1      -6.761  77.936 119.432  0.00  0.00    -0.276 OA
ATOM     17  H   LIG d   1      -6.195  78.876 116.469  0.00  0.00     0.149 HD
ENDBRANCH   6  13
BRANCH   5  18
ATOM     18  N   LIG d   1      -3.263  78.099 118.329  0.00  0.00     0.381 N 
ATOM     19  H   LIG d   1      -2.600  78.813 118.102  0.00  0.00    -0.090 HD
ATOM     20  H   LIG d   1      -2.802  77.408 118.894  0.00  0.00    -0.090 HD
ATOM     21  H   LIG d   1      -4.028  78.493 118.831  0.00  0.00    -0.090 HD
ENDBRANCH   5  18
BRANCH   3  22
ATOM     22  C   LIG d   1      -2.452  74.641 115.116  0.00  0.00     0.382 C 
ATOM     23  O   LIG d   1      -1.507  74.095 115.735  0.00  0.00    -0.241 OA
ATOM     24  O   LIG d   1      -2.523  74.523 113.878  0.00  0.00    -0.241 OA
ENDBRANCH   3  22
TORSDOF 7
ENDMDL
