MODEL 1
REMARK VINA RESULT:      -6.3      0.000      0.000
REMARK  7 active torsions:
REMARK  status: ('A' for Active; 'I' for Inactive)
REMARK    1  A    between atoms: C_2  and  C_3 
REMARK    2  A    between atoms: C_3  and  O_6 
REMARK    3  A    between atoms: C_3  and  C_4 
REMARK    4  A    between atoms: C_7  and  O_6 
REMARK    5  A    between atoms: C_9  and  C_10 
REMARK    6  A    between atoms: N_15  and  C_14 
REMARK    7  A    between atoms: N_20  and  C_19 
REMARK       I    between atoms: C_22  and  N_20 
ROOT
ATOM      1  C   LIG d   1      -6.275  75.154 116.148  0.00  0.00     0.161 C 
ATOM      2  C   LIG d   1      -5.100  74.519 115.714  0.00  0.00     0.016 C 
ATOM      3  C   LIG d   1      -3.817  75.106 115.811  0.00  0.00     0.038 C 
ATOM      4  C   LIG d   1      -3.604  76.314 116.491  0.00  0.00     0.028 C 
ATOM      5  C   LIG d   1      -4.824  77.228 116.499  0.00  0.00    -0.047 C 
ATOM      6  C   LIG d   1      -6.049  76.426 116.993  0.00  0.00     0.091 C 
ENDROOT
BRANCH   1   7
ATOM      7  O   LIG d   1      -7.101  74.216 116.865  0.00  0.00    -0.368 OA
BRANCH   7   8
ATOM      8  C   LIG d   1      -8.164  73.591 116.104  0.00  0.00     0.119 C 
BRANCH   8   9
ATOM      9  C   LIG d   1      -9.456  73.700 116.937  0.00  0.00     0.028 C 
ATOM     10  C   LIG d   1     -10.228  75.000 116.656  0.00  0.00     0.006 C 
ENDBRANCH   8   9
BRANCH   8  11
ATOM     11  C   LIG d   1      -7.917  72.089 115.933  0.00  0.00     0.028 C 
ATOM     12  C   LIG d   1      -9.154  71.240 116.269  0.00  0.00     0.006 C 
ENDBRANCH   8  11
ENDBRANCH   7   8
ENDBRANCH   1   7
BRANCH   6  13
ATOM     13  N   LIG d   1      -7.303  77.222 116.952  0.00  0.00    -0.311 N 
ATOM     14  C   LIG d   1      -7.751  77.939 117.981  0.00  0.00     0.210 C 
ATOM     15  C   LIG d   1      -9.075  78.669 117.734  0.00  0.00     0.109 C 
ATOM     16  O   LIG d   1      -7.161  78.065 119.065  0.00  0.00    -0.276 OA
ATOM     17  H   LIG d   1      -7.829  77.201 116.100  0.00  0.00     0.149 HD
ENDBRANCH   6  13
BRANCH   5  18
ATOM     18  N   LIG d   1      -4.508  78.387 117.355  0.00  0.00     0.381 N 
ATOM     19  H   LIG d   1      -5.126  78.405 118.142  0.00  0.00    -0.090 HD
ATOM     20  H   LIG d   1      -4.646  79.230 116.826  0.00  0.00    -0.090 HD
ATOM     21  H   LIG d   1      -3.564  78.333 117.667  0.00  0.00    -0.090 HD
ENDBRANCH   5  18
BRANCH   3  22
ATOM     22  C   LIG d   1      -2.736  74.501 115.188  0.00  0.00     0.382 C 
ATOM     23  O   LIG d   1      -1.858  73.926 115.875  0.00  0.00    -0.241 OA
ATOM     24  O   LIG d   1      -2.605  74.562 113.951  0.00  0.00    -0.241 OA
ENDBRANCH   3  22
TORSDOF 7
ENDMDL
MODEL 2
REMARK VINA RESULT:      -6.2      1.631      5.106
REMARK  7 active torsions:
REMARK  status: ('A' for Active; 'I' for Inactive)
REMARK    1  A    between atoms: C_2  and  C_3 
REMARK    2  A    between atoms: C_3  and  O_6 
REMARK    3  A    between atoms: C_3  and  C_4 
REMARK    4  A    between atoms: C_7  and  O_6 
REMARK    5  A    between atoms: C_9  and  C_10 
REMARK    6  A    between atoms: N_15  and  C_14 
REMARK    7  A    between atoms: N_20  and  C_19 
REMARK       I    between atoms: C_22  and  N_20 
ROOT
ATOM      1  C   LIG d   1      -7.360  76.379 117.296  0.00  0.00     0.161 C 
ATOM      2  C   LIG d   1      -8.374  77.310 117.573  0.00  0.00     0.016 C 
ATOM      3  C   LIG d   1      -8.153  78.705 117.643  0.00  0.00     0.038 C 
ATOM      4  C   LIG d   1      -6.923  79.279 117.289  0.00  0.00     0.028 C 
ATOM      5  C   LIG d   1      -5.736  78.343 117.492  0.00  0.00    -0.047 C 
ATOM      6  C   LIG d   1      -6.035  76.995 116.797  0.00  0.00     0.091 C 
ENDROOT
BRANCH   1   7
ATOM      7  O   LIG d   1      -7.841  75.398 116.356  0.00  0.00    -0.368 OA
BRANCH   7   8
ATOM      8  C   LIG d   1      -7.848  74.024 116.817  0.00  0.00     0.119 C 
BRANCH   8   9
ATOM      9  C   LIG d   1      -7.161  73.169 115.735  0.00  0.00     0.028 C 
ATOM     10  C   LIG d   1      -7.524  71.679 115.847  0.00  0.00     0.006 C 
ENDBRANCH   8   9
BRANCH   8  11
ATOM     11  C   LIG d   1      -9.276  73.478 116.919  0.00  0.00     0.028 C 
ATOM     12  C   LIG d   1     -10.340  74.520 116.541  0.00  0.00     0.006 C 
ENDBRANCH   8  11
ENDBRANCH   7   8
ENDBRANCH   1   7
BRANCH   6  13
ATOM     13  N   LIG d   1      -4.961  75.992 117.019  0.00  0.00    -0.311 N 
ATOM     14  C   LIG d   1      -4.276  75.421 116.030  0.00  0.00     0.210 C 
ATOM     15  C   LIG d   1      -3.226  74.399 116.477  0.00  0.00     0.109 C 
ATOM     16  O   LIG d   1      -4.415  75.688 114.827  0.00  0.00    -0.276 OA
ATOM     17  H   LIG d   1      -4.761  75.740 117.967  0.00  0.00     0.149 HD
ENDBRANCH   6  13
BRANCH   5  18
ATOM     18  N   LIG d   1      -4.539  79.017 116.956  0.00  0.00     0.381 N 
ATOM     19  H   LIG d   1      -4.291  79.786 117.545  0.00  0.00    -0.090 HD
ATOM     20  H   LIG d   1      -4.751  79.376 116.041  0.00  0.00    -0.090 HD
ATOM     21  H   LIG d   1      -3.781  78.373 116.901  0.00  0.00    -0.090 HD
ENDBRANCH   5  18
BRANCH   3  22
ATOM     22  C   LIG d   1      -9.158  79.538 118.110  0.00  0.00     0.382 C 
ATOM     23  O   LIG d   1      -8.874  80.679 118.548  0.00  0.00    -0.241 OA
ATOM     24  O   LIG d   1     -10.340  79.147 118.139  0.00  0.00    -0.241 OA
ENDBRANCH   3  22
TORSDOF 7
ENDMDL
MODEL 3
REMARK VINA RESULT:      -5.6      2.234      5.119
REMARK  7 active torsions:
REMARK  status: ('A' for Active; 'I' for Inactive)
REMARK    1  A    between atoms: C_2  and  C_3 
REMARK    2  A    between atoms: C_3  and  O_6 
REMARK    3  A    between atoms: C_3  and  C_4 
REMARK    4  A    between atoms: C_7  and  O_6 
REMARK    5  A    between atoms: C_9  and  C_10 
REMARK    6  A    between atoms: N_15  and  C_14 
REMARK    7  A    between atoms: N_20  and  C_19 
REMARK       I    between atoms: C_22  and  N_20 
ROOT
ATOM      1  C   LIG d   1      -4.259  75.616 116.907  0.00  0.00     0.161 C 
ATOM      2  C   LIG d   1      -5.250  76.504 117.355  0.00  0.00     0.016 C 
ATOM      3  C   LIG d   1      -5.291  77.871 116.996  0.00  0.00     0.038 C 
ATOM      4  C   LIG d   1      -4.422  78.412 116.036  0.00  0.00     0.028 C 
ATOM      5  C   LIG d   1      -3.091  77.673 115.939  0.00  0.00    -0.047 C 
ATOM      6  C   LIG d   1      -3.367  76.161 115.771  0.00  0.00     0.091 C 
ENDROOT
BRANCH   1   7
ATOM      7  O   LIG d   1      -4.862  74.368 116.514  0.00  0.00    -0.368 OA
BRANCH   7   8
ATOM      8  C   LIG d   1      -6.278  74.412 116.209  0.00  0.00     0.119 C 
BRANCH   8   9
ATOM      9  C   LIG d   1      -6.915  73.130 116.779  0.00  0.00     0.028 C 
ATOM     10  C   LIG d   1      -7.247  72.103 115.683  0.00  0.00     0.006 C 
ENDBRANCH   8   9
BRANCH   8  11
ATOM     11  C   LIG d   1      -6.525  74.351 114.699  0.00  0.00     0.028 C 
ATOM     12  C   LIG d   1      -6.730  75.739 114.072  0.00  0.00     0.006 C 
ENDBRANCH   8  11
ENDBRANCH   7   8
ENDBRANCH   1   7
BRANCH   6  13
ATOM     13  N   LIG d   1      -2.119  75.356 115.753  0.00  0.00    -0.311 N 
ATOM     14  C   LIG d   1      -1.789  74.536 114.756  0.00  0.00     0.210 C 
ATOM     15  C   LIG d   1      -0.468  73.785 114.947  0.00  0.00     0.109 C 
ATOM     16  O   LIG d   1      -2.449  74.386 113.717  0.00  0.00    -0.276 OA
ATOM     17  H   LIG d   1      -1.509  75.441 116.543  0.00  0.00     0.149 HD
ENDBRANCH   6  13
BRANCH   5  18
ATOM     18  N   LIG d   1      -2.340  78.253 114.810  0.00  0.00     0.381 N 
ATOM     19  H   LIG d   1      -1.379  77.982 114.867  0.00  0.00    -0.090 HD
ATOM     20  H   LIG d   1      -2.390  79.255 114.867  0.00  0.00    -0.090 HD
ATOM     21  H   LIG d   1      -2.729  77.942 113.947  0.00  0.00    -0.090 HD
ENDBRANCH   5  18
BRANCH   3  22
ATOM     22  C   LIG d   1      -6.183  78.722 117.629  0.00  0.00     0.382 C 
ATOM     23  O   LIG d   1      -6.503  78.518 118.825  0.00  0.00    -0.241 OA
ATOM     24  O   LIG d   1      -6.706  79.666 117.007  0.00  0.00    -0.241 OA
ENDBRANCH   3  22
TORSDOF 7
ENDMDL
MODEL 4
REMARK VINA RESULT:      -5.6      1.862      5.215
REMARK  7 active torsions:
REMARK  status: ('A' for Active; 'I' for Inactive)
REMARK    1  A    between atoms: C_2  and  C_3 
REMARK    2  A    between atoms: C_3  and  O_6 
REMARK    3  A    between atoms: C_3  and  C_4 
REMARK    4  A    between atoms: C_7  and  O_6 
REMARK    5  A    between atoms: C_9  and  C_10 
REMARK    6  A    between atoms: N_15  and  C_14 
REMARK    7  A    between atoms: N_20  and  C_19 
REMARK       I    between atoms: C_22  and  N_20 
ROOT
ATOM      1  C   LIG d   1      -5.263  74.743 116.249  0.00  0.00     0.161 C 
ATOM      2  C   LIG d   1      -6.042  73.615 115.943  0.00  0.00     0.016 C 
ATOM      3  C   LIG d   1      -7.449  73.580 116.076  0.00  0.00     0.038 C 
ATOM      4  C   LIG d   1      -8.193  74.729 116.383  0.00  0.00     0.028 C 
ATOM      5  C   LIG d   1      -7.410  75.760 117.191  0.00  0.00    -0.047 C 
ATOM      6  C   LIG d   1      -6.067  76.040 116.479  0.00  0.00     0.091 C 
ENDROOT
BRANCH   1   7
ATOM      7  O   LIG d   1      -4.270  74.945 115.224  0.00  0.00    -0.368 OA
BRANCH   7   8
ATOM      8  C   LIG d   1      -2.900  75.065 115.679  0.00  0.00     0.119 C 
BRANCH   8   9
ATOM      9  C   LIG d   1      -2.010  74.315 114.669  0.00  0.00     0.028 C 
ATOM     10  C   LIG d   1      -0.570  74.134 115.178  0.00  0.00     0.006 C 
ENDBRANCH   8   9
BRANCH   8  11
ATOM     11  C   LIG d   1      -2.692  74.346 117.015  0.00  0.00     0.028 C 
ATOM     12  C   LIG d   1      -2.191  75.285 118.124  0.00  0.00     0.006 C 
ENDBRANCH   8  11
ENDBRANCH   7   8
ENDBRANCH   1   7
BRANCH   6  13
ATOM     13  N   LIG d   1      -5.203  76.975 117.247  0.00  0.00    -0.311 N 
ATOM     14  C   LIG d   1      -5.196  78.292 117.054  0.00  0.00     0.210 C 
ATOM     15  C   LIG d   1      -4.216  79.070 117.938  0.00  0.00     0.109 C 
ATOM     16  O   LIG d   1      -5.932  78.895 116.257  0.00  0.00    -0.276 OA
ATOM     17  H   LIG d   1      -4.597  76.574 117.936  0.00  0.00     0.149 HD
ENDBRANCH   6  13
BRANCH   5  18
ATOM     18  N   LIG d   1      -8.257  76.960 117.322  0.00  0.00     0.381 N 
ATOM     19  H   LIG d   1      -8.270  77.263 118.275  0.00  0.00    -0.090 HD
ATOM     20  H   LIG d   1      -9.197  76.726 117.053  0.00  0.00    -0.090 HD
ATOM     21  H   LIG d   1      -7.909  77.689 116.739  0.00  0.00    -0.090 HD
ENDBRANCH   5  18
BRANCH   3  22
ATOM     22  C   LIG d   1      -8.123  72.376 115.940  0.00  0.00     0.382 C 
ATOM     23  O   LIG d   1      -9.330  72.292 116.273  0.00  0.00    -0.241 OA
ATOM     24  O   LIG d   1      -7.528  71.362 115.531  0.00  0.00    -0.241 OA
ENDBRANCH   3  22
TORSDOF 7
ENDMDL
MODEL 5
REMARK VINA RESULT:      -5.6     14.442     16.790
REMARK  7 active torsions:
REMARK  status: ('A' for Active; 'I' for Inactive)
REMARK    1  A    between atoms: C_2  and  C_3 
REMARK    2  A    between atoms: C_3  and  O_6 
REMARK    3  A    between atoms: C_3  and  C_4 
REMARK    4  A    between atoms: C_7  and  O_6 
REMARK    5  A    between atoms: C_9  and  C_10 
REMARK    6  A    between atoms: N_15  and  C_14 
REMARK    7  A    between atoms: N_20  and  C_19 
REMARK       I    between atoms: C_22  and  N_20 
ROOT
ATOM      1  C   LIG d   1      -4.314  91.413 116.831  0.00  0.00     0.161 C 
ATOM      2  C   LIG d   1      -5.440  91.855 116.117  0.00  0.00     0.016 C 
ATOM      3  C   LIG d   1      -6.049  91.106 115.084  0.00  0.00     0.038 C 
ATOM      4  C   LIG d   1      -5.661  89.789 114.795  0.00  0.00     0.028 C 
ATOM      5  C   LIG d   1      -4.207  89.495 115.147  0.00  0.00    -0.047 C 
ATOM      6  C   LIG d   1      -3.945  89.932 116.606  0.00  0.00     0.091 C 
ENDROOT
BRANCH   1   7
ATOM      7  O   LIG d   1      -4.492  91.677 118.237  0.00  0.00    -0.368 OA
BRANCH   7   8
ATOM      8  C   LIG d   1      -3.607  92.666 118.818  0.00  0.00     0.119 C 
BRANCH   8   9
ATOM      9  C   LIG d   1      -4.465  93.886 119.204  0.00  0.00     0.028 C 
ATOM     10  C   LIG d   1      -5.922  93.504 119.512  0.00  0.00     0.006 C 
ENDBRANCH   8   9
BRANCH   8  11
ATOM     11  C   LIG d   1      -2.601  93.187 117.787  0.00  0.00     0.028 C 
ATOM     12  C   LIG d   1      -1.141  92.972 118.216  0.00  0.00     0.006 C 
ENDBRANCH   8  11
ENDBRANCH   7   8
ENDBRANCH   1   7
BRANCH   6  13
ATOM     13  N   LIG d   1      -2.524  89.757 117.004  0.00  0.00    -0.311 N 
ATOM     14  C   LIG d   1      -2.147  89.156 118.131  0.00  0.00     0.210 C 
ATOM     15  C   LIG d   1      -0.633  89.099 118.359  0.00  0.00     0.109 C 
ATOM     16  O   LIG d   1      -2.921  88.637 118.949  0.00  0.00    -0.276 OA
ATOM     17  H   LIG d   1      -1.828  90.121 116.383  0.00  0.00     0.149 HD
ENDBRANCH   6  13
BRANCH   5  18
ATOM     18  N   LIG d   1      -3.977  88.055 114.924  0.00  0.00     0.381 N 
ATOM     19  H   LIG d   1      -3.498  87.919 114.056  0.00  0.00    -0.090 HD
ATOM     20  H   LIG d   1      -4.865  87.589 114.871  0.00  0.00    -0.090 HD
ATOM     21  H   LIG d   1      -3.438  87.676 115.672  0.00  0.00    -0.090 HD
ENDBRANCH   5  18
BRANCH   3  22
ATOM     22  C   LIG d   1      -7.032  91.690 114.300  0.00  0.00     0.382 C 
ATOM     23  O   LIG d   1      -7.522  92.797 114.630  0.00  0.00    -0.241 OA
ATOM     24  O   LIG d   1      -7.467  91.103 113.291  0.00  0.00    -0.241 OA
ENDBRANCH   3  22
TORSDOF 7
ENDMDL
MODEL 6
REMARK VINA RESULT:      -5.5      1.605      2.077
REMARK  7 active torsions:
REMARK  status: ('A' for Active; 'I' for Inactive)
REMARK    1  A    between atoms: C_2  and  C_3 
REMARK    2  A    between atoms: C_3  and  O_6 
REMARK    3  A    between atoms: C_3  and  C_4 
REMARK    4  A    between atoms: C_7  and  O_6 
REMARK    5  A    between atoms: C_9  and  C_10 
REMARK    6  A    between atoms: N_15  and  C_14 
REMARK    7  A    between atoms: N_20  and  C_19 
REMARK       I    between atoms: C_22  and  N_20 
ROOT
ATOM      1  C   LIG d   1      -4.477  75.283 115.451  0.00  0.00     0.161 C 
ATOM      2  C   LIG d   1      -3.378  74.573 114.940  0.00  0.00     0.016 C 
ATOM      3  C   LIG d   1      -2.048  75.049 114.997  0.00  0.00     0.038 C 
ATOM      4  C   LIG d   1      -1.706  76.209 115.708  0.00  0.00     0.028 C 
ATOM      5  C   LIG d   1      -2.845  77.218 115.806  0.00  0.00    -0.047 C 
ATOM      6  C   LIG d   1      -4.109  76.498 116.329  0.00  0.00     0.091 C 
ENDROOT
BRANCH   1   7
ATOM      7  O   LIG d   1      -5.345  74.388 116.172  0.00  0.00    -0.368 OA
BRANCH   7   8
ATOM      8  C   LIG d   1      -6.436  73.809 115.414  0.00  0.00     0.119 C 
BRANCH   8   9
ATOM      9  C   LIG d   1      -7.185  74.965 114.724  0.00  0.00     0.028 C 
ATOM     10  C   LIG d   1      -8.298  75.554 115.608  0.00  0.00     0.006 C 
ENDBRANCH   8   9
BRANCH   8  11
ATOM     11  C   LIG d   1      -7.467  73.150 116.335  0.00  0.00     0.028 C 
ATOM     12  C   LIG d   1      -7.970  71.801 115.798  0.00  0.00     0.006 C 
ENDBRANCH   8  11
ENDBRANCH   7   8
ENDBRANCH   1   7
BRANCH   6  13
ATOM     13  N   LIG d   1      -5.294  77.394 116.375  0.00  0.00    -0.311 N 
ATOM     14  C   LIG d   1      -5.671  78.055 117.468  0.00  0.00     0.210 C 
ATOM     15  C   LIG d   1      -6.932  78.909 117.304  0.00  0.00     0.109 C 
ATOM     16  O   LIG d   1      -5.062  78.041 118.548  0.00  0.00    -0.276 OA
ATOM     17  H   LIG d   1      -5.827  77.489 115.533  0.00  0.00     0.149 HD
ENDBRANCH   6  13
BRANCH   5  18
ATOM     18  N   LIG d   1      -2.397  78.312 116.688  0.00  0.00     0.381 N 
ATOM     19  H   LIG d   1      -1.640  77.997 117.261  0.00  0.00    -0.090 HD
ATOM     20  H   LIG d   1      -3.157  78.578 117.288  0.00  0.00    -0.090 HD
ATOM     21  H   LIG d   1      -2.107  79.093 116.141  0.00  0.00    -0.090 HD
ENDBRANCH   5  18
BRANCH   3  22
ATOM     22  C   LIG d   1      -1.049  74.384 114.302  0.00  0.00     0.382 C 
ATOM     23  O   LIG d   1      -0.593  73.302 114.744  0.00  0.00    -0.241 OA
ATOM     24  O   LIG d   1      -0.568  74.874 113.263  0.00  0.00    -0.241 OA
ENDBRANCH   3  22
TORSDOF 7
ENDMDL
MODEL 7
REMARK VINA RESULT:      -5.3      1.882      2.289
REMARK  7 active torsions:
REMARK  status: ('A' for Active; 'I' for Inactive)
REMARK    1  A    between atoms: C_2  and  C_3 
REMARK    2  A    between atoms: C_3  and  O_6 
REMARK    3  A    between atoms: C_3  and  C_4 
REMARK    4  A    between atoms: C_7  and  O_6 
REMARK    5  A    between atoms: C_9  and  C_10 
REMARK    6  A    between atoms: N_15  and  C_14 
REMARK    7  A    between atoms: N_20  and  C_19 
REMARK       I    between atoms: C_22  and  N_20 
ROOT
ATOM      1  C   LIG d   1      -6.756  76.945 116.375  0.00  0.00     0.161 C 
ATOM      2  C   LIG d   1      -5.722  76.720 115.452  0.00  0.00     0.016 C 
ATOM      3  C   LIG d   1      -4.493  77.418 115.475  0.00  0.00     0.038 C 
ATOM      4  C   LIG d   1      -4.153  78.287 116.523  0.00  0.00     0.028 C 
ATOM      5  C   LIG d   1      -5.363  78.922 117.200  0.00  0.00    -0.047 C 
ATOM      6  C   LIG d   1      -6.361  77.808 117.591  0.00  0.00     0.091 C 
ENDROOT
BRANCH   1   7
ATOM      7  O   LIG d   1      -7.303  75.685 116.812  0.00  0.00    -0.368 OA
BRANCH   7   8
ATOM      8  C   LIG d   1      -8.165  75.003 115.868  0.00  0.00     0.119 C 
BRANCH   8   9
ATOM      9  C   LIG d   1      -9.578  74.956 116.481  0.00  0.00     0.028 C 
ATOM     10  C   LIG d   1     -10.030  73.523 116.806  0.00  0.00     0.006 C 
ENDBRANCH   8   9
BRANCH   8  11
ATOM     11  C   LIG d   1      -7.751  73.539 115.693  0.00  0.00     0.028 C 
ATOM     12  C   LIG d   1      -6.399  73.219 116.350  0.00  0.00     0.006 C 
ENDBRANCH   8  11
ENDBRANCH   7   8
ENDBRANCH   1   7
BRANCH   6  13
ATOM     13  N   LIG d   1      -7.612  78.351 118.183  0.00  0.00    -0.311 N 
ATOM     14  C   LIG d   1      -8.156  79.508 117.813  0.00  0.00     0.210 C 
ATOM     15  C   LIG d   1      -9.435  79.891 118.565  0.00  0.00     0.109 C 
ATOM     16  O   LIG d   1      -7.720  80.239 116.911  0.00  0.00    -0.276 OA
ATOM     17  H   LIG d   1      -8.050  77.807 118.901  0.00  0.00     0.149 HD
ENDBRANCH   6  13
BRANCH   5  18
ATOM     18  N   LIG d   1      -4.873  79.693 118.358  0.00  0.00     0.381 N 
ATOM     19  H   LIG d   1      -5.440  79.499 119.159  0.00  0.00    -0.090 HD
ATOM     20  H   LIG d   1      -4.946  80.673 118.150  0.00  0.00    -0.090 HD
ATOM     21  H   LIG d   1      -3.924  79.456 118.548  0.00  0.00    -0.090 HD
ENDBRANCH   5  18
BRANCH   3  22
ATOM     22  C   LIG d   1      -3.603  77.280 114.420  0.00  0.00     0.382 C 
ATOM     23  O   LIG d   1      -3.291  78.279 113.728  0.00  0.00    -0.241 OA
ATOM     24  O   LIG d   1      -3.144  76.161 114.124  0.00  0.00    -0.241 OA
ENDBRANCH   3  22
TORSDOF 7
ENDMDL
MODEL 8
REMARK VINA RESULT:      -5.3      2.279      5.836
REMARK  7 active torsions:
REMARK  status: ('A' for Active; 'I' for Inactive)
REMARK    1  A    between atoms: C_2  and  C_3 
REMARK    2  A    between atoms: C_3  and  O_6 
REMARK    3  A    between atoms: C_3  and  C_4 
REMARK    4  A    between atoms: C_7  and  O_6 
REMARK    5  A    between atoms: C_9  and  C_10 
REMARK    6  A    between atoms: N_15  and  C_14 
REMARK    7  A    between atoms: N_20  and  C_19 
REMARK       I    between atoms: C_22  and  N_20 
ROOT
ATOM      1  C   LIG d   1      -5.653  76.068 116.622  0.00  0.00     0.161 C 
ATOM      2  C   LIG d   1      -5.726  77.442 116.903  0.00  0.00     0.016 C 
ATOM      3  C   LIG d   1      -6.939  78.119 117.164  0.00  0.00     0.038 C 
ATOM      4  C   LIG d   1      -8.154  77.434 117.311  0.00  0.00     0.028 C 
ATOM      5  C   LIG d   1      -8.206  76.120 116.539  0.00  0.00    -0.047 C 
ATOM      6  C   LIG d   1      -6.955  75.283 116.888  0.00  0.00     0.091 C 
ENDROOT
BRANCH   1   7
ATOM      7  O   LIG d   1      -4.556  75.478 117.348  0.00  0.00    -0.368 OA
BRANCH   7   8
ATOM      8  C   LIG d   1      -3.230  75.934 116.979  0.00  0.00     0.119 C 
BRANCH   8   9
ATOM      9  C   LIG d   1      -2.816  75.171 115.706  0.00  0.00     0.028 C 
ATOM     10  C   LIG d   1      -2.131  76.082 114.674  0.00  0.00     0.006 C 
ENDBRANCH   8   9
BRANCH   8  11
ATOM     11  C   LIG d   1      -2.194  75.547 118.039  0.00  0.00     0.028 C 
ATOM     12  C   LIG d   1      -1.802  74.062 117.974  0.00  0.00     0.006 C 
ENDBRANCH   8  11
ENDBRANCH   7   8
ENDBRANCH   1   7
BRANCH   6  13
ATOM     13  N   LIG d   1      -6.884  74.018 116.111  0.00  0.00    -0.311 N 
ATOM     14  C   LIG d   1      -7.297  72.843 116.583  0.00  0.00     0.210 C 
ATOM     15  C   LIG d   1      -7.116  71.661 115.626  0.00  0.00     0.109 C 
ATOM     16  O   LIG d   1      -7.827  72.674 117.692  0.00  0.00    -0.276 OA
ATOM     17  H   LIG d   1      -6.496  74.070 115.189  0.00  0.00     0.149 HD
ENDBRANCH   6  13
BRANCH   5  18
ATOM     18  N   LIG d   1      -9.470  75.446 116.891  0.00  0.00     0.381 N 
ATOM     19  H   LIG d   1      -9.580  74.621 116.335  0.00  0.00    -0.090 HD
ATOM     20  H   LIG d   1     -10.236  76.065 116.691  0.00  0.00    -0.090 HD
ATOM     21  H   LIG d   1      -9.470  75.206 117.858  0.00  0.00    -0.090 HD
ENDBRANCH   5  18
BRANCH   3  22
ATOM     22  C   LIG d   1      -6.951  79.504 117.241  0.00  0.00     0.382 C 
ATOM     23  O   LIG d   1      -8.042  80.123 117.229  0.00  0.00    -0.241 OA
ATOM     24  O   LIG d   1      -5.883  80.143 117.277  0.00  0.00    -0.241 OA
ENDBRANCH   3  22
TORSDOF 7
ENDMDL
MODEL 9
REMARK VINA RESULT:      -5.2      2.217      5.797
REMARK  7 active torsions:
REMARK  status: ('A' for Active; 'I' for Inactive)
REMARK    1  A    between atoms: C_2  and  C_3 
REMARK    2  A    between atoms: C_3  and  O_6 
REMARK    3  A    between atoms: C_3  and  C_4 
REMARK    4  A    between atoms: C_7  and  O_6 
REMARK    5  A    between atoms: C_9  and  C_10 
REMARK    6  A    between atoms: N_15  and  C_14 
REMARK    7  A    between atoms: N_20  and  C_19 
REMARK       I    between atoms: C_22  and  N_20 
ROOT
ATOM      1  C   LIG d   1      -7.614  77.215 116.865  0.00  0.00     0.161 C 
ATOM      2  C   LIG d   1      -8.654  76.282 117.013  0.00  0.00     0.016 C 
ATOM      3  C   LIG d   1      -8.499  74.899 116.766  0.00  0.00     0.038 C 
ATOM      4  C   LIG d   1      -7.245  74.329 116.500  0.00  0.00     0.028 C 
ATOM      5  C   LIG d   1      -6.266  75.298 115.847  0.00  0.00    -0.047 C 
ATOM      6  C   LIG d   1      -6.212  76.597 116.683  0.00  0.00     0.091 C 
ENDROOT
BRANCH   1   7
ATOM      7  O   LIG d   1      -7.618  78.130 117.979  0.00  0.00    -0.368 OA
BRANCH   7   8
ATOM      8  C   LIG d   1      -8.089  79.472 117.700  0.00  0.00     0.119 C 
BRANCH   8   9
ATOM      9  C   LIG d   1      -7.220  80.447 118.517  0.00  0.00     0.028 C 
ATOM     10  C   LIG d   1      -5.880  80.757 117.829  0.00  0.00     0.006 C 
ENDBRANCH   8   9
BRANCH   8  11
ATOM     11  C   LIG d   1      -9.519  79.677 118.210  0.00  0.00     0.028 C 
ATOM     12  C   LIG d   1     -10.138  81.000 117.732  0.00  0.00     0.006 C 
ENDBRANCH   8  11
ENDBRANCH   7   8
ENDBRANCH   1   7
BRANCH   6  13
ATOM     13  N   LIG d   1      -5.341  77.632 116.068  0.00  0.00    -0.311 N 
ATOM     14  C   LIG d   1      -4.059  77.796 116.389  0.00  0.00     0.210 C 
ATOM     15  C   LIG d   1      -3.348  78.934 115.650  0.00  0.00     0.109 C 
ATOM     16  O   LIG d   1      -3.434  77.086 117.191  0.00  0.00    -0.276 OA
ATOM     17  H   LIG d   1      -5.759  78.232 115.383  0.00  0.00     0.149 HD
ENDBRANCH   6  13
BRANCH   5  18
ATOM     18  N   LIG d   1      -4.961  74.617 115.752  0.00  0.00     0.381 N 
ATOM     19  H   LIG d   1      -4.928  73.857 116.401  0.00  0.00    -0.090 HD
ATOM     20  H   LIG d   1      -4.236  75.270 115.992  0.00  0.00    -0.090 HD
ATOM     21  H   LIG d   1      -4.820  74.278 114.826  0.00  0.00    -0.090 HD
ENDBRANCH   5  18
BRANCH   3  22
ATOM     22  C   LIG d   1      -9.615  74.075 116.746  0.00  0.00     0.382 C 
ATOM     23  O   LIG d   1      -9.473  72.829 116.716  0.00  0.00    -0.241 OA
ATOM     24  O   LIG d   1     -10.760  74.563 116.713  0.00  0.00    -0.241 OA
ENDBRANCH   3  22
TORSDOF 7
ENDMDL
