MODEL 1
REMARK VINA RESULT:      -5.1      0.000      0.000
REMARK  7 active torsions:
REMARK  status: ('A' for Active; 'I' for Inactive)
REMARK    1  A    between atoms: C_2  and  C_3 
REMARK    2  A    between atoms: C_3  and  O_6 
REMARK    3  A    between atoms: C_3  and  C_4 
REMARK    4  A    between atoms: C_7  and  O_6 
REMARK    5  A    between atoms: C_9  and  C_10 
REMARK    6  A    between atoms: N_15  and  C_14 
REMARK    7  A    between atoms: N_20  and  C_19 
REMARK       I    between atoms: C_22  and  N_20 
ROOT
ATOM      1  C   LIG d   1      -3.333  77.160 116.021  0.00  0.00     0.161 C 
ATOM      2  C   LIG d   1      -3.314  78.185 115.060  0.00  0.00     0.016 C 
ATOM      3  C   LIG d   1      -2.151  78.566 114.352  0.00  0.00     0.038 C 
ATOM      4  C   LIG d   1      -0.953  77.842 114.448  0.00  0.00     0.028 C 
ATOM      5  C   LIG d   1      -0.789  77.118 115.780  0.00  0.00    -0.047 C 
ATOM      6  C   LIG d   1      -2.062  76.286 116.059  0.00  0.00     0.091 C 
ENDROOT
BRANCH   1   7
ATOM      7  O   LIG d   1      -4.501  76.337 115.835  0.00  0.00    -0.368 OA
BRANCH   7   8
ATOM      8  C   LIG d   1      -5.770  76.946 116.180  0.00  0.00     0.119 C 
BRANCH   8   9
ATOM      9  C   LIG d   1      -6.208  76.366 117.538  0.00  0.00     0.028 C 
ATOM     10  C   LIG d   1      -7.519  75.567 117.441  0.00  0.00     0.006 C 
ENDBRANCH   8   9
BRANCH   8  11
ATOM     11  C   LIG d   1      -6.869  76.540 115.192  0.00  0.00     0.028 C 
ATOM     12  C   LIG d   1      -6.331  76.279 113.777  0.00  0.00     0.006 C 
ENDBRANCH   8  11
ENDBRANCH   7   8
ENDBRANCH   1   7
BRANCH   6  13
ATOM     13  N   LIG d   1      -2.019  75.612 117.383  0.00  0.00    -0.311 N 
ATOM     14  C   LIG d   1      -1.444  74.428 117.584  0.00  0.00     0.210 C 
ATOM     15  C   LIG d   1      -1.530  73.903 119.021  0.00  0.00     0.109 C 
ATOM     16  O   LIG d   1      -0.842  73.777 116.717  0.00  0.00    -0.276 OA
ATOM     17  H   LIG d   1      -2.457  76.084 118.150  0.00  0.00     0.149 HD
ENDBRANCH   6  13
BRANCH   5  18
ATOM     18  N   LIG d   1       0.432  76.295 115.692  0.00  0.00     0.381 N 
ATOM     19  H   LIG d   1       1.160  76.709 116.240  0.00  0.00    -0.090 HD
ATOM     20  H   LIG d   1       0.736  76.265 114.735  0.00  0.00    -0.090 HD
ATOM     21  H   LIG d   1       0.245  75.372 116.018  0.00  0.00    -0.090 HD
ENDBRANCH   5  18
BRANCH   3  22
ATOM     22  C   LIG d   1      -2.169  79.708 113.566  0.00  0.00     0.382 C 
ATOM     23  O   LIG d   1      -3.225  80.377 113.456  0.00  0.00    -0.241 OA
ATOM     24  O   LIG d   1      -1.155  80.053 112.929  0.00  0.00    -0.241 OA
ENDBRANCH   3  22
TORSDOF 7
ENDMDL
MODEL 2
REMARK VINA RESULT:      -4.7     17.747     20.373
REMARK  7 active torsions:
REMARK  status: ('A' for Active; 'I' for Inactive)
REMARK    1  A    between atoms: C_2  and  C_3 
REMARK    2  A    between atoms: C_3  and  O_6 
REMARK    3  A    between atoms: C_3  and  C_4 
REMARK    4  A    between atoms: C_7  and  O_6 
REMARK    5  A    between atoms: C_9  and  C_10 
REMARK    6  A    between atoms: N_15  and  C_14 
REMARK    7  A    between atoms: N_20  and  C_19 
REMARK       I    between atoms: C_22  and  N_20 
ROOT
ATOM      1  C   LIG d   1       0.155  57.847 117.924  0.00  0.00     0.161 C 
ATOM      2  C   LIG d   1      -0.749  58.853 118.300  0.00  0.00     0.016 C 
ATOM      3  C   LIG d   1      -2.138  58.786 118.044  0.00  0.00     0.038 C 
ATOM      4  C   LIG d   1      -2.742  57.631 117.526  0.00  0.00     0.028 C 
ATOM      5  C   LIG d   1      -1.803  56.790 116.668  0.00  0.00    -0.047 C 
ATOM      6  C   LIG d   1      -0.499  56.530 117.457  0.00  0.00     0.091 C 
ENDROOT
BRANCH   1   7
ATOM      7  O   LIG d   1       1.079  57.593 119.001  0.00  0.00    -0.368 OA
BRANCH   7   8
ATOM      8  C   LIG d   1       2.243  58.453 119.058  0.00  0.00     0.119 C 
BRANCH   8   9
ATOM      9  C   LIG d   1       2.329  59.206 117.716  0.00  0.00     0.028 C 
ATOM     10  C   LIG d   1       3.730  59.787 117.458  0.00  0.00     0.006 C 
ENDBRANCH   8   9
BRANCH   8  11
ATOM     11  C   LIG d   1       3.536  57.637 119.148  0.00  0.00     0.028 C 
ATOM     12  C   LIG d   1       3.322  56.146 118.841  0.00  0.00     0.006 C 
ENDBRANCH   8  11
ENDBRANCH   7   8
ENDBRANCH   1   7
BRANCH   6  13
ATOM     13  N   LIG d   1       0.508  55.785 116.658  0.00  0.00    -0.311 N 
ATOM     14  C   LIG d   1       0.634  54.460 116.688  0.00  0.00     0.210 C 
ATOM     15  C   LIG d   1       1.749  53.895 115.803  0.00  0.00     0.109 C 
ATOM     16  O   LIG d   1      -0.094  53.695 117.339  0.00  0.00    -0.276 OA
ATOM     17  H   LIG d   1       1.120  56.325 116.078  0.00  0.00     0.149 HD
ENDBRANCH   6  13
BRANCH   5  18
ATOM     18  N   LIG d   1      -2.518  55.551 116.307  0.00  0.00     0.381 N 
ATOM     19  H   LIG d   1      -1.946  54.757 116.518  0.00  0.00    -0.090 HD
ATOM     20  H   LIG d   1      -2.699  55.556 115.319  0.00  0.00    -0.090 HD
ATOM     21  H   LIG d   1      -3.376  55.494 116.810  0.00  0.00    -0.090 HD
ENDBRANCH   5  18
BRANCH   3  22
ATOM     22  C   LIG d   1      -2.933  59.899 118.271  0.00  0.00     0.382 C 
ATOM     23  O   LIG d   1      -3.095  60.327 119.440  0.00  0.00    -0.241 OA
ATOM     24  O   LIG d   1      -3.527  60.455 117.328  0.00  0.00    -0.241 OA
ENDBRANCH   3  22
TORSDOF 7
ENDMDL
MODEL 3
REMARK VINA RESULT:      -4.7     19.808     22.259
REMARK  7 active torsions:
REMARK  status: ('A' for Active; 'I' for Inactive)
REMARK    1  A    between atoms: C_2  and  C_3 
REMARK    2  A    between atoms: C_3  and  O_6 
REMARK    3  A    between atoms: C_3  and  C_4 
REMARK    4  A    between atoms: C_7  and  O_6 
REMARK    5  A    between atoms: C_9  and  C_10 
REMARK    6  A    between atoms: N_15  and  C_14 
REMARK    7  A    between atoms: N_20  and  C_19 
REMARK       I    between atoms: C_22  and  N_20 
ROOT
ATOM      1  C   LIG d   1     -23.451  83.492 116.024  0.00  0.00     0.161 C 
ATOM      2  C   LIG d   1     -22.861  84.726 115.702  0.00  0.00     0.016 C 
ATOM      3  C   LIG d   1     -23.250  85.506 114.589  0.00  0.00     0.038 C 
ATOM      4  C   LIG d   1     -24.365  85.176 113.804  0.00  0.00     0.028 C 
ATOM      5  C   LIG d   1     -24.673  83.683 113.788  0.00  0.00    -0.047 C 
ATOM      6  C   LIG d   1     -24.742  83.169 115.245  0.00  0.00     0.091 C 
ENDROOT
BRANCH   1   7
ATOM      7  O   LIG d   1     -23.691  83.422 117.444  0.00  0.00    -0.368 OA
BRANCH   7   8
ATOM      8  C   LIG d   1     -22.605  83.859 118.297  0.00  0.00     0.119 C 
BRANCH   8   9
ATOM      9  C   LIG d   1     -22.129  82.636 119.104  0.00  0.00     0.028 C 
ATOM     10  C   LIG d   1     -20.712  82.186 118.709  0.00  0.00     0.006 C 
ENDBRANCH   8   9
BRANCH   8  11
ATOM     11  C   LIG d   1     -23.088  84.871 119.340  0.00  0.00     0.028 C 
ATOM     12  C   LIG d   1     -22.361  86.221 119.242  0.00  0.00     0.006 C 
ENDBRANCH   8  11
ENDBRANCH   7   8
ENDBRANCH   1   7
BRANCH   6  13
ATOM     13  N   LIG d   1     -24.957  81.700 115.318  0.00  0.00    -0.311 N 
ATOM     14  C   LIG d   1     -26.161  81.139 115.420  0.00  0.00     0.210 C 
ATOM     15  C   LIG d   1     -26.156  79.610 115.502  0.00  0.00     0.109 C 
ATOM     16  O   LIG d   1     -27.233  81.761 115.417  0.00  0.00    -0.276 OA
ATOM     17  H   LIG d   1     -24.142  81.119 115.295  0.00  0.00     0.149 HD
ENDBRANCH   6  13
BRANCH   5  18
ATOM     18  N   LIG d   1     -25.935  83.496 113.049  0.00  0.00     0.381 N 
ATOM     19  H   LIG d   1     -25.740  83.336 112.080  0.00  0.00    -0.090 HD
ATOM     20  H   LIG d   1     -26.484  84.334 113.125  0.00  0.00    -0.090 HD
ATOM     21  H   LIG d   1     -26.440  82.724 113.425  0.00  0.00    -0.090 HD
ENDBRANCH   5  18
BRANCH   3  22
ATOM     22  C   LIG d   1     -22.494  86.612 114.227  0.00  0.00     0.382 C 
ATOM     23  O   LIG d   1     -21.616  86.507 113.338  0.00  0.00    -0.241 OA
ATOM     24  O   LIG d   1     -22.650  87.701 114.811  0.00  0.00    -0.241 OA
ENDBRANCH   3  22
TORSDOF 7
ENDMDL
MODEL 4
REMARK VINA RESULT:      -4.7      2.707      4.689
REMARK  7 active torsions:
REMARK  status: ('A' for Active; 'I' for Inactive)
REMARK    1  A    between atoms: C_2  and  C_3 
REMARK    2  A    between atoms: C_3  and  O_6 
REMARK    3  A    between atoms: C_3  and  C_4 
REMARK    4  A    between atoms: C_7  and  O_6 
REMARK    5  A    between atoms: C_9  and  C_10 
REMARK    6  A    between atoms: N_15  and  C_14 
REMARK    7  A    between atoms: N_20  and  C_19 
REMARK       I    between atoms: C_22  and  N_20 
ROOT
ATOM      1  C   LIG d   1      -2.770  77.898 116.890  0.00  0.00     0.161 C 
ATOM      2  C   LIG d   1      -3.688  77.047 116.253  0.00  0.00     0.016 C 
ATOM      3  C   LIG d   1      -3.872  77.010 114.852  0.00  0.00     0.038 C 
ATOM      4  C   LIG d   1      -3.036  77.719 113.976  0.00  0.00     0.028 C 
ATOM      5  C   LIG d   1      -2.431  78.973 114.597  0.00  0.00    -0.047 C 
ATOM      6  C   LIG d   1      -1.772  78.597 115.944  0.00  0.00     0.091 C 
ENDROOT
BRANCH   1   7
ATOM      7  O   LIG d   1      -2.063  77.174 117.917  0.00  0.00    -0.368 OA
BRANCH   7   8
ATOM      8  C   LIG d   1      -1.936  75.745 117.715  0.00  0.00     0.119 C 
BRANCH   8   9
ATOM      9  C   LIG d   1      -1.866  75.085 119.107  0.00  0.00     0.028 C 
ATOM     10  C   LIG d   1      -1.539  73.585 119.029  0.00  0.00     0.006 C 
ENDBRANCH   8   9
BRANCH   8  11
ATOM     11  C   LIG d   1      -0.610  75.394 117.033  0.00  0.00     0.028 C 
ATOM     12  C   LIG d   1      -0.801  74.812 115.624  0.00  0.00     0.006 C 
ENDBRANCH   8  11
ENDBRANCH   7   8
ENDBRANCH   1   7
BRANCH   6  13
ATOM     13  N   LIG d   1      -1.228  79.782 116.659  0.00  0.00    -0.311 N 
ATOM     14  C   LIG d   1       0.028  79.863 117.092  0.00  0.00     0.210 C 
ATOM     15  C   LIG d   1       0.377  81.164 117.823  0.00  0.00     0.109 C 
ATOM     16  O   LIG d   1       0.896  78.996 116.913  0.00  0.00    -0.276 OA
ATOM     17  H   LIG d   1      -1.856  80.545 116.819  0.00  0.00     0.149 HD
ENDBRANCH   6  13
BRANCH   5  18
ATOM     18  N   LIG d   1      -1.476  79.537 113.624  0.00  0.00     0.381 N 
ATOM     19  H   LIG d   1      -1.877  79.518 112.707  0.00  0.00    -0.090 HD
ATOM     20  H   LIG d   1      -0.646  78.970 113.617  0.00  0.00    -0.090 HD
ATOM     21  H   LIG d   1      -1.246  80.473 113.875  0.00  0.00    -0.090 HD
ENDBRANCH   5  18
BRANCH   3  22
ATOM     22  C   LIG d   1      -4.927  76.288 114.316  0.00  0.00     0.382 C 
ATOM     23  O   LIG d   1      -5.972  76.881 113.953  0.00  0.00    -0.241 OA
ATOM     24  O   LIG d   1      -4.865  75.047 114.231  0.00  0.00    -0.241 OA
ENDBRANCH   3  22
TORSDOF 7
ENDMDL
MODEL 5
REMARK VINA RESULT:      -4.6     12.193     14.643
REMARK  7 active torsions:
REMARK  status: ('A' for Active; 'I' for Inactive)
REMARK    1  A    between atoms: C_2  and  C_3 
REMARK    2  A    between atoms: C_3  and  O_6 
REMARK    3  A    between atoms: C_3  and  C_4 
REMARK    4  A    between atoms: C_7  and  O_6 
REMARK    5  A    between atoms: C_9  and  C_10 
REMARK    6  A    between atoms: N_15  and  C_14 
REMARK    7  A    between atoms: N_20  and  C_19 
REMARK       I    between atoms: C_22  and  N_20 
ROOT
ATOM      1  C   LIG d   1      10.652  76.209 115.570  0.00  0.00     0.161 C 
ATOM      2  C   LIG d   1       9.361  76.752 115.452  0.00  0.00     0.016 C 
ATOM      3  C   LIG d   1       9.102  78.032 114.909  0.00  0.00     0.038 C 
ATOM      4  C   LIG d   1      10.110  78.798 114.304  0.00  0.00     0.028 C 
ATOM      5  C   LIG d   1      11.503  78.509 114.852  0.00  0.00    -0.047 C 
ATOM      6  C   LIG d   1      11.751  76.984 114.813  0.00  0.00     0.091 C 
ENDROOT
BRANCH   1   7
ATOM      7  O   LIG d   1      10.639  74.828 115.159  0.00  0.00    -0.368 OA
BRANCH   7   8
ATOM      8  C   LIG d   1      10.400  73.854 116.205  0.00  0.00     0.119 C 
BRANCH   8   9
ATOM      9  C   LIG d   1      11.281  74.241 117.409  0.00  0.00     0.028 C 
ATOM     10  C   LIG d   1      12.653  73.548 117.379  0.00  0.00     0.006 C 
ENDBRANCH   8   9
BRANCH   8  11
ATOM     11  C   LIG d   1      10.875  72.459 115.787  0.00  0.00     0.028 C 
ATOM     12  C   LIG d   1       9.714  71.484 115.538  0.00  0.00     0.006 C 
ENDBRANCH   8  11
ENDBRANCH   7   8
ENDBRANCH   1   7
BRANCH   6  13
ATOM     13  N   LIG d   1      13.059  76.607 115.411  0.00  0.00    -0.311 N 
ATOM     14  C   LIG d   1      14.172  76.446 114.697  0.00  0.00     0.210 C 
ATOM     15  C   LIG d   1      15.406  76.037 115.506  0.00  0.00     0.109 C 
ATOM     16  O   LIG d   1      14.261  76.635 113.474  0.00  0.00    -0.276 OA
ATOM     17  H   LIG d   1      13.084  76.464 116.401  0.00  0.00     0.149 HD
ENDBRANCH   6  13
BRANCH   5  18
ATOM     18  N   LIG d   1      12.469  79.273 114.040  0.00  0.00     0.381 N 
ATOM     19  H   LIG d   1      12.534  78.872 113.126  0.00  0.00    -0.090 HD
ATOM     20  H   LIG d   1      13.373  79.218 114.474  0.00  0.00    -0.090 HD
ATOM     21  H   LIG d   1      12.181  80.224 113.974  0.00  0.00    -0.090 HD
ENDBRANCH   5  18
BRANCH   3  22
ATOM     22  C   LIG d   1       7.830  78.574 115.004  0.00  0.00     0.382 C 
ATOM     23  O   LIG d   1       6.843  77.941 114.557  0.00  0.00    -0.241 OA
ATOM     24  O   LIG d   1       7.661  79.708 115.492  0.00  0.00    -0.241 OA
ENDBRANCH   3  22
TORSDOF 7
ENDMDL
MODEL 6
REMARK VINA RESULT:      -4.5      3.135      4.497
REMARK  7 active torsions:
REMARK  status: ('A' for Active; 'I' for Inactive)
REMARK    1  A    between atoms: C_2  and  C_3 
REMARK    2  A    between atoms: C_3  and  O_6 
REMARK    3  A    between atoms: C_3  and  C_4 
REMARK    4  A    between atoms: C_7  and  O_6 
REMARK    5  A    between atoms: C_9  and  C_10 
REMARK    6  A    between atoms: N_15  and  C_14 
REMARK    7  A    between atoms: N_20  and  C_19 
REMARK       I    between atoms: C_22  and  N_20 
ROOT
ATOM      1  C   LIG d   1      -4.876  77.754 117.814  0.00  0.00     0.161 C 
ATOM      2  C   LIG d   1      -3.779  78.590 117.549  0.00  0.00     0.016 C 
ATOM      3  C   LIG d   1      -3.108  78.623 116.305  0.00  0.00     0.038 C 
ATOM      4  C   LIG d   1      -3.586  77.926 115.186  0.00  0.00     0.028 C 
ATOM      5  C   LIG d   1      -4.391  76.681 115.546  0.00  0.00    -0.047 C 
ATOM      6  C   LIG d   1      -5.481  77.068 116.571  0.00  0.00     0.091 C 
ENDROOT
BRANCH   1   7
ATOM      7  O   LIG d   1      -5.891  78.490 118.524  0.00  0.00    -0.368 OA
BRANCH   7   8
ATOM      8  C   LIG d   1      -6.787  79.287 117.711  0.00  0.00     0.119 C 
BRANCH   8   9
ATOM      9  C   LIG d   1      -6.596  80.761 118.119  0.00  0.00     0.028 C 
ATOM     10  C   LIG d   1      -7.639  81.688 117.474  0.00  0.00     0.006 C 
ENDBRANCH   8   9
BRANCH   8  11
ATOM     11  C   LIG d   1      -8.253  78.968 118.021  0.00  0.00     0.028 C 
ATOM     12  C   LIG d   1      -8.415  78.006 119.208  0.00  0.00     0.006 C 
ENDBRANCH   8  11
ENDBRANCH   7   8
ENDBRANCH   1   7
BRANCH   6  13
ATOM     13  N   LIG d   1      -6.260  75.893 117.041  0.00  0.00    -0.311 N 
ATOM     14  C   LIG d   1      -7.448  75.554 116.543  0.00  0.00     0.210 C 
ATOM     15  C   LIG d   1      -8.089  74.319 117.183  0.00  0.00     0.109 C 
ATOM     16  O   LIG d   1      -8.017  76.140 115.610  0.00  0.00    -0.276 OA
ATOM     17  H   LIG d   1      -5.858  75.343 117.775  0.00  0.00     0.149 HD
ENDBRANCH   6  13
BRANCH   5  18
ATOM     18  N   LIG d   1      -4.944  76.130 114.294  0.00  0.00     0.381 N 
ATOM     19  H   LIG d   1      -4.500  76.563 113.509  0.00  0.00    -0.090 HD
ATOM     20  H   LIG d   1      -5.926  76.336 114.255  0.00  0.00    -0.090 HD
ATOM     21  H   LIG d   1      -4.802  75.144 114.264  0.00  0.00    -0.090 HD
ENDBRANCH   5  18
BRANCH   3  22
ATOM     22  C   LIG d   1      -1.920  79.329 116.183  0.00  0.00     0.382 C 
ATOM     23  O   LIG d   1      -1.493  80.009 117.147  0.00  0.00    -0.241 OA
ATOM     24  O   LIG d   1      -1.294  79.330 115.106  0.00  0.00    -0.241 OA
ENDBRANCH   3  22
TORSDOF 7
ENDMDL
MODEL 7
REMARK VINA RESULT:      -4.5      9.715     12.098
REMARK  7 active torsions:
REMARK  status: ('A' for Active; 'I' for Inactive)
REMARK    1  A    between atoms: C_2  and  C_3 
REMARK    2  A    between atoms: C_3  and  O_6 
REMARK    3  A    between atoms: C_3  and  C_4 
REMARK    4  A    between atoms: C_7  and  O_6 
REMARK    5  A    between atoms: C_9  and  C_10 
REMARK    6  A    between atoms: N_15  and  C_14 
REMARK    7  A    between atoms: N_20  and  C_19 
REMARK       I    between atoms: C_22  and  N_20 
ROOT
ATOM      1  C   LIG d   1       2.229  87.831 116.048  0.00  0.00     0.161 C 
ATOM      2  C   LIG d   1       2.848  88.677 115.114  0.00  0.00     0.016 C 
ATOM      3  C   LIG d   1       3.695  88.210 114.082  0.00  0.00     0.038 C 
ATOM      4  C   LIG d   1       3.861  86.842 113.821  0.00  0.00     0.028 C 
ATOM      5  C   LIG d   1       3.658  85.962 115.050  0.00  0.00    -0.047 C 
ATOM      6  C   LIG d   1       2.309  86.327 115.711  0.00  0.00     0.091 C 
ENDROOT
BRANCH   1   7
ATOM      7  O   LIG d   1       0.857  88.230 116.235  0.00  0.00    -0.368 OA
BRANCH   7   8
ATOM      8  C   LIG d   1       0.556  88.916 117.475  0.00  0.00     0.119 C 
BRANCH   8   9
ATOM      9  C   LIG d   1      -0.746  88.310 118.035  0.00  0.00     0.028 C 
ATOM     10  C   LIG d   1      -0.482  87.121 118.975  0.00  0.00     0.006 C 
ENDBRANCH   8   9
BRANCH   8  11
ATOM     11  C   LIG d   1       0.242  90.395 117.231  0.00  0.00     0.028 C 
ATOM     12  C   LIG d   1       1.479  91.297 117.368  0.00  0.00     0.006 C 
ENDBRANCH   8  11
ENDBRANCH   7   8
ENDBRANCH   1   7
BRANCH   6  13
ATOM     13  N   LIG d   1       2.071  85.571 116.968  0.00  0.00    -0.311 N 
ATOM     14  C   LIG d   1       1.499  84.369 117.004  0.00  0.00     0.210 C 
ATOM     15  C   LIG d   1       1.330  83.774 118.406  0.00  0.00     0.109 C 
ATOM     16  O   LIG d   1       1.145  83.724 116.005  0.00  0.00    -0.276 OA
ATOM     17  H   LIG d   1       2.356  86.007 117.824  0.00  0.00     0.149 HD
ENDBRANCH   6  13
BRANCH   5  18
ATOM     18  N   LIG d   1       3.723  84.556 114.607  0.00  0.00     0.381 N 
ATOM     19  H   LIG d   1       3.566  84.504 113.621  0.00  0.00    -0.090 HD
ATOM     20  H   LIG d   1       2.999  84.036 115.070  0.00  0.00    -0.090 HD
ATOM     21  H   LIG d   1       4.614  84.170 114.830  0.00  0.00    -0.090 HD
ENDBRANCH   5  18
BRANCH   3  22
ATOM     22  C   LIG d   1       4.419  89.118 113.324  0.00  0.00     0.382 C 
ATOM     23  O   LIG d   1       5.637  88.915 113.097  0.00  0.00    -0.241 OA
ATOM     24  O   LIG d   1       3.881  90.159 112.901  0.00  0.00    -0.241 OA
ENDBRANCH   3  22
TORSDOF 7
ENDMDL
MODEL 8
REMARK VINA RESULT:      -4.5     11.404     14.176
REMARK  7 active torsions:
REMARK  status: ('A' for Active; 'I' for Inactive)
REMARK    1  A    between atoms: C_2  and  C_3 
REMARK    2  A    between atoms: C_3  and  O_6 
REMARK    3  A    between atoms: C_3  and  C_4 
REMARK    4  A    between atoms: C_7  and  O_6 
REMARK    5  A    between atoms: C_9  and  C_10 
REMARK    6  A    between atoms: N_15  and  C_14 
REMARK    7  A    between atoms: N_20  and  C_19 
REMARK       I    between atoms: C_22  and  N_20 
ROOT
ATOM      1  C   LIG d   1       0.697  88.864 117.416  0.00  0.00     0.161 C 
ATOM      2  C   LIG d   1      -0.683  88.615 117.496  0.00  0.00     0.016 C 
ATOM      3  C   LIG d   1      -1.617  89.558 117.983  0.00  0.00     0.038 C 
ATOM      4  C   LIG d   1      -1.250  90.878 118.283  0.00  0.00     0.028 C 
ATOM      5  C   LIG d   1       0.211  91.022 118.695  0.00  0.00    -0.047 C 
ATOM      6  C   LIG d   1       1.102  90.337 117.634  0.00  0.00     0.091 C 
ENDROOT
BRANCH   1   7
ATOM      7  O   LIG d   1       1.207  88.386 116.155  0.00  0.00    -0.368 OA
BRANCH   7   8
ATOM      8  C   LIG d   1       2.121  87.264 116.222  0.00  0.00     0.119 C 
BRANCH   8   9
ATOM      9  C   LIG d   1       3.158  87.443 115.096  0.00  0.00     0.028 C 
ATOM     10  C   LIG d   1       3.366  88.919 114.720  0.00  0.00     0.006 C 
ENDBRANCH   8   9
BRANCH   8  11
ATOM     11  C   LIG d   1       1.408  85.944 115.911  0.00  0.00     0.028 C 
ATOM     12  C   LIG d   1       1.313  85.660 114.404  0.00  0.00     0.006 C 
ENDBRANCH   8  11
ENDBRANCH   7   8
ENDBRANCH   1   7
BRANCH   6  13
ATOM     13  N   LIG d   1       2.541  90.358 118.003  0.00  0.00    -0.311 N 
ATOM     14  C   LIG d   1       3.394  91.288 117.576  0.00  0.00     0.210 C 
ATOM     15  C   LIG d   1       4.837  91.112 118.059  0.00  0.00     0.109 C 
ATOM     16  O   LIG d   1       3.086  92.260 116.870  0.00  0.00    -0.276 OA
ATOM     17  H   LIG d   1       2.870  89.623 118.598  0.00  0.00     0.149 HD
ENDBRANCH   6  13
BRANCH   5  18
ATOM     18  N   LIG d   1       0.493  92.462 118.845  0.00  0.00     0.381 N 
ATOM     19  H   LIG d   1       0.316  92.746 119.787  0.00  0.00    -0.090 HD
ATOM     20  H   LIG d   1      -0.122  92.978 118.239  0.00  0.00    -0.090 HD
ATOM     21  H   LIG d   1       1.441  92.651 118.606  0.00  0.00    -0.090 HD
ENDBRANCH   5  18
BRANCH   3  22
ATOM     22  C   LIG d   1      -2.929  89.171 118.212  0.00  0.00     0.382 C 
ATOM     23  O   LIG d   1      -3.174  88.216 118.988  0.00  0.00    -0.241 OA
ATOM     24  O   LIG d   1      -3.867  89.736 117.619  0.00  0.00    -0.241 OA
ENDBRANCH   3  22
TORSDOF 7
ENDMDL
MODEL 9
REMARK VINA RESULT:      -4.5      3.333      5.285
REMARK  7 active torsions:
REMARK  status: ('A' for Active; 'I' for Inactive)
REMARK    1  A    between atoms: C_2  and  C_3 
REMARK    2  A    between atoms: C_3  and  O_6 
REMARK    3  A    between atoms: C_3  and  C_4 
REMARK    4  A    between atoms: C_7  and  O_6 
REMARK    5  A    between atoms: C_9  and  C_10 
REMARK    6  A    between atoms: N_15  and  C_14 
REMARK    7  A    between atoms: N_20  and  C_19 
REMARK       I    between atoms: C_22  and  N_20 
ROOT
ATOM      1  C   LIG d   1      -5.812  76.478 117.130  0.00  0.00     0.161 C 
ATOM      2  C   LIG d   1      -4.435  76.312 116.905  0.00  0.00     0.016 C 
ATOM      3  C   LIG d   1      -3.870  76.154 115.619  0.00  0.00     0.038 C 
ATOM      4  C   LIG d   1      -4.632  76.303 114.451  0.00  0.00     0.028 C 
ATOM      5  C   LIG d   1      -6.107  75.968 114.643  0.00  0.00    -0.047 C 
ATOM      6  C   LIG d   1      -6.645  76.754 115.861  0.00  0.00     0.091 C 
ENDROOT
BRANCH   1   7
ATOM      7  O   LIG d   1      -6.026  77.517 118.106  0.00  0.00    -0.368 OA
BRANCH   7   8
ATOM      8  C   LIG d   1      -5.897  78.878 117.627  0.00  0.00     0.119 C 
BRANCH   8   9
ATOM      9  C   LIG d   1      -4.967  79.626 118.602  0.00  0.00     0.028 C 
ATOM     10  C   LIG d   1      -3.511  79.666 118.108  0.00  0.00     0.006 C 
ENDBRANCH   8   9
BRANCH   8  11
ATOM     11  C   LIG d   1      -7.235  79.621 117.693  0.00  0.00     0.028 C 
ATOM     12  C   LIG d   1      -7.071  81.149 117.647  0.00  0.00     0.006 C 
ENDBRANCH   8  11
ENDBRANCH   7   8
ENDBRANCH   1   7
BRANCH   6  13
ATOM     13  N   LIG d   1      -8.060  76.421 116.170  0.00  0.00    -0.311 N 
ATOM     14  C   LIG d   1      -8.446  75.244 116.661  0.00  0.00     0.210 C 
ATOM     15  C   LIG d   1      -9.954  75.102 116.889  0.00  0.00     0.109 C 
ATOM     16  O   LIG d   1      -7.679  74.316 116.958  0.00  0.00    -0.276 OA
ATOM     17  H   LIG d   1      -8.746  77.128 115.989  0.00  0.00     0.149 HD
ENDBRANCH   6  13
BRANCH   5  18
ATOM     18  N   LIG d   1      -6.807  76.298 113.387  0.00  0.00     0.381 N 
ATOM     19  H   LIG d   1      -6.451  77.157 113.017  0.00  0.00    -0.090 HD
ATOM     20  H   LIG d   1      -7.785  76.420 113.582  0.00  0.00    -0.090 HD
ATOM     21  H   LIG d   1      -6.681  75.565 112.724  0.00  0.00    -0.090 HD
ENDBRANCH   5  18
BRANCH   3  22
ATOM     22  C   LIG d   1      -2.534  75.803 115.494  0.00  0.00     0.382 C 
ATOM     23  O   LIG d   1      -1.884  76.162 114.483  0.00  0.00    -0.241 OA
ATOM     24  O   LIG d   1      -1.983  75.095 116.358  0.00  0.00    -0.241 OA
ENDBRANCH   3  22
TORSDOF 7
ENDMDL
