MODEL 1
REMARK VINA RESULT:      -5.4      0.000      0.000
REMARK  7 active torsions:
REMARK  status: ('A' for Active; 'I' for Inactive)
REMARK    1  A    between atoms: C_2  and  C_3 
REMARK    2  A    between atoms: C_3  and  O_6 
REMARK    3  A    between atoms: C_3  and  C_4 
REMARK    4  A    between atoms: C_7  and  O_6 
REMARK    5  A    between atoms: C_9  and  C_10 
REMARK    6  A    between atoms: N_15  and  C_14 
REMARK    7  A    between atoms: N_20  and  C_19 
REMARK       I    between atoms: C_22  and  N_20 
ROOT
ATOM      1  C   LIG d   1      -2.944  77.102 115.223  0.00  0.00     0.161 C 
ATOM      2  C   LIG d   1      -3.063  78.195 114.348  0.00  0.00     0.016 C 
ATOM      3  C   LIG d   1      -1.954  78.924 113.859  0.00  0.00     0.038 C 
ATOM      4  C   LIG d   1      -0.634  78.512 114.093  0.00  0.00     0.028 C 
ATOM      5  C   LIG d   1      -0.468  77.714 115.382  0.00  0.00    -0.047 C 
ATOM      6  C   LIG d   1      -1.507  76.569 115.401  0.00  0.00     0.091 C 
ENDROOT
BRANCH   1   7
ATOM      7  O   LIG d   1      -3.823  76.041 114.801  0.00  0.00    -0.368 OA
BRANCH   7   8
ATOM      8  C   LIG d   1      -5.240  76.267 115.005  0.00  0.00     0.119 C 
BRANCH   8   9
ATOM      9  C   LIG d   1      -5.484  76.325 116.525  0.00  0.00     0.028 C 
ATOM     10  C   LIG d   1      -6.223  77.605 116.953  0.00  0.00     0.006 C 
ENDBRANCH   8   9
BRANCH   8  11
ATOM     11  C   LIG d   1      -6.071  75.082 114.506  0.00  0.00     0.028 C 
ATOM     12  C   LIG d   1      -5.995  73.864 115.440  0.00  0.00     0.006 C 
ENDBRANCH   8  11
ENDBRANCH   7   8
ENDBRANCH   1   7
BRANCH   6  13
ATOM     13  N   LIG d   1      -1.469  75.790 116.666  0.00  0.00    -0.311 N 
ATOM     14  C   LIG d   1      -0.863  74.610 116.783  0.00  0.00     0.210 C 
ATOM     15  C   LIG d   1      -0.961  73.967 118.170  0.00  0.00     0.109 C 
ATOM     16  O   LIG d   1      -0.227  74.050 115.878  0.00  0.00    -0.276 OA
ATOM     17  H   LIG d   1      -1.935  76.186 117.459  0.00  0.00     0.149 HD
ENDBRANCH   6  13
BRANCH   5  18
ATOM     18  N   LIG d   1       0.925  77.232 115.431  0.00  0.00     0.381 N 
ATOM     19  H   LIG d   1       1.090  76.595 114.677  0.00  0.00    -0.090 HD
ATOM     20  H   LIG d   1       1.068  76.740 116.296  0.00  0.00    -0.090 HD
ATOM     21  H   LIG d   1       1.555  78.001 115.370  0.00  0.00    -0.090 HD
ENDBRANCH   5  18
BRANCH   3  22
ATOM     22  C   LIG d   1      -2.162  80.103 113.159  0.00  0.00     0.382 C 
ATOM     23  O   LIG d   1      -1.183  80.803 112.805  0.00  0.00    -0.241 OA
ATOM     24  O   LIG d   1      -3.318  80.497 112.915  0.00  0.00    -0.241 OA
ENDBRANCH   3  22
TORSDOF 7
ENDMDL
MODEL 2
REMARK VINA RESULT:      -5.4      3.235      6.640
REMARK  7 active torsions:
REMARK  status: ('A' for Active; 'I' for Inactive)
REMARK    1  A    between atoms: C_2  and  C_3 
REMARK    2  A    between atoms: C_3  and  O_6 
REMARK    3  A    between atoms: C_3  and  C_4 
REMARK    4  A    between atoms: C_7  and  O_6 
REMARK    5  A    between atoms: C_9  and  C_10 
REMARK    6  A    between atoms: N_15  and  C_14 
REMARK    7  A    between atoms: N_20  and  C_19 
REMARK       I    between atoms: C_22  and  N_20 
ROOT
ATOM      1  C   LIG d   1      -4.921  77.621 116.608  0.00  0.00     0.161 C 
ATOM      2  C   LIG d   1      -4.967  76.403 115.909  0.00  0.00     0.016 C 
ATOM      3  C   LIG d   1      -6.144  75.632 115.766  0.00  0.00     0.038 C 
ATOM      4  C   LIG d   1      -7.396  76.105 116.186  0.00  0.00     0.028 C 
ATOM      5  C   LIG d   1      -7.312  77.097 117.341  0.00  0.00    -0.047 C 
ATOM      6  C   LIG d   1      -6.300  78.207 116.978  0.00  0.00     0.091 C 
ENDROOT
BRANCH   1   7
ATOM      7  O   LIG d   1      -4.151  78.584 115.862  0.00  0.00    -0.368 OA
BRANCH   7   8
ATOM      8  C   LIG d   1      -2.873  78.124 115.357  0.00  0.00     0.119 C 
BRANCH   8   9
ATOM      9  C   LIG d   1      -1.797  78.523 116.386  0.00  0.00     0.028 C 
ATOM     10  C   LIG d   1      -1.310  77.325 117.219  0.00  0.00     0.006 C 
ENDBRANCH   8   9
BRANCH   8  11
ATOM     11  C   LIG d   1      -2.489  78.853 114.066  0.00  0.00     0.028 C 
ATOM     12  C   LIG d   1      -3.026  78.156 112.805  0.00  0.00     0.006 C 
ENDBRANCH   8  11
ENDBRANCH   7   8
ENDBRANCH   1   7
BRANCH   6  13
ATOM     13  N   LIG d   1      -6.094  79.173 118.088  0.00  0.00    -0.311 N 
ATOM     14  C   LIG d   1      -6.763  80.320 118.195  0.00  0.00     0.210 C 
ATOM     15  C   LIG d   1      -6.384  81.179 119.405  0.00  0.00     0.109 C 
ATOM     16  O   LIG d   1      -7.656  80.693 117.419  0.00  0.00    -0.276 OA
ATOM     17  H   LIG d   1      -5.410  78.935 118.779  0.00  0.00     0.149 HD
ENDBRANCH   6  13
BRANCH   5  18
ATOM     18  N   LIG d   1      -8.672  77.613 117.586  0.00  0.00     0.381 N 
ATOM     19  H   LIG d   1      -9.338  77.065 117.078  0.00  0.00    -0.090 HD
ATOM     20  H   LIG d   1      -8.725  78.560 117.255  0.00  0.00    -0.090 HD
ATOM     21  H   LIG d   1      -8.879  77.581 118.560  0.00  0.00    -0.090 HD
ENDBRANCH   5  18
BRANCH   3  22
ATOM     22  C   LIG d   1      -6.068  74.355 115.232  0.00  0.00     0.382 C 
ATOM     23  O   LIG d   1      -6.613  73.394 115.825  0.00  0.00    -0.241 OA
ATOM     24  O   LIG d   1      -5.423  74.145 114.187  0.00  0.00    -0.241 OA
ENDBRANCH   3  22
TORSDOF 7
ENDMDL
MODEL 3
REMARK VINA RESULT:      -5.4      2.955      4.977
REMARK  7 active torsions:
REMARK  status: ('A' for Active; 'I' for Inactive)
REMARK    1  A    between atoms: C_2  and  C_3 
REMARK    2  A    between atoms: C_3  and  O_6 
REMARK    3  A    between atoms: C_3  and  C_4 
REMARK    4  A    between atoms: C_7  and  O_6 
REMARK    5  A    between atoms: C_9  and  C_10 
REMARK    6  A    between atoms: N_15  and  C_14 
REMARK    7  A    between atoms: N_20  and  C_19 
REMARK       I    between atoms: C_22  and  N_20 
ROOT
ATOM      1  C   LIG d   1      -3.847  77.053 115.617  0.00  0.00     0.161 C 
ATOM      2  C   LIG d   1      -2.828  76.108 115.414  0.00  0.00     0.016 C 
ATOM      3  C   LIG d   1      -2.036  75.579 116.459  0.00  0.00     0.038 C 
ATOM      4  C   LIG d   1      -2.313  75.850 117.808  0.00  0.00     0.028 C 
ATOM      5  C   LIG d   1      -3.007  77.190 118.027  0.00  0.00    -0.047 C 
ATOM      6  C   LIG d   1      -4.236  77.276 117.093  0.00  0.00     0.091 C 
ENDROOT
BRANCH   1   7
ATOM      7  O   LIG d   1      -5.008  76.695 114.841  0.00  0.00    -0.368 OA
BRANCH   7   8
ATOM      8  C   LIG d   1      -5.893  75.714 115.435  0.00  0.00     0.119 C 
BRANCH   8   9
ATOM      9  C   LIG d   1      -5.663  74.379 114.701  0.00  0.00     0.028 C 
ATOM     10  C   LIG d   1      -6.060  73.163 115.555  0.00  0.00     0.006 C 
ENDBRANCH   8   9
BRANCH   8  11
ATOM     11  C   LIG d   1      -7.363  76.066 115.184  0.00  0.00     0.028 C 
ATOM     12  C   LIG d   1      -8.196  76.096 116.475  0.00  0.00     0.006 C 
ENDBRANCH   8  11
ENDBRANCH   7   8
ENDBRANCH   1   7
BRANCH   6  13
ATOM     13  N   LIG d   1      -4.925  78.590 117.183  0.00  0.00    -0.311 N 
ATOM     14  C   LIG d   1      -5.954  78.825 117.996  0.00  0.00     0.210 C 
ATOM     15  C   LIG d   1      -6.530  80.242 117.918  0.00  0.00     0.109 C 
ATOM     16  O   LIG d   1      -6.423  78.003 118.798  0.00  0.00    -0.276 OA
ATOM     17  H   LIG d   1      -4.588  79.323 116.590  0.00  0.00     0.149 HD
ENDBRANCH   6  13
BRANCH   5  18
ATOM     18  N   LIG d   1      -3.359  77.281 119.456  0.00  0.00     0.381 N 
ATOM     19  H   LIG d   1      -4.294  77.622 119.554  0.00  0.00    -0.090 HD
ATOM     20  H   LIG d   1      -2.737  77.932 119.903  0.00  0.00    -0.090 HD
ATOM     21  H   LIG d   1      -3.278  76.385 119.885  0.00  0.00    -0.090 HD
ENDBRANCH   5  18
BRANCH   3  22
ATOM     22  C   LIG d   1      -0.929  74.802 116.157  0.00  0.00     0.382 C 
ATOM     23  O   LIG d   1       0.070  74.811 116.916  0.00  0.00    -0.241 OA
ATOM     24  O   LIG d   1      -0.898  74.125 115.112  0.00  0.00    -0.241 OA
ENDBRANCH   3  22
TORSDOF 7
ENDMDL
MODEL 4
REMARK VINA RESULT:      -5.0      3.200      5.242
REMARK  7 active torsions:
REMARK  status: ('A' for Active; 'I' for Inactive)
REMARK    1  A    between atoms: C_2  and  C_3 
REMARK    2  A    between atoms: C_3  and  O_6 
REMARK    3  A    between atoms: C_3  and  C_4 
REMARK    4  A    between atoms: C_7  and  O_6 
REMARK    5  A    between atoms: C_9  and  C_10 
REMARK    6  A    between atoms: N_15  and  C_14 
REMARK    7  A    between atoms: N_20  and  C_19 
REMARK       I    between atoms: C_22  and  N_20 
ROOT
ATOM      1  C   LIG d   1      -5.134  77.712 116.781  0.00  0.00     0.161 C 
ATOM      2  C   LIG d   1      -6.512  77.936 116.942  0.00  0.00     0.016 C 
ATOM      3  C   LIG d   1      -7.044  78.921 117.805  0.00  0.00     0.038 C 
ATOM      4  C   LIG d   1      -6.226  79.856 118.458  0.00  0.00     0.028 C 
ATOM      5  C   LIG d   1      -4.813  79.346 118.719  0.00  0.00    -0.047 C 
ATOM      6  C   LIG d   1      -4.226  78.795 117.400  0.00  0.00     0.091 C 
ENDROOT
BRANCH   1   7
ATOM      7  O   LIG d   1      -4.827  77.538 115.384  0.00  0.00    -0.368 OA
BRANCH   7   8
ATOM      8  C   LIG d   1      -4.515  76.188 114.963  0.00  0.00     0.119 C 
BRANCH   8   9
ATOM      9  C   LIG d   1      -5.827  75.536 114.485  0.00  0.00     0.028 C 
ATOM     10  C   LIG d   1      -6.327  74.448 115.450  0.00  0.00     0.006 C 
ENDBRANCH   8   9
BRANCH   8  11
ATOM     11  C   LIG d   1      -4.043  75.331 116.141  0.00  0.00     0.028 C 
ATOM     12  C   LIG d   1      -2.614  74.797 115.955  0.00  0.00     0.006 C 
ENDBRANCH   8  11
ENDBRANCH   7   8
ENDBRANCH   1   7
BRANCH   6  13
ATOM     13  N   LIG d   1      -2.877  78.199 117.585  0.00  0.00    -0.311 N 
ATOM     14  C   LIG d   1      -1.866  78.397 116.741  0.00  0.00     0.210 C 
ATOM     15  C   LIG d   1      -0.566  77.674 117.107  0.00  0.00     0.109 C 
ATOM     16  O   LIG d   1      -1.913  79.128 115.740  0.00  0.00    -0.276 OA
ATOM     17  H   LIG d   1      -2.742  77.616 118.388  0.00  0.00     0.149 HD
ENDBRANCH   6  13
BRANCH   5  18
ATOM     18  N   LIG d   1      -4.032  80.465 119.277  0.00  0.00     0.381 N 
ATOM     19  H   LIG d   1      -3.110  80.153 119.508  0.00  0.00    -0.090 HD
ATOM     20  H   LIG d   1      -4.476  80.784 120.120  0.00  0.00    -0.090 HD
ATOM     21  H   LIG d   1      -3.982  81.209 118.617  0.00  0.00    -0.090 HD
ENDBRANCH   5  18
BRANCH   3  22
ATOM     22  C   LIG d   1      -8.408  78.952 118.054  0.00  0.00     0.382 C 
ATOM     23  O   LIG d   1      -9.096  79.924 117.659  0.00  0.00    -0.241 OA
ATOM     24  O   LIG d   1      -8.951  78.041 118.708  0.00  0.00    -0.241 OA
ENDBRANCH   3  22
TORSDOF 7
ENDMDL
MODEL 5
REMARK VINA RESULT:      -5.0      2.542      4.759
REMARK  7 active torsions:
REMARK  status: ('A' for Active; 'I' for Inactive)
REMARK    1  A    between atoms: C_2  and  C_3 
REMARK    2  A    between atoms: C_3  and  O_6 
REMARK    3  A    between atoms: C_3  and  C_4 
REMARK    4  A    between atoms: C_7  and  O_6 
REMARK    5  A    between atoms: C_9  and  C_10 
REMARK    6  A    between atoms: N_15  and  C_14 
REMARK    7  A    between atoms: N_20  and  C_19 
REMARK       I    between atoms: C_22  and  N_20 
ROOT
ATOM      1  C   LIG d   1      -2.577  77.059 117.158  0.00  0.00     0.161 C 
ATOM      2  C   LIG d   1      -3.578  76.297 116.533  0.00  0.00     0.016 C 
ATOM      3  C   LIG d   1      -3.999  76.510 115.200  0.00  0.00     0.038 C 
ATOM      4  C   LIG d   1      -3.337  77.406 114.347  0.00  0.00     0.028 C 
ATOM      5  C   LIG d   1      -2.654  78.552 115.086  0.00  0.00    -0.047 C 
ATOM      6  C   LIG d   1      -1.768  77.968 116.209  0.00  0.00     0.091 C 
ENDROOT
BRANCH   1   7
ATOM      7  O   LIG d   1      -1.694  76.193 117.897  0.00  0.00    -0.368 OA
BRANCH   7   8
ATOM      8  C   LIG d   1      -1.473  74.877 117.334  0.00  0.00     0.119 C 
BRANCH   8   9
ATOM      9  C   LIG d   1      -1.505  73.865 118.496  0.00  0.00     0.028 C 
ATOM     10  C   LIG d   1      -0.427  74.153 119.555  0.00  0.00     0.006 C 
ENDBRANCH   8   9
BRANCH   8  11
ATOM     11  C   LIG d   1      -0.071  74.757 116.730  0.00  0.00     0.028 C 
ATOM     12  C   LIG d   1      -0.093  74.330 115.253  0.00  0.00     0.006 C 
ENDBRANCH   8  11
ENDBRANCH   7   8
ENDBRANCH   1   7
BRANCH   6  13
ATOM     13  N   LIG d   1      -1.129  79.025 117.035  0.00  0.00    -0.311 N 
ATOM     14  C   LIG d   1       0.189  79.131 117.199  0.00  0.00     0.210 C 
ATOM     15  C   LIG d   1       0.637  80.281 118.106  0.00  0.00     0.109 C 
ATOM     16  O   LIG d   1       1.031  78.402 116.652  0.00  0.00    -0.276 OA
ATOM     17  H   LIG d   1      -1.736  79.678 117.490  0.00  0.00     0.149 HD
ENDBRANCH   6  13
BRANCH   5  18
ATOM     18  N   LIG d   1      -1.891  79.330 114.093  0.00  0.00     0.381 N 
ATOM     19  H   LIG d   1      -1.056  79.689 114.512  0.00  0.00    -0.090 HD
ATOM     20  H   LIG d   1      -2.450  80.108 113.789  0.00  0.00    -0.090 HD
ATOM     21  H   LIG d   1      -1.659  78.755 113.313  0.00  0.00    -0.090 HD
ENDBRANCH   5  18
BRANCH   3  22
ATOM     22  C   LIG d   1      -5.119  75.849 114.719  0.00  0.00     0.382 C 
ATOM     23  O   LIG d   1      -5.031  74.653 114.349  0.00  0.00    -0.241 OA
ATOM     24  O   LIG d   1      -6.207  76.446 114.610  0.00  0.00    -0.241 OA
ENDBRANCH   3  22
TORSDOF 7
ENDMDL
MODEL 6
REMARK VINA RESULT:      -4.8      3.191      4.418
REMARK  7 active torsions:
REMARK  status: ('A' for Active; 'I' for Inactive)
REMARK    1  A    between atoms: C_2  and  C_3 
REMARK    2  A    between atoms: C_3  and  O_6 
REMARK    3  A    between atoms: C_3  and  C_4 
REMARK    4  A    between atoms: C_7  and  O_6 
REMARK    5  A    between atoms: C_9  and  C_10 
REMARK    6  A    between atoms: N_15  and  C_14 
REMARK    7  A    between atoms: N_20  and  C_19 
REMARK       I    between atoms: C_22  and  N_20 
ROOT
ATOM      1  C   LIG d   1      -5.513  77.677 117.029  0.00  0.00     0.161 C 
ATOM      2  C   LIG d   1      -6.302  78.786 117.377  0.00  0.00     0.016 C 
ATOM      3  C   LIG d   1      -5.884  79.784 118.287  0.00  0.00     0.038 C 
ATOM      4  C   LIG d   1      -4.579  79.820 118.800  0.00  0.00     0.028 C 
ATOM      5  C   LIG d   1      -3.918  78.448 118.871  0.00  0.00    -0.047 C 
ATOM      6  C   LIG d   1      -4.044  77.758 117.493  0.00  0.00     0.091 C 
ENDROOT
BRANCH   1   7
ATOM      7  O   LIG d   1      -5.578  77.458 115.606  0.00  0.00    -0.368 OA
BRANCH   7   8
ATOM      8  C   LIG d   1      -6.374  76.328 115.171  0.00  0.00     0.119 C 
BRANCH   8   9
ATOM      9  C   LIG d   1      -7.062  75.739 116.418  0.00  0.00     0.028 C 
ATOM     10  C   LIG d   1      -8.578  76.003 116.431  0.00  0.00     0.006 C 
ENDBRANCH   8   9
BRANCH   8  11
ATOM     11  C   LIG d   1      -5.491  75.202 114.625  0.00  0.00     0.028 C 
ATOM     12  C   LIG d   1      -5.813  73.836 115.252  0.00  0.00     0.006 C 
ENDBRANCH   8  11
ENDBRANCH   7   8
ENDBRANCH   1   7
BRANCH   6  13
ATOM     13  N   LIG d   1      -3.497  76.376 117.499  0.00  0.00    -0.311 N 
ATOM     14  C   LIG d   1      -2.531  75.966 116.678  0.00  0.00     0.210 C 
ATOM     15  C   LIG d   1      -2.129  74.497 116.837  0.00  0.00     0.109 C 
ATOM     16  O   LIG d   1      -1.948  76.689 115.856  0.00  0.00    -0.276 OA
ATOM     17  H   LIG d   1      -3.892  75.732 118.156  0.00  0.00     0.149 HD
ENDBRANCH   6  13
BRANCH   5  18
ATOM     18  N   LIG d   1      -2.519  78.648 119.292  0.00  0.00     0.381 N 
ATOM     19  H   LIG d   1      -2.435  79.512 119.790  0.00  0.00    -0.090 HD
ATOM     20  H   LIG d   1      -1.937  78.699 118.474  0.00  0.00    -0.090 HD
ATOM     21  H   LIG d   1      -2.225  77.893 119.871  0.00  0.00    -0.090 HD
ENDBRANCH   5  18
BRANCH   3  22
ATOM     22  C   LIG d   1      -6.790  80.739 118.724  0.00  0.00     0.382 C 
ATOM     23  O   LIG d   1      -6.426  81.623 119.535  0.00  0.00    -0.241 OA
ATOM     24  O   LIG d   1      -7.978  80.700 118.351  0.00  0.00    -0.241 OA
ENDBRANCH   3  22
TORSDOF 7
ENDMDL
MODEL 7
REMARK VINA RESULT:      -4.5      3.428      5.528
REMARK  7 active torsions:
REMARK  status: ('A' for Active; 'I' for Inactive)
REMARK    1  A    between atoms: C_2  and  C_3 
REMARK    2  A    between atoms: C_3  and  O_6 
REMARK    3  A    between atoms: C_3  and  C_4 
REMARK    4  A    between atoms: C_7  and  O_6 
REMARK    5  A    between atoms: C_9  and  C_10 
REMARK    6  A    between atoms: N_15  and  C_14 
REMARK    7  A    between atoms: N_20  and  C_19 
REMARK       I    between atoms: C_22  and  N_20 
ROOT
ATOM      1  C   LIG d   1      -3.831  76.999 117.231  0.00  0.00     0.161 C 
ATOM      2  C   LIG d   1      -5.061  77.585 117.574  0.00  0.00     0.016 C 
ATOM      3  C   LIG d   1      -6.300  77.160 117.043  0.00  0.00     0.038 C 
ATOM      4  C   LIG d   1      -6.409  76.015 116.241  0.00  0.00     0.028 C 
ATOM      5  C   LIG d   1      -5.137  75.696 115.463  0.00  0.00    -0.047 C 
ATOM      6  C   LIG d   1      -3.942  75.677 116.443  0.00  0.00     0.091 C 
ENDROOT
BRANCH   1   7
ATOM      7  O   LIG d   1      -3.031  76.811 118.415  0.00  0.00    -0.368 OA
BRANCH   7   8
ATOM      8  C   LIG d   1      -1.831  77.618 118.509  0.00  0.00     0.119 C 
BRANCH   8   9
ATOM      9  C   LIG d   1      -0.734  76.742 119.144  0.00  0.00     0.028 C 
ATOM     10  C   LIG d   1       0.542  76.687 118.287  0.00  0.00     0.006 C 
ENDBRANCH   8   9
BRANCH   8  11
ATOM     11  C   LIG d   1      -2.022  78.792 119.474  0.00  0.00     0.028 C 
ATOM     12  C   LIG d   1      -1.679  80.148 118.837  0.00  0.00     0.006 C 
ENDBRANCH   8  11
ENDBRANCH   7   8
ENDBRANCH   1   7
BRANCH   6  13
ATOM     13  N   LIG d   1      -2.645  75.455 115.752  0.00  0.00    -0.311 N 
ATOM     14  C   LIG d   1      -1.722  74.597 116.183  0.00  0.00     0.210 C 
ATOM     15  C   LIG d   1      -0.448  74.537 115.333  0.00  0.00     0.109 C 
ATOM     16  O   LIG d   1      -1.849  73.857 117.170  0.00  0.00    -0.276 OA
ATOM     17  H   LIG d   1      -2.471  75.992 114.925  0.00  0.00     0.149 HD
ENDBRANCH   6  13
BRANCH   5  18
ATOM     18  N   LIG d   1      -5.344  74.405 114.779  0.00  0.00     0.381 N 
ATOM     19  H   LIG d   1      -5.942  74.534 113.988  0.00  0.00    -0.090 HD
ATOM     20  H   LIG d   1      -5.793  73.769 115.414  0.00  0.00    -0.090 HD
ATOM     21  H   LIG d   1      -4.469  74.030 114.486  0.00  0.00    -0.090 HD
ENDBRANCH   5  18
BRANCH   3  22
ATOM     22  C   LIG d   1      -7.442  77.910 117.280  0.00  0.00     0.382 C 
ATOM     23  O   LIG d   1      -8.566  77.352 117.292  0.00  0.00    -0.241 OA
ATOM     24  O   LIG d   1      -7.368  79.143 117.438  0.00  0.00    -0.241 OA
ENDBRANCH   3  22
TORSDOF 7
ENDMDL
MODEL 8
REMARK VINA RESULT:      -4.2     12.559     15.274
REMARK  7 active torsions:
REMARK  status: ('A' for Active; 'I' for Inactive)
REMARK    1  A    between atoms: C_2  and  C_3 
REMARK    2  A    between atoms: C_3  and  O_6 
REMARK    3  A    between atoms: C_3  and  C_4 
REMARK    4  A    between atoms: C_7  and  O_6 
REMARK    5  A    between atoms: C_9  and  C_10 
REMARK    6  A    between atoms: N_15  and  C_14 
REMARK    7  A    between atoms: N_20  and  C_19 
REMARK       I    between atoms: C_22  and  N_20 
ROOT
ATOM      1  C   LIG d   1      11.891  77.324 114.415  0.00  0.00     0.161 C 
ATOM      2  C   LIG d   1      11.375  76.045 114.683  0.00  0.00     0.016 C 
ATOM      3  C   LIG d   1      12.068  75.067 115.432  0.00  0.00     0.038 C 
ATOM      4  C   LIG d   1      13.270  75.355 116.095  0.00  0.00     0.028 C 
ATOM      5  C   LIG d   1      14.073  76.471 115.436  0.00  0.00    -0.047 C 
ATOM      6  C   LIG d   1      13.152  77.694 115.224  0.00  0.00     0.091 C 
ENDROOT
BRANCH   1   7
ATOM      7  O   LIG d   1      10.864  78.316 114.606  0.00  0.00    -0.368 OA
BRANCH   7   8
ATOM      8  C   LIG d   1       9.849  78.002 115.591  0.00  0.00     0.119 C 
BRANCH   8   9
ATOM      9  C   LIG d   1       8.507  78.543 115.062  0.00  0.00     0.028 C 
ATOM     10  C   LIG d   1       7.413  78.558 116.144  0.00  0.00     0.006 C 
ENDBRANCH   8   9
BRANCH   8  11
ATOM     11  C   LIG d   1      10.098  78.748 116.905  0.00  0.00     0.028 C 
ATOM     12  C   LIG d   1      10.632  77.833 118.019  0.00  0.00     0.006 C 
ENDBRANCH   8  11
ENDBRANCH   7   8
ENDBRANCH   1   7
BRANCH   6  13
ATOM     13  N   LIG d   1      13.837  78.802 114.507  0.00  0.00    -0.311 N 
ATOM     14  C   LIG d   1      13.728  80.081 114.861  0.00  0.00     0.210 C 
ATOM     15  C   LIG d   1      14.500  81.065 113.975  0.00  0.00     0.109 C 
ATOM     16  O   LIG d   1      13.092  80.492 115.843  0.00  0.00    -0.276 OA
ATOM     17  H   LIG d   1      14.399  78.555 113.716  0.00  0.00     0.149 HD
ENDBRANCH   6  13
BRANCH   5  18
ATOM     18  N   LIG d   1      15.230  76.762 116.304  0.00  0.00     0.381 N 
ATOM     19  H   LIG d   1      15.325  76.042 116.993  0.00  0.00    -0.090 HD
ATOM     20  H   LIG d   1      15.069  77.633 116.778  0.00  0.00    -0.090 HD
ATOM     21  H   LIG d   1      16.061  76.820 115.758  0.00  0.00    -0.090 HD
ENDBRANCH   5  18
BRANCH   3  22
ATOM     22  C   LIG d   1      11.579  73.771 115.489  0.00  0.00     0.382 C 
ATOM     23  O   LIG d   1      11.226  73.187 114.436  0.00  0.00    -0.241 OA
ATOM     24  O   LIG d   1      11.444  73.194 116.585  0.00  0.00    -0.241 OA
ENDBRANCH   3  22
TORSDOF 7
ENDMDL
MODEL 9
REMARK VINA RESULT:      -4.1     10.652     14.003
REMARK  7 active torsions:
REMARK  status: ('A' for Active; 'I' for Inactive)
REMARK    1  A    between atoms: C_2  and  C_3 
REMARK    2  A    between atoms: C_3  and  O_6 
REMARK    3  A    between atoms: C_3  and  C_4 
REMARK    4  A    between atoms: C_7  and  O_6 
REMARK    5  A    between atoms: C_9  and  C_10 
REMARK    6  A    between atoms: N_15  and  C_14 
REMARK    7  A    between atoms: N_20  and  C_19 
REMARK       I    between atoms: C_22  and  N_20 
ROOT
ATOM      1  C   LIG d   1       3.107  88.381 115.916  0.00  0.00     0.161 C 
ATOM      2  C   LIG d   1       2.540  87.298 115.224  0.00  0.00     0.016 C 
ATOM      3  C   LIG d   1       1.422  86.572 115.695  0.00  0.00     0.038 C 
ATOM      4  C   LIG d   1       0.696  86.980 116.824  0.00  0.00     0.028 C 
ATOM      5  C   LIG d   1       1.532  87.763 117.831  0.00  0.00    -0.047 C 
ATOM      6  C   LIG d   1       2.261  88.910 117.093  0.00  0.00     0.091 C 
ENDROOT
BRANCH   1   7
ATOM      7  O   LIG d   1       3.404  89.448 114.994  0.00  0.00    -0.368 OA
BRANCH   7   8
ATOM      8  C   LIG d   1       4.808  89.747 114.796  0.00  0.00     0.119 C 
BRANCH   8   9
ATOM      9  C   LIG d   1       5.128  89.498 113.309  0.00  0.00     0.028 C 
ATOM     10  C   LIG d   1       5.443  88.022 113.015  0.00  0.00     0.006 C 
ENDBRANCH   8   9
BRANCH   8  11
ATOM     11  C   LIG d   1       5.700  88.772 115.571  0.00  0.00     0.028 C 
ATOM     12  C   LIG d   1       6.505  89.460 116.685  0.00  0.00     0.006 C 
ENDBRANCH   8  11
ENDBRANCH   7   8
ENDBRANCH   1   7
BRANCH   6  13
ATOM     13  N   LIG d   1       3.166  89.675 117.990  0.00  0.00    -0.311 N 
ATOM     14  C   LIG d   1       3.235  91.005 118.001  0.00  0.00     0.210 C 
ATOM     15  C   LIG d   1       4.249  91.592 118.988  0.00  0.00     0.109 C 
ATOM     16  O   LIG d   1       2.529  91.755 117.310  0.00  0.00    -0.276 OA
ATOM     17  H   LIG d   1       3.752  89.146 118.606  0.00  0.00     0.149 HD
ENDBRANCH   6  13
BRANCH   5  18
ATOM     18  N   LIG d   1       0.621  88.243 118.888  0.00  0.00     0.381 N 
ATOM     19  H   LIG d   1       0.621  89.243 118.907  0.00  0.00    -0.090 HD
ATOM     20  H   LIG d   1       0.952  87.911 119.777  0.00  0.00    -0.090 HD
ATOM     21  H   LIG d   1      -0.301  87.906 118.722  0.00  0.00    -0.090 HD
ENDBRANCH   5  18
BRANCH   3  22
ATOM     22  C   LIG d   1       1.043  85.402 115.056  0.00  0.00     0.382 C 
ATOM     23  O   LIG d   1       0.313  85.452 114.036  0.00  0.00    -0.241 OA
ATOM     24  O   LIG d   1       1.385  84.294 115.511  0.00  0.00    -0.241 OA
ENDBRANCH   3  22
TORSDOF 7
ENDMDL
