MODEL 1
REMARK VINA RESULT:      -5.7      0.000      0.000
REMARK  7 active torsions:
REMARK  status: ('A' for Active; 'I' for Inactive)
REMARK    1  A    between atoms: C_2  and  C_3 
REMARK    2  A    between atoms: C_3  and  O_6 
REMARK    3  A    between atoms: C_3  and  C_4 
REMARK    4  A    between atoms: C_7  and  O_6 
REMARK    5  A    between atoms: C_9  and  C_10 
REMARK    6  A    between atoms: N_15  and  C_14 
REMARK    7  A    between atoms: N_20  and  C_19 
REMARK       I    between atoms: C_22  and  N_20 
ROOT
ATOM      1  C   LIG d   1      -8.264  74.695 117.153  0.00  0.00     0.161 C 
ATOM      2  C   LIG d   1      -8.177  73.335 116.812  0.00  0.00     0.016 C 
ATOM      3  C   LIG d   1      -9.048  72.347 117.326  0.00  0.00     0.038 C 
ATOM      4  C   LIG d   1     -10.167  72.677 118.104  0.00  0.00     0.028 C 
ATOM      5  C   LIG d   1     -10.001  73.977 118.884  0.00  0.00    -0.047 C 
ATOM      6  C   LIG d   1      -9.548  75.090 117.912  0.00  0.00     0.091 C 
ENDROOT
BRANCH   1   7
ATOM      7  O   LIG d   1      -8.112  75.505 115.970  0.00  0.00    -0.368 OA
BRANCH   7   8
ATOM      8  C   LIG d   1      -6.805  76.096 115.767  0.00  0.00     0.119 C 
BRANCH   8   9
ATOM      9  C   LIG d   1      -6.222  75.495 114.473  0.00  0.00     0.028 C 
ATOM     10  C   LIG d   1      -5.096  74.484 114.751  0.00  0.00     0.006 C 
ENDBRANCH   8   9
BRANCH   8  11
ATOM     11  C   LIG d   1      -5.831  75.691 116.877  0.00  0.00     0.028 C 
ATOM     12  C   LIG d   1      -5.402  76.877 117.755  0.00  0.00     0.006 C 
ENDBRANCH   8  11
ENDBRANCH   7   8
ENDBRANCH   1   7
BRANCH   6  13
ATOM     13  N   LIG d   1      -9.280  76.376 118.608  0.00  0.00    -0.311 N 
ATOM     14  C   LIG d   1     -10.190  77.339 118.744  0.00  0.00     0.210 C 
ATOM     15  C   LIG d   1      -9.701  78.592 119.478  0.00  0.00     0.109 C 
ATOM     16  O   LIG d   1     -11.365  77.262 118.355  0.00  0.00    -0.276 OA
ATOM     17  H   LIG d   1      -8.361  76.510 118.982  0.00  0.00     0.149 HD
ENDBRANCH   6  13
BRANCH   5  18
ATOM     18  N   LIG d   1     -11.289  74.271 119.540  0.00  0.00     0.381 N 
ATOM     19  H   LIG d   1     -11.161  74.317 120.531  0.00  0.00    -0.090 HD
ATOM     20  H   LIG d   1     -11.933  73.527 119.339  0.00  0.00    -0.090 HD
ATOM     21  H   LIG d   1     -11.653  75.135 119.204  0.00  0.00    -0.090 HD
ENDBRANCH   5  18
BRANCH   3  22
ATOM     22  C   LIG d   1      -8.778  71.006 117.096  0.00  0.00     0.382 C 
ATOM     23  O   LIG d   1      -9.384  70.123 117.750  0.00  0.00    -0.241 OA
ATOM     24  O   LIG d   1      -7.906  70.669 116.273  0.00  0.00    -0.241 OA
ENDBRANCH   3  22
TORSDOF 7
ENDMDL
MODEL 2
REMARK VINA RESULT:      -5.5      2.417      4.833
REMARK  7 active torsions:
REMARK  status: ('A' for Active; 'I' for Inactive)
REMARK    1  A    between atoms: C_2  and  C_3 
REMARK    2  A    between atoms: C_3  and  O_6 
REMARK    3  A    between atoms: C_3  and  C_4 
REMARK    4  A    between atoms: C_7  and  O_6 
REMARK    5  A    between atoms: C_9  and  C_10 
REMARK    6  A    between atoms: N_15  and  C_14 
REMARK    7  A    between atoms: N_20  and  C_19 
REMARK       I    between atoms: C_22  and  N_20 
ROOT
ATOM      1  C   LIG d   1      -7.389  75.585 117.072  0.00  0.00     0.161 C 
ATOM      2  C   LIG d   1      -6.311  75.882 116.222  0.00  0.00     0.016 C 
ATOM      3  C   LIG d   1      -5.653  74.911 115.432  0.00  0.00     0.038 C 
ATOM      4  C   LIG d   1      -6.129  73.596 115.325  0.00  0.00     0.028 C 
ATOM      5  C   LIG d   1      -6.905  73.130 116.552  0.00  0.00    -0.047 C 
ATOM      6  C   LIG d   1      -7.993  74.177 116.883  0.00  0.00     0.091 C 
ENDROOT
BRANCH   1   7
ATOM      7  O   LIG d   1      -8.412  76.591 116.934  0.00  0.00    -0.368 OA
BRANCH   7   8
ATOM      8  C   LIG d   1      -8.640  77.432 118.092  0.00  0.00     0.119 C 
BRANCH   8   9
ATOM      9  C   LIG d   1     -10.134  77.809 118.103  0.00  0.00     0.028 C 
ATOM     10  C   LIG d   1     -10.887  77.188 119.292  0.00  0.00     0.006 C 
ENDBRANCH   8   9
BRANCH   8  11
ATOM     11  C   LIG d   1      -7.887  78.760 117.973  0.00  0.00     0.028 C 
ATOM     12  C   LIG d   1      -8.825  79.977 117.951  0.00  0.00     0.006 C 
ENDBRANCH   8  11
ENDBRANCH   7   8
ENDBRANCH   1   7
BRANCH   6  13
ATOM     13  N   LIG d   1      -8.745  73.841 118.121  0.00  0.00    -0.311 N 
ATOM     14  C   LIG d   1     -10.074  73.777 118.176  0.00  0.00     0.210 C 
ATOM     15  C   LIG d   1     -10.648  73.433 119.555  0.00  0.00     0.109 C 
ATOM     16  O   LIG d   1     -10.831  73.940 117.208  0.00  0.00    -0.276 OA
ATOM     17  H   LIG d   1      -8.208  73.663 118.947  0.00  0.00     0.149 HD
ENDBRANCH   6  13
BRANCH   5  18
ATOM     18  N   LIG d   1      -7.459  71.797 116.249  0.00  0.00     0.381 N 
ATOM     19  H   LIG d   1      -7.533  71.678 115.258  0.00  0.00    -0.090 HD
ATOM     20  H   LIG d   1      -8.381  71.731 116.644  0.00  0.00    -0.090 HD
ATOM     21  H   LIG d   1      -6.873  71.089 116.634  0.00  0.00    -0.090 HD
ENDBRANCH   5  18
BRANCH   3  22
ATOM     22  C   LIG d   1      -4.481  75.244 114.770  0.00  0.00     0.382 C 
ATOM     23  O   LIG d   1      -3.411  74.653 115.055  0.00  0.00    -0.241 OA
ATOM     24  O   LIG d   1      -4.471  76.157 113.924  0.00  0.00    -0.241 OA
ENDBRANCH   3  22
TORSDOF 7
ENDMDL
MODEL 3
REMARK VINA RESULT:      -5.3      1.877      4.907
REMARK  7 active torsions:
REMARK  status: ('A' for Active; 'I' for Inactive)
REMARK    1  A    between atoms: C_2  and  C_3 
REMARK    2  A    between atoms: C_3  and  O_6 
REMARK    3  A    between atoms: C_3  and  C_4 
REMARK    4  A    between atoms: C_7  and  O_6 
REMARK    5  A    between atoms: C_9  and  C_10 
REMARK    6  A    between atoms: N_15  and  C_14 
REMARK    7  A    between atoms: N_20  and  C_19 
REMARK       I    between atoms: C_22  and  N_20 
ROOT
ATOM      1  C   LIG d   1      -7.681  75.808 117.126  0.00  0.00     0.161 C 
ATOM      2  C   LIG d   1      -7.922  77.163 117.409  0.00  0.00     0.016 C 
ATOM      3  C   LIG d   1      -9.141  77.642 117.939  0.00  0.00     0.038 C 
ATOM      4  C   LIG d   1     -10.156  76.774 118.367  0.00  0.00     0.028 C 
ATOM      5  C   LIG d   1     -10.157  75.436 117.635  0.00  0.00    -0.047 C 
ATOM      6  C   LIG d   1      -8.735  74.832 117.690  0.00  0.00     0.091 C 
ENDROOT
BRANCH   1   7
ATOM      7  O   LIG d   1      -6.364  75.440 117.582  0.00  0.00    -0.368 OA
BRANCH   7   8
ATOM      8  C   LIG d   1      -5.283  75.644 116.639  0.00  0.00     0.119 C 
BRANCH   8   9
ATOM      9  C   LIG d   1      -5.487  74.650 115.479  0.00  0.00     0.028 C 
ATOM     10  C   LIG d   1      -5.535  75.348 114.109  0.00  0.00     0.006 C 
ENDBRANCH   8   9
BRANCH   8  11
ATOM     11  C   LIG d   1      -3.930  75.276 117.254  0.00  0.00     0.028 C 
ATOM     12  C   LIG d   1      -3.426  73.896 116.804  0.00  0.00     0.006 C 
ENDBRANCH   8  11
ENDBRANCH   7   8
ENDBRANCH   1   7
BRANCH   6  13
ATOM     13  N   LIG d   1      -8.628  73.563 116.925  0.00  0.00    -0.311 N 
ATOM     14  C   LIG d   1      -8.774  72.360 117.477  0.00  0.00     0.210 C 
ATOM     15  C   LIG d   1      -8.605  71.181 116.513  0.00  0.00     0.109 C 
ATOM     16  O   LIG d   1      -9.060  72.157 118.666  0.00  0.00    -0.276 OA
ATOM     17  H   LIG d   1      -8.430  73.636 115.946  0.00  0.00     0.149 HD
ENDBRANCH   6  13
BRANCH   5  18
ATOM     18  N   LIG d   1     -11.174  74.579 118.273  0.00  0.00     0.381 N 
ATOM     19  H   LIG d   1     -10.923  74.408 119.226  0.00  0.00    -0.090 HD
ATOM     20  H   LIG d   1     -11.205  73.698 117.792  0.00  0.00    -0.090 HD
ATOM     21  H   LIG d   1     -12.067  75.020 118.231  0.00  0.00    -0.090 HD
ENDBRANCH   5  18
BRANCH   3  22
ATOM     22  C   LIG d   1      -9.370  79.008 118.009  0.00  0.00     0.382 C 
ATOM     23  O   LIG d   1      -8.403  79.804 118.073  0.00  0.00    -0.241 OA
ATOM     24  O   LIG d   1     -10.533  79.452 118.054  0.00  0.00    -0.241 OA
ENDBRANCH   3  22
TORSDOF 7
ENDMDL
MODEL 4
REMARK VINA RESULT:      -5.2      2.302      3.297
REMARK  7 active torsions:
REMARK  status: ('A' for Active; 'I' for Inactive)
REMARK    1  A    between atoms: C_2  and  C_3 
REMARK    2  A    between atoms: C_3  and  O_6 
REMARK    3  A    between atoms: C_3  and  C_4 
REMARK    4  A    between atoms: C_7  and  O_6 
REMARK    5  A    between atoms: C_9  and  C_10 
REMARK    6  A    between atoms: N_15  and  C_14 
REMARK    7  A    between atoms: N_20  and  C_19 
REMARK       I    between atoms: C_22  and  N_20 
ROOT
ATOM      1  C   LIG d   1      -7.657  76.364 117.122  0.00  0.00     0.161 C 
ATOM      2  C   LIG d   1      -8.486  75.237 117.001  0.00  0.00     0.016 C 
ATOM      3  C   LIG d   1      -9.826  75.205 117.452  0.00  0.00     0.038 C 
ATOM      4  C   LIG d   1     -10.478  76.355 117.921  0.00  0.00     0.028 C 
ATOM      5  C   LIG d   1      -9.530  77.383 118.529  0.00  0.00    -0.047 C 
ATOM      6  C   LIG d   1      -8.385  77.662 117.530  0.00  0.00     0.091 C 
ENDROOT
BRANCH   1   7
ATOM      7  O   LIG d   1      -6.923  76.565 115.898  0.00  0.00    -0.368 OA
BRANCH   7   8
ATOM      8  C   LIG d   1      -6.336  75.380 115.305  0.00  0.00     0.119 C 
BRANCH   8   9
ATOM      9  C   LIG d   1      -4.987  75.131 116.008  0.00  0.00     0.028 C 
ATOM     10  C   LIG d   1      -3.812  75.801 115.276  0.00  0.00     0.006 C 
ENDBRANCH   8   9
BRANCH   8  11
ATOM     11  C   LIG d   1      -5.989  75.608 113.831  0.00  0.00     0.028 C 
ATOM     12  C   LIG d   1      -7.111  76.318 113.057  0.00  0.00     0.006 C 
ENDBRANCH   8  11
ENDBRANCH   7   8
ENDBRANCH   1   7
BRANCH   6  13
ATOM     13  N   LIG d   1      -7.367  78.595 118.081  0.00  0.00    -0.311 N 
ATOM     14  C   LIG d   1      -7.466  79.920 117.997  0.00  0.00     0.210 C 
ATOM     15  C   LIG d   1      -6.297  80.696 118.612  0.00  0.00     0.109 C 
ATOM     16  O   LIG d   1      -8.426  80.528 117.500  0.00  0.00    -0.276 OA
ATOM     17  H   LIG d   1      -6.570  78.187 118.529  0.00  0.00     0.149 HD
ENDBRANCH   6  13
BRANCH   5  18
ATOM     18  N   LIG d   1     -10.323  78.585 118.850  0.00  0.00     0.381 N 
ATOM     19  H   LIG d   1      -9.716  79.371 118.964  0.00  0.00    -0.090 HD
ATOM     20  H   LIG d   1     -10.808  78.432 119.717  0.00  0.00    -0.090 HD
ATOM     21  H   LIG d   1     -10.979  78.765 118.122  0.00  0.00    -0.090 HD
ENDBRANCH   5  18
BRANCH   3  22
ATOM     22  C   LIG d   1     -10.515  74.002 117.473  0.00  0.00     0.382 C 
ATOM     23  O   LIG d   1     -11.600  73.911 118.097  0.00  0.00    -0.241 OA
ATOM     24  O   LIG d   1     -10.044  72.994 116.913  0.00  0.00    -0.241 OA
ENDBRANCH   3  22
TORSDOF 7
ENDMDL
MODEL 5
REMARK VINA RESULT:      -5.2      1.939      4.788
REMARK  7 active torsions:
REMARK  status: ('A' for Active; 'I' for Inactive)
REMARK    1  A    between atoms: C_2  and  C_3 
REMARK    2  A    between atoms: C_3  and  O_6 
REMARK    3  A    between atoms: C_3  and  C_4 
REMARK    4  A    between atoms: C_7  and  O_6 
REMARK    5  A    between atoms: C_9  and  C_10 
REMARK    6  A    between atoms: N_15  and  C_14 
REMARK    7  A    between atoms: N_20  and  C_19 
REMARK       I    between atoms: C_22  and  N_20 
ROOT
ATOM      1  C   LIG d   1      -7.864  74.997 117.250  0.00  0.00     0.161 C 
ATOM      2  C   LIG d   1      -7.040  74.720 116.146  0.00  0.00     0.016 C 
ATOM      3  C   LIG d   1      -5.869  75.453 115.846  0.00  0.00     0.038 C 
ATOM      4  C   LIG d   1      -5.357  76.423 116.721  0.00  0.00     0.028 C 
ATOM      5  C   LIG d   1      -6.425  77.081 117.588  0.00  0.00    -0.047 C 
ATOM      6  C   LIG d   1      -7.262  75.979 118.277  0.00  0.00     0.091 C 
ENDROOT
BRANCH   1   7
ATOM      7  O   LIG d   1      -8.245  73.767 117.897  0.00  0.00    -0.368 OA
BRANCH   7   8
ATOM      8  C   LIG d   1      -9.287  73.000 117.246  0.00  0.00     0.119 C 
BRANCH   8   9
ATOM      9  C   LIG d   1     -10.583  73.200 118.055  0.00  0.00     0.028 C 
ATOM     10  C   LIG d   1     -11.407  74.400 117.558  0.00  0.00     0.006 C 
ENDBRANCH   8   9
BRANCH   8  11
ATOM     11  C   LIG d   1      -8.998  71.498 117.310  0.00  0.00     0.028 C 
ATOM     12  C   LIG d   1      -7.894  71.062 116.333  0.00  0.00     0.006 C 
ENDBRANCH   8  11
ENDBRANCH   7   8
ENDBRANCH   1   7
BRANCH   6  13
ATOM     13  N   LIG d   1      -8.383  76.536 119.078  0.00  0.00    -0.311 N 
ATOM     14  C   LIG d   1      -9.387  77.233 118.549  0.00  0.00     0.210 C 
ATOM     15  C   LIG d   1     -10.428  77.732 119.555  0.00  0.00     0.109 C 
ATOM     16  O   LIG d   1      -9.531  77.457 117.337  0.00  0.00    -0.276 OA
ATOM     17  H   LIG d   1      -8.362  76.374 120.066  0.00  0.00     0.149 HD
ENDBRANCH   6  13
BRANCH   5  18
ATOM     18  N   LIG d   1      -5.737  77.968 118.546  0.00  0.00     0.381 N 
ATOM     19  H   LIG d   1      -6.179  78.866 118.553  0.00  0.00    -0.090 HD
ATOM     20  H   LIG d   1      -4.784  78.087 118.251  0.00  0.00    -0.090 HD
ATOM     21  H   LIG d   1      -5.763  77.570 119.458  0.00  0.00    -0.090 HD
ENDBRANCH   5  18
BRANCH   3  22
ATOM     22  C   LIG d   1      -5.218  75.245 114.640  0.00  0.00     0.382 C 
ATOM     23  O   LIG d   1      -5.646  75.793 113.595  0.00  0.00    -0.241 OA
ATOM     24  O   LIG d   1      -4.236  74.482 114.574  0.00  0.00    -0.241 OA
ENDBRANCH   3  22
TORSDOF 7
ENDMDL
MODEL 6
REMARK VINA RESULT:      -5.1      2.164      4.542
REMARK  7 active torsions:
REMARK  status: ('A' for Active; 'I' for Inactive)
REMARK    1  A    between atoms: C_2  and  C_3 
REMARK    2  A    between atoms: C_3  and  O_6 
REMARK    3  A    between atoms: C_3  and  C_4 
REMARK    4  A    between atoms: C_7  and  O_6 
REMARK    5  A    between atoms: C_9  and  C_10 
REMARK    6  A    between atoms: N_15  and  C_14 
REMARK    7  A    between atoms: N_20  and  C_19 
REMARK       I    between atoms: C_22  and  N_20 
ROOT
ATOM      1  C   LIG d   1      -8.644  75.933 116.370  0.00  0.00     0.161 C 
ATOM      2  C   LIG d   1      -7.750  75.530 115.363  0.00  0.00     0.016 C 
ATOM      3  C   LIG d   1      -6.344  75.581 115.506  0.00  0.00     0.038 C 
ATOM      4  C   LIG d   1      -5.734  75.897 116.729  0.00  0.00     0.028 C 
ATOM      5  C   LIG d   1      -6.588  76.795 117.618  0.00  0.00    -0.047 C 
ATOM      6  C   LIG d   1      -7.998  76.175 117.750  0.00  0.00     0.091 C 
ENDROOT
BRANCH   1   7
ATOM      7  O   LIG d   1      -9.717  74.977 116.480  0.00  0.00    -0.368 OA
BRANCH   7   8
ATOM      8  C   LIG d   1      -9.599  74.007 117.549  0.00  0.00     0.119 C 
BRANCH   8   9
ATOM      9  C   LIG d   1      -9.418  72.621 116.900  0.00  0.00     0.028 C 
ATOM     10  C   LIG d   1      -7.958  72.139 116.943  0.00  0.00     0.006 C 
ENDBRANCH   8   9
BRANCH   8  11
ATOM     11  C   LIG d   1     -10.896  73.909 118.358  0.00  0.00     0.028 C 
ATOM     12  C   LIG d   1     -11.962  74.917 117.900  0.00  0.00     0.006 C 
ENDBRANCH   8  11
ENDBRANCH   7   8
ENDBRANCH   1   7
BRANCH   6  13
ATOM     13  N   LIG d   1      -8.923  77.034 118.535  0.00  0.00    -0.311 N 
ATOM     14  C   LIG d   1      -8.965  78.360 118.423  0.00  0.00     0.210 C 
ATOM     15  C   LIG d   1      -9.978  79.054 119.339  0.00  0.00     0.109 C 
ATOM     16  O   LIG d   1      -8.282  79.025 117.630  0.00  0.00    -0.276 OA
ATOM     17  H   LIG d   1      -9.535  76.574 119.180  0.00  0.00     0.149 HD
ENDBRANCH   6  13
BRANCH   5  18
ATOM     18  N   LIG d   1      -5.893  76.932 118.912  0.00  0.00     0.381 N 
ATOM     19  H   LIG d   1      -6.469  76.569 119.645  0.00  0.00    -0.090 HD
ATOM     20  H   LIG d   1      -5.731  77.907 119.092  0.00  0.00    -0.090 HD
ATOM     21  H   LIG d   1      -5.026  76.442 118.887  0.00  0.00    -0.090 HD
ENDBRANCH   5  18
BRANCH   3  22
ATOM     22  C   LIG d   1      -5.533  75.351 114.405  0.00  0.00     0.382 C 
ATOM     23  O   LIG d   1      -5.591  76.117 113.413  0.00  0.00    -0.241 OA
ATOM     24  O   LIG d   1      -4.776  74.363 114.373  0.00  0.00    -0.241 OA
ENDBRANCH   3  22
TORSDOF 7
ENDMDL
MODEL 7
REMARK VINA RESULT:      -5.0      2.708      4.460
REMARK  7 active torsions:
REMARK  status: ('A' for Active; 'I' for Inactive)
REMARK    1  A    between atoms: C_2  and  C_3 
REMARK    2  A    between atoms: C_3  and  O_6 
REMARK    3  A    between atoms: C_3  and  C_4 
REMARK    4  A    between atoms: C_7  and  O_6 
REMARK    5  A    between atoms: C_9  and  C_10 
REMARK    6  A    between atoms: N_15  and  C_14 
REMARK    7  A    between atoms: N_20  and  C_19 
REMARK       I    between atoms: C_22  and  N_20 
ROOT
ATOM      1  C   LIG d   1      -7.208  75.970 118.110  0.00  0.00     0.161 C 
ATOM      2  C   LIG d   1      -8.507  75.492 117.875  0.00  0.00     0.016 C 
ATOM      3  C   LIG d   1      -9.646  76.328 117.820  0.00  0.00     0.038 C 
ATOM      4  C   LIG d   1      -9.541  77.726 117.846  0.00  0.00     0.028 C 
ATOM      5  C   LIG d   1      -8.306  78.227 118.587  0.00  0.00    -0.047 C 
ATOM      6  C   LIG d   1      -7.059  77.504 118.030  0.00  0.00     0.091 C 
ENDROOT
BRANCH   1   7
ATOM      7  O   LIG d   1      -6.281  75.330 117.210  0.00  0.00    -0.368 OA
BRANCH   7   8
ATOM      8  C   LIG d   1      -6.859  74.709 116.035  0.00  0.00     0.119 C 
BRANCH   8   9
ATOM      9  C   LIG d   1      -6.303  73.275 115.949  0.00  0.00     0.028 C 
ATOM     10  C   LIG d   1      -7.345  72.216 116.347  0.00  0.00     0.006 C 
ENDBRANCH   8   9
BRANCH   8  11
ATOM     11  C   LIG d   1      -6.392  75.403 114.752  0.00  0.00     0.028 C 
ATOM     12  C   LIG d   1      -4.891  75.215 114.485  0.00  0.00     0.006 C 
ENDBRANCH   8  11
ENDBRANCH   7   8
ENDBRANCH   1   7
BRANCH   6  13
ATOM     13  N   LIG d   1      -5.817  77.874 118.758  0.00  0.00    -0.311 N 
ATOM     14  C   LIG d   1      -4.971  78.811 118.334  0.00  0.00     0.210 C 
ATOM     15  C   LIG d   1      -3.741  79.022 119.223  0.00  0.00     0.109 C 
ATOM     16  O   LIG d   1      -5.138  79.511 117.324  0.00  0.00    -0.276 OA
ATOM     17  H   LIG d   1      -5.619  77.378 119.604  0.00  0.00     0.149 HD
ENDBRANCH   6  13
BRANCH   5  18
ATOM     18  N   LIG d   1      -8.249  79.692 118.419  0.00  0.00     0.381 N 
ATOM     19  H   LIG d   1      -8.242  80.136 119.315  0.00  0.00    -0.090 HD
ATOM     20  H   LIG d   1      -9.069  79.994 117.924  0.00  0.00    -0.090 HD
ATOM     21  H   LIG d   1      -7.432  79.945 117.908  0.00  0.00    -0.090 HD
ENDBRANCH   5  18
BRANCH   3  22
ATOM     22  C   LIG d   1     -10.912  75.763 117.777  0.00  0.00     0.382 C 
ATOM     23  O   LIG d   1     -11.059  74.583 117.376  0.00  0.00    -0.241 OA
ATOM     24  O   LIG d   1     -11.913  76.433 118.093  0.00  0.00    -0.241 OA
ENDBRANCH   3  22
TORSDOF 7
ENDMDL
MODEL 8
REMARK VINA RESULT:      -5.0      2.278      3.076
REMARK  7 active torsions:
REMARK  status: ('A' for Active; 'I' for Inactive)
REMARK    1  A    between atoms: C_2  and  C_3 
REMARK    2  A    between atoms: C_3  and  O_6 
REMARK    3  A    between atoms: C_3  and  C_4 
REMARK    4  A    between atoms: C_7  and  O_6 
REMARK    5  A    between atoms: C_9  and  C_10 
REMARK    6  A    between atoms: N_15  and  C_14 
REMARK    7  A    between atoms: N_20  and  C_19 
REMARK       I    between atoms: C_22  and  N_20 
ROOT
ATOM      1  C   LIG d   1      -7.584  76.421 117.378  0.00  0.00     0.161 C 
ATOM      2  C   LIG d   1      -8.348  75.251 117.231  0.00  0.00     0.016 C 
ATOM      3  C   LIG d   1      -9.713  75.163 117.589  0.00  0.00     0.038 C 
ATOM      4  C   LIG d   1     -10.451  76.290 117.980  0.00  0.00     0.028 C 
ATOM      5  C   LIG d   1      -9.599  77.379 118.623  0.00  0.00    -0.047 C 
ATOM      6  C   LIG d   1      -8.401  77.691 117.697  0.00  0.00     0.091 C 
ENDROOT
BRANCH   1   7
ATOM      7  O   LIG d   1      -6.777  76.628 116.202  0.00  0.00    -0.368 OA
BRANCH   7   8
ATOM      8  C   LIG d   1      -5.371  76.303 116.329  0.00  0.00     0.119 C 
BRANCH   8   9
ATOM      9  C   LIG d   1      -5.181  74.860 115.822  0.00  0.00     0.028 C 
ATOM     10  C   LIG d   1      -5.343  74.748 114.297  0.00  0.00     0.006 C 
ENDBRANCH   8   9
BRANCH   8  11
ATOM     11  C   LIG d   1      -4.935  76.277 117.797  0.00  0.00     0.028 C 
ATOM     12  C   LIG d   1      -3.602  75.543 118.010  0.00  0.00     0.006 C 
ENDBRANCH   8  11
ENDBRANCH   7   8
ENDBRANCH   1   7
BRANCH   6  13
ATOM     13  N   LIG d   1      -7.470  78.686 118.291  0.00  0.00    -0.311 N 
ATOM     14  C   LIG d   1      -7.582  79.999 118.098  0.00  0.00     0.210 C 
ATOM     15  C   LIG d   1      -6.506  80.847 118.784  0.00  0.00     0.109 C 
ATOM     16  O   LIG d   1      -8.488  80.545 117.451  0.00  0.00    -0.276 OA
ATOM     17  H   LIG d   1      -6.723  78.332 118.856  0.00  0.00     0.149 HD
ENDBRANCH   6  13
BRANCH   5  18
ATOM     18  N   LIG d   1     -10.470  78.548 118.854  0.00  0.00     0.381 N 
ATOM     19  H   LIG d   1     -11.331  78.431 118.359  0.00  0.00    -0.090 HD
ATOM     20  H   LIG d   1     -10.011  79.369 118.501  0.00  0.00    -0.090 HD
ATOM     21  H   LIG d   1     -10.649  78.651 119.829  0.00  0.00    -0.090 HD
ENDBRANCH   5  18
BRANCH   3  22
ATOM     22  C   LIG d   1     -10.343  73.928 117.597  0.00  0.00     0.382 C 
ATOM     23  O   LIG d   1      -9.890  72.989 116.899  0.00  0.00    -0.241 OA
ATOM     24  O   LIG d   1     -11.385  73.754 118.258  0.00  0.00    -0.241 OA
ENDBRANCH   3  22
TORSDOF 7
ENDMDL
MODEL 9
REMARK VINA RESULT:      -4.6      2.860      5.397
REMARK  7 active torsions:
REMARK  status: ('A' for Active; 'I' for Inactive)
REMARK    1  A    between atoms: C_2  and  C_3 
REMARK    2  A    between atoms: C_3  and  O_6 
REMARK    3  A    between atoms: C_3  and  C_4 
REMARK    4  A    between atoms: C_7  and  O_6 
REMARK    5  A    between atoms: C_9  and  C_10 
REMARK    6  A    between atoms: N_15  and  C_14 
REMARK    7  A    between atoms: N_20  and  C_19 
REMARK       I    between atoms: C_22  and  N_20 
ROOT
ATOM      1  C   LIG d   1      -5.918  76.613 117.031  0.00  0.00     0.161 C 
ATOM      2  C   LIG d   1      -4.789  76.821 116.221  0.00  0.00     0.016 C 
ATOM      3  C   LIG d   1      -4.224  75.817 115.401  0.00  0.00     0.038 C 
ATOM      4  C   LIG d   1      -4.843  74.571 115.221  0.00  0.00     0.028 C 
ATOM      5  C   LIG d   1      -5.703  74.144 116.406  0.00  0.00    -0.047 C 
ATOM      6  C   LIG d   1      -6.673  75.294 116.762  0.00  0.00     0.091 C 
ENDROOT
BRANCH   1   7
ATOM      7  O   LIG d   1      -6.814  77.735 116.917  0.00  0.00    -0.368 OA
BRANCH   7   8
ATOM      8  C   LIG d   1      -6.919  78.588 118.084  0.00  0.00     0.119 C 
BRANCH   8   9
ATOM      9  C   LIG d   1      -8.304  79.263 118.042  0.00  0.00     0.028 C 
ATOM     10  C   LIG d   1      -9.454  78.252 118.187  0.00  0.00     0.006 C 
ENDBRANCH   8   9
BRANCH   8  11
ATOM     11  C   LIG d   1      -5.907  79.736 118.028  0.00  0.00     0.028 C 
ATOM     12  C   LIG d   1      -4.728  79.539 118.995  0.00  0.00     0.006 C 
ENDBRANCH   8  11
ENDBRANCH   7   8
ENDBRANCH   1   7
BRANCH   6  13
ATOM     13  N   LIG d   1      -7.492  74.992 117.964  0.00  0.00    -0.311 N 
ATOM     14  C   LIG d   1      -8.708  74.450 117.906  0.00  0.00     0.210 C 
ATOM     15  C   LIG d   1      -9.388  74.240 119.262  0.00  0.00     0.109 C 
ATOM     16  O   LIG d   1      -9.274  74.094 116.862  0.00  0.00    -0.276 OA
ATOM     17  H   LIG d   1      -7.097  75.220 118.855  0.00  0.00     0.149 HD
ENDBRANCH   6  13
BRANCH   5  18
ATOM     18  N   LIG d   1      -6.396  72.899 116.028  0.00  0.00     0.381 N 
ATOM     19  H   LIG d   1      -7.021  73.077 115.267  0.00  0.00    -0.090 HD
ATOM     20  H   LIG d   1      -6.937  72.577 116.811  0.00  0.00    -0.090 HD
ATOM     21  H   LIG d   1      -5.732  72.204 115.766  0.00  0.00    -0.090 HD
ENDBRANCH   5  18
BRANCH   3  22
ATOM     22  C   LIG d   1      -3.003  76.041 114.783  0.00  0.00     0.382 C 
ATOM     23  O   LIG d   1      -1.936  75.774 115.387  0.00  0.00    -0.241 OA
ATOM     24  O   LIG d   1      -2.954  76.548 113.646  0.00  0.00    -0.241 OA
ENDBRANCH   3  22
TORSDOF 7
ENDMDL
