MODEL 1
REMARK VINA RESULT:      -5.6      0.000      0.000
REMARK  7 active torsions:
REMARK  status: ('A' for Active; 'I' for Inactive)
REMARK    1  A    between atoms: C_2  and  C_3 
REMARK    2  A    between atoms: C_3  and  O_6 
REMARK    3  A    between atoms: C_3  and  C_4 
REMARK    4  A    between atoms: C_7  and  O_6 
REMARK    5  A    between atoms: C_9  and  C_10 
REMARK    6  A    between atoms: N_15  and  C_14 
REMARK    7  A    between atoms: N_20  and  C_19 
REMARK       I    between atoms: C_22  and  N_20 
ROOT
ATOM      1  C   LIG d   1      -5.416  73.421 116.444  0.00  0.00     0.161 C 
ATOM      2  C   LIG d   1      -5.164  74.310 115.386  0.00  0.00     0.016 C 
ATOM      3  C   LIG d   1      -6.040  75.359 115.025  0.00  0.00     0.038 C 
ATOM      4  C   LIG d   1      -7.163  75.687 115.800  0.00  0.00     0.028 C 
ATOM      5  C   LIG d   1      -7.727  74.504 116.580  0.00  0.00    -0.047 C 
ATOM      6  C   LIG d   1      -6.581  73.832 117.370  0.00  0.00     0.091 C 
ENDROOT
BRANCH   1   7
ATOM      7  O   LIG d   1      -4.213  73.221 117.212  0.00  0.00    -0.368 OA
BRANCH   7   8
ATOM      8  C   LIG d   1      -3.260  74.312 117.199  0.00  0.00     0.119 C 
BRANCH   8   9
ATOM      9  C   LIG d   1      -1.853  73.697 117.073  0.00  0.00     0.028 C 
ATOM     10  C   LIG d   1      -1.420  72.956 118.350  0.00  0.00     0.006 C 
ENDBRANCH   8   9
BRANCH   8  11
ATOM     11  C   LIG d   1      -3.256  75.064 118.533  0.00  0.00     0.028 C 
ATOM     12  C   LIG d   1      -4.083  76.359 118.490  0.00  0.00     0.006 C 
ENDBRANCH   8  11
ENDBRANCH   7   8
ENDBRANCH   1   7
BRANCH   6  13
ATOM     13  N   LIG d   1      -7.030  72.614 118.095  0.00  0.00    -0.311 N 
ATOM     14  C   LIG d   1      -7.407  71.493 117.482  0.00  0.00     0.210 C 
ATOM     15  C   LIG d   1      -7.852  70.364 118.416  0.00  0.00     0.109 C 
ATOM     16  O   LIG d   1      -7.384  71.316 116.255  0.00  0.00    -0.276 OA
ATOM     17  H   LIG d   1      -7.049  72.660 119.095  0.00  0.00     0.149 HD
ENDBRANCH   6  13
BRANCH   5  18
ATOM     18  N   LIG d   1      -8.804  75.015 117.447  0.00  0.00     0.381 N 
ATOM     19  H   LIG d   1      -9.268  74.251 117.897  0.00  0.00    -0.090 HD
ATOM     20  H   LIG d   1      -9.476  75.502 116.880  0.00  0.00    -0.090 HD
ATOM     21  H   LIG d   1      -8.427  75.633 118.132  0.00  0.00    -0.090 HD
ENDBRANCH   5  18
BRANCH   3  22
ATOM     22  C   LIG d   1      -5.818  76.068 113.855  0.00  0.00     0.382 C 
ATOM     23  O   LIG d   1      -6.784  76.380 113.117  0.00  0.00    -0.241 OA
ATOM     24  O   LIG d   1      -4.659  76.362 113.505  0.00  0.00    -0.241 OA
ENDBRANCH   3  22
TORSDOF 7
ENDMDL
MODEL 2
REMARK VINA RESULT:      -5.5      2.215      4.711
REMARK  7 active torsions:
REMARK  status: ('A' for Active; 'I' for Inactive)
REMARK    1  A    between atoms: C_2  and  C_3 
REMARK    2  A    between atoms: C_3  and  O_6 
REMARK    3  A    between atoms: C_3  and  C_4 
REMARK    4  A    between atoms: C_7  and  O_6 
REMARK    5  A    between atoms: C_9  and  C_10 
REMARK    6  A    between atoms: N_15  and  C_14 
REMARK    7  A    between atoms: N_20  and  C_19 
REMARK       I    between atoms: C_22  and  N_20 
ROOT
ATOM      1  C   LIG d   1      -6.702  74.704 117.587  0.00  0.00     0.161 C 
ATOM      2  C   LIG d   1      -6.687  73.312 117.771  0.00  0.00     0.016 C 
ATOM      3  C   LIG d   1      -7.822  72.490 117.581  0.00  0.00     0.038 C 
ATOM      4  C   LIG d   1      -9.018  72.990 117.045  0.00  0.00     0.028 C 
ATOM      5  C   LIG d   1      -9.233  74.474 117.322  0.00  0.00    -0.047 C 
ATOM      6  C   LIG d   1      -7.967  75.252 116.895  0.00  0.00     0.091 C 
ENDROOT
BRANCH   1   7
ATOM      7  O   LIG d   1      -5.521  75.115 116.870  0.00  0.00    -0.368 OA
BRANCH   7   8
ATOM      8  C   LIG d   1      -4.790  74.064 116.191  0.00  0.00     0.119 C 
BRANCH   8   9
ATOM      9  C   LIG d   1      -3.287  74.349 116.379  0.00  0.00     0.028 C 
ATOM     10  C   LIG d   1      -2.689  73.581 117.570  0.00  0.00     0.006 C 
ENDBRANCH   8   9
BRANCH   8  11
ATOM     11  C   LIG d   1      -5.025  74.109 114.678  0.00  0.00     0.028 C 
ATOM     12  C   LIG d   1      -5.500  75.487 114.190  0.00  0.00     0.006 C 
ENDBRANCH   8  11
ENDBRANCH   7   8
ENDBRANCH   1   7
BRANCH   6  13
ATOM     13  N   LIG d   1      -8.060  76.702 117.210  0.00  0.00    -0.311 N 
ATOM     14  C   LIG d   1      -8.240  77.174 118.442  0.00  0.00     0.210 C 
ATOM     15  C   LIG d   1      -8.328  78.701 118.542  0.00  0.00     0.109 C 
ATOM     16  O   LIG d   1      -8.304  76.476 119.465  0.00  0.00    -0.276 OA
ATOM     17  H   LIG d   1      -7.988  77.341 116.442  0.00  0.00     0.149 HD
ENDBRANCH   6  13
BRANCH   5  18
ATOM     18  N   LIG d   1     -10.444  74.893 116.592  0.00  0.00     0.381 N 
ATOM     19  H   LIG d   1     -11.202  74.279 116.812  0.00  0.00    -0.090 HD
ATOM     20  H   LIG d   1     -10.265  74.833 115.605  0.00  0.00    -0.090 HD
ATOM     21  H   LIG d   1     -10.683  75.829 116.836  0.00  0.00    -0.090 HD
ENDBRANCH   5  18
BRANCH   3  22
ATOM     22  C   LIG d   1      -7.779  71.159 117.968  0.00  0.00     0.382 C 
ATOM     23  O   LIG d   1      -7.166  70.829 119.011  0.00  0.00    -0.241 OA
ATOM     24  O   LIG d   1      -8.308  70.279 117.263  0.00  0.00    -0.241 OA
ENDBRANCH   3  22
TORSDOF 7
ENDMDL
MODEL 3
REMARK VINA RESULT:      -5.2     15.231     17.409
REMARK  7 active torsions:
REMARK  status: ('A' for Active; 'I' for Inactive)
REMARK    1  A    between atoms: C_2  and  C_3 
REMARK    2  A    between atoms: C_3  and  O_6 
REMARK    3  A    between atoms: C_3  and  C_4 
REMARK    4  A    between atoms: C_7  and  O_6 
REMARK    5  A    between atoms: C_9  and  C_10 
REMARK    6  A    between atoms: N_15  and  C_14 
REMARK    7  A    between atoms: N_20  and  C_19 
REMARK       I    between atoms: C_22  and  N_20 
ROOT
ATOM      1  C   LIG d   1       1.029  88.828 116.801  0.00  0.00     0.161 C 
ATOM      2  C   LIG d   1      -0.365  88.661 116.850  0.00  0.00     0.016 C 
ATOM      3  C   LIG d   1      -1.246  89.630 117.382  0.00  0.00     0.038 C 
ATOM      4  C   LIG d   1      -0.803  90.904 117.767  0.00  0.00     0.028 C 
ATOM      5  C   LIG d   1       0.657  90.931 118.205  0.00  0.00    -0.047 C 
ATOM      6  C   LIG d   1       1.521  90.257 117.114  0.00  0.00     0.091 C 
ENDROOT
BRANCH   1   7
ATOM      7  O   LIG d   1       1.529  88.396 115.520  0.00  0.00    -0.368 OA
BRANCH   7   8
ATOM      8  C   LIG d   1       2.448  87.276 115.540  0.00  0.00     0.119 C 
BRANCH   8   9
ATOM      9  C   LIG d   1       3.749  87.733 114.853  0.00  0.00     0.028 C 
ATOM     10  C   LIG d   1       3.570  89.045 114.069  0.00  0.00     0.006 C 
ENDBRANCH   8   9
BRANCH   8  11
ATOM     11  C   LIG d   1       1.928  86.113 114.689  0.00  0.00     0.028 C 
ATOM     12  C   LIG d   1       3.058  85.263 114.088  0.00  0.00     0.006 C 
ENDBRANCH   8  11
ENDBRANCH   7   8
ENDBRANCH   1   7
BRANCH   6  13
ATOM     13  N   LIG d   1       2.953  90.165 117.501  0.00  0.00    -0.311 N 
ATOM     14  C   LIG d   1       3.848  91.113 117.230  0.00  0.00     0.210 C 
ATOM     15  C   LIG d   1       5.274  90.810 117.700  0.00  0.00     0.109 C 
ATOM     16  O   LIG d   1       3.590  92.191 116.673  0.00  0.00    -0.276 OA
ATOM     17  H   LIG d   1       3.242  89.337 117.984  0.00  0.00     0.149 HD
ENDBRANCH   6  13
BRANCH   5  18
ATOM     18  N   LIG d   1       1.025  92.339 118.446  0.00  0.00     0.381 N 
ATOM     19  H   LIG d   1       1.149  92.494 119.426  0.00  0.00    -0.090 HD
ATOM     20  H   LIG d   1       0.278  92.929 118.125  0.00  0.00    -0.090 HD
ATOM     21  H   LIG d   1       1.866  92.560 117.959  0.00  0.00    -0.090 HD
ENDBRANCH   5  18
BRANCH   3  22
ATOM     22  C   LIG d   1      -2.583  89.313 117.571  0.00  0.00     0.382 C 
ATOM     23  O   LIG d   1      -3.422  89.577 116.677  0.00  0.00    -0.241 OA
ATOM     24  O   LIG d   1      -2.967  88.807 118.642  0.00  0.00    -0.241 OA
ENDBRANCH   3  22
TORSDOF 7
ENDMDL
MODEL 4
REMARK VINA RESULT:      -5.0      3.087      3.846
REMARK  7 active torsions:
REMARK  status: ('A' for Active; 'I' for Inactive)
REMARK    1  A    between atoms: C_2  and  C_3 
REMARK    2  A    between atoms: C_3  and  O_6 
REMARK    3  A    between atoms: C_3  and  C_4 
REMARK    4  A    between atoms: C_7  and  O_6 
REMARK    5  A    between atoms: C_9  and  C_10 
REMARK    6  A    between atoms: N_15  and  C_14 
REMARK    7  A    between atoms: N_20  and  C_19 
REMARK       I    between atoms: C_22  and  N_20 
ROOT
ATOM      1  C   LIG d   1      -7.253  75.885 117.671  0.00  0.00     0.161 C 
ATOM      2  C   LIG d   1      -7.474  77.245 117.947  0.00  0.00     0.016 C 
ATOM      3  C   LIG d   1      -8.760  77.803 118.129  0.00  0.00     0.038 C 
ATOM      4  C   LIG d   1      -9.912  77.005 118.198  0.00  0.00     0.028 C 
ATOM      5  C   LIG d   1      -9.789  75.697 117.424  0.00  0.00    -0.047 C 
ATOM      6  C   LIG d   1      -8.489  74.979 117.853  0.00  0.00     0.091 C 
ENDROOT
BRANCH   1   7
ATOM      7  O   LIG d   1      -6.154  75.398 118.466  0.00  0.00    -0.368 OA
BRANCH   7   8
ATOM      8  C   LIG d   1      -4.879  75.283 117.788  0.00  0.00     0.119 C 
BRANCH   8   9
ATOM      9  C   LIG d   1      -4.821  73.885 117.144  0.00  0.00     0.028 C 
ATOM     10  C   LIG d   1      -4.950  73.938 115.612  0.00  0.00     0.006 C 
ENDBRANCH   8   9
BRANCH   8  11
ATOM     11  C   LIG d   1      -3.714  75.321 118.782  0.00  0.00     0.028 C 
ATOM     12  C   LIG d   1      -2.344  75.172 118.100  0.00  0.00     0.006 C 
ENDBRANCH   8  11
ENDBRANCH   7   8
ENDBRANCH   1   7
BRANCH   6  13
ATOM     13  N   LIG d   1      -8.250  73.731 117.082  0.00  0.00    -0.311 N 
ATOM     14  C   LIG d   1      -8.650  72.529 117.491  0.00  0.00     0.210 C 
ATOM     15  C   LIG d   1      -8.283  71.372 116.556  0.00  0.00     0.109 C 
ATOM     16  O   LIG d   1      -9.302  72.314 118.524  0.00  0.00    -0.276 OA
ATOM     17  H   LIG d   1      -7.755  73.818 116.216  0.00  0.00     0.149 HD
ENDBRANCH   6  13
BRANCH   5  18
ATOM     18  N   LIG d   1     -11.004  74.904 117.694  0.00  0.00     0.381 N 
ATOM     19  H   LIG d   1     -11.540  74.810 116.855  0.00  0.00    -0.090 HD
ATOM     20  H   LIG d   1     -11.563  75.388 118.374  0.00  0.00    -0.090 HD
ATOM     21  H   LIG d   1     -10.753  74.004 118.039  0.00  0.00    -0.090 HD
ENDBRANCH   5  18
BRANCH   3  22
ATOM     22  C   LIG d   1      -8.907  79.180 118.205  0.00  0.00     0.382 C 
ATOM     23  O   LIG d   1      -7.949  79.930 117.900  0.00  0.00    -0.241 OA
ATOM     24  O   LIG d   1      -9.971  79.680 118.616  0.00  0.00    -0.241 OA
ENDBRANCH   3  22
TORSDOF 7
ENDMDL
MODEL 5
REMARK VINA RESULT:      -5.0     14.847     17.589
REMARK  7 active torsions:
REMARK  status: ('A' for Active; 'I' for Inactive)
REMARK    1  A    between atoms: C_2  and  C_3 
REMARK    2  A    between atoms: C_3  and  O_6 
REMARK    3  A    between atoms: C_3  and  C_4 
REMARK    4  A    between atoms: C_7  and  O_6 
REMARK    5  A    between atoms: C_9  and  C_10 
REMARK    6  A    between atoms: N_15  and  C_14 
REMARK    7  A    between atoms: N_20  and  C_19 
REMARK       I    between atoms: C_22  and  N_20 
ROOT
ATOM      1  C   LIG d   1      10.820  75.811 114.880  0.00  0.00     0.161 C 
ATOM      2  C   LIG d   1       9.459  76.132 115.008  0.00  0.00     0.016 C 
ATOM      3  C   LIG d   1       8.956  77.449 114.903  0.00  0.00     0.038 C 
ATOM      4  C   LIG d   1       9.768  78.523 114.510  0.00  0.00     0.028 C 
ATOM      5  C   LIG d   1      11.239  78.332 114.864  0.00  0.00    -0.047 C 
ATOM      6  C   LIG d   1      11.706  76.954 114.341  0.00  0.00     0.091 C 
ENDROOT
BRANCH   1   7
ATOM      7  O   LIG d   1      10.970  74.633 114.062  0.00  0.00    -0.368 OA
BRANCH   7   8
ATOM      8  C   LIG d   1      11.539  73.472 114.716  0.00  0.00     0.119 C 
BRANCH   8   9
ATOM      9  C   LIG d   1      12.472  72.781 113.703  0.00  0.00     0.028 C 
ATOM     10  C   LIG d   1      13.959  73.027 114.012  0.00  0.00     0.006 C 
ENDBRANCH   8   9
BRANCH   8  11
ATOM     11  C   LIG d   1      10.461  72.436 115.047  0.00  0.00     0.028 C 
ATOM     12  C   LIG d   1      10.877  71.486 116.182  0.00  0.00     0.006 C 
ENDBRANCH   8  11
ENDBRANCH   7   8
ENDBRANCH   1   7
BRANCH   6  13
ATOM     13  N   LIG d   1      13.111  76.651 114.718  0.00  0.00    -0.311 N 
ATOM     14  C   LIG d   1      14.152  76.887 113.921  0.00  0.00     0.210 C 
ATOM     15  C   LIG d   1      15.512  76.481 114.496  0.00  0.00     0.109 C 
ATOM     16  O   LIG d   1      14.080  77.423 112.805  0.00  0.00    -0.276 OA
ATOM     17  H   LIG d   1      13.263  76.242 115.620  0.00  0.00     0.149 HD
ENDBRANCH   6  13
BRANCH   5  18
ATOM     18  N   LIG d   1      11.989  79.458 114.276  0.00  0.00     0.381 N 
ATOM     19  H   LIG d   1      11.741  80.309 114.740  0.00  0.00    -0.090 HD
ATOM     20  H   LIG d   1      11.741  79.543 113.306  0.00  0.00    -0.090 HD
ATOM     21  H   LIG d   1      12.969  79.297 114.363  0.00  0.00    -0.090 HD
ENDBRANCH   5  18
BRANCH   3  22
ATOM     22  C   LIG d   1       7.634  77.709 115.232  0.00  0.00     0.382 C 
ATOM     23  O   LIG d   1       7.362  78.573 116.100  0.00  0.00    -0.241 OA
ATOM     24  O   LIG d   1       6.713  77.059 114.703  0.00  0.00    -0.241 OA
ENDBRANCH   3  22
TORSDOF 7
ENDMDL
MODEL 6
REMARK VINA RESULT:      -4.8     15.017     17.782
REMARK  7 active torsions:
REMARK  status: ('A' for Active; 'I' for Inactive)
REMARK    1  A    between atoms: C_2  and  C_3 
REMARK    2  A    between atoms: C_3  and  O_6 
REMARK    3  A    between atoms: C_3  and  C_4 
REMARK    4  A    between atoms: C_7  and  O_6 
REMARK    5  A    between atoms: C_9  and  C_10 
REMARK    6  A    between atoms: N_15  and  C_14 
REMARK    7  A    between atoms: N_20  and  C_19 
REMARK       I    between atoms: C_22  and  N_20 
ROOT
ATOM      1  C   LIG d   1      11.145  75.817 114.824  0.00  0.00     0.161 C 
ATOM      2  C   LIG d   1       9.779  76.131 114.915  0.00  0.00     0.016 C 
ATOM      3  C   LIG d   1       9.273  77.445 114.781  0.00  0.00     0.038 C 
ATOM      4  C   LIG d   1      10.089  78.518 114.394  0.00  0.00     0.028 C 
ATOM      5  C   LIG d   1      11.551  78.339 114.785  0.00  0.00    -0.047 C 
ATOM      6  C   LIG d   1      12.038  76.957 114.292  0.00  0.00     0.091 C 
ENDROOT
BRANCH   1   7
ATOM      7  O   LIG d   1      11.321  74.629 114.026  0.00  0.00    -0.368 OA
BRANCH   7   8
ATOM      8  C   LIG d   1      11.701  73.429 114.744  0.00  0.00     0.119 C 
BRANCH   8   9
ATOM      9  C   LIG d   1      10.416  72.621 115.007  0.00  0.00     0.028 C 
ATOM     10  C   LIG d   1      10.695  71.294 115.733  0.00  0.00     0.006 C 
ENDBRANCH   8   9
BRANCH   8  11
ATOM     11  C   LIG d   1      12.261  73.763 116.130  0.00  0.00     0.028 C 
ATOM     12  C   LIG d   1      13.752  73.418 116.269  0.00  0.00     0.006 C 
ENDBRANCH   8  11
ENDBRANCH   7   8
ENDBRANCH   1   7
BRANCH   6  13
ATOM     13  N   LIG d   1      13.435  76.667 114.707  0.00  0.00    -0.311 N 
ATOM     14  C   LIG d   1      14.493  76.895 113.931  0.00  0.00     0.210 C 
ATOM     15  C   LIG d   1      15.841  76.505 114.544  0.00  0.00     0.109 C 
ATOM     16  O   LIG d   1      14.446  77.414 112.805  0.00  0.00    -0.276 OA
ATOM     17  H   LIG d   1      13.567  76.273 115.618  0.00  0.00     0.149 HD
ENDBRANCH   6  13
BRANCH   5  18
ATOM     18  N   LIG d   1      12.310  79.462 114.201  0.00  0.00     0.381 N 
ATOM     19  H   LIG d   1      12.690  80.030 114.931  0.00  0.00    -0.090 HD
ATOM     20  H   LIG d   1      11.684  80.027 113.654  0.00  0.00    -0.090 HD
ATOM     21  H   LIG d   1      13.044  79.114 113.625  0.00  0.00    -0.090 HD
ENDBRANCH   5  18
BRANCH   3  22
ATOM     22  C   LIG d   1       7.942  77.701 115.075  0.00  0.00     0.382 C 
ATOM     23  O   LIG d   1       7.635  78.695 115.777  0.00  0.00    -0.241 OA
ATOM     24  O   LIG d   1       7.048  76.927 114.683  0.00  0.00    -0.241 OA
ENDBRANCH   3  22
TORSDOF 7
ENDMDL
MODEL 7
REMARK VINA RESULT:      -4.6      4.839      7.106
REMARK  7 active torsions:
REMARK  status: ('A' for Active; 'I' for Inactive)
REMARK    1  A    between atoms: C_2  and  C_3 
REMARK    2  A    between atoms: C_3  and  O_6 
REMARK    3  A    between atoms: C_3  and  C_4 
REMARK    4  A    between atoms: C_7  and  O_6 
REMARK    5  A    between atoms: C_9  and  C_10 
REMARK    6  A    between atoms: N_15  and  C_14 
REMARK    7  A    between atoms: N_20  and  C_19 
REMARK       I    between atoms: C_22  and  N_20 
ROOT
ATOM      1  C   LIG d   1      -8.460  78.416 118.384  0.00  0.00     0.161 C 
ATOM      2  C   LIG d   1      -9.694  77.793 118.638  0.00  0.00     0.016 C 
ATOM      3  C   LIG d   1      -9.980  76.456 118.276  0.00  0.00     0.038 C 
ATOM      4  C   LIG d   1      -8.992  75.598 117.769  0.00  0.00     0.028 C 
ATOM      5  C   LIG d   1      -7.876  76.329 117.030  0.00  0.00    -0.047 C 
ATOM      6  C   LIG d   1      -7.335  77.461 117.932  0.00  0.00     0.091 C 
ENDROOT
BRANCH   1   7
ATOM      7  O   LIG d   1      -8.045  79.167 119.542  0.00  0.00    -0.368 OA
BRANCH   7   8
ATOM      8  C   LIG d   1      -8.037  80.608 119.397  0.00  0.00     0.119 C 
BRANCH   8   9
ATOM      9  C   LIG d   1      -8.609  80.937 118.004  0.00  0.00     0.028 C 
ATOM     10  C   LIG d   1      -9.977  81.634 118.081  0.00  0.00     0.006 C 
ENDBRANCH   8   9
BRANCH   8  11
ATOM     11  C   LIG d   1      -6.608  81.160 119.389  0.00  0.00     0.028 C 
ATOM     12  C   LIG d   1      -6.551  82.662 119.072  0.00  0.00     0.006 C 
ENDBRANCH   8  11
ENDBRANCH   7   8
ENDBRANCH   1   7
BRANCH   6  13
ATOM     13  N   LIG d   1      -6.297  78.280 117.253  0.00  0.00    -0.311 N 
ATOM     14  C   LIG d   1      -4.989  78.086 117.413  0.00  0.00     0.210 C 
ATOM     15  C   LIG d   1      -4.092  79.054 116.636  0.00  0.00     0.109 C 
ATOM     16  O   LIG d   1      -4.487  77.184 118.100  0.00  0.00    -0.276 OA
ATOM     17  H   LIG d   1      -6.617  79.015 116.652  0.00  0.00     0.149 HD
ENDBRANCH   6  13
BRANCH   5  18
ATOM     18  N   LIG d   1      -6.849  75.331 116.675  0.00  0.00     0.381 N 
ATOM     19  H   LIG d   1      -6.041  75.458 117.251  0.00  0.00    -0.090 HD
ATOM     20  H   LIG d   1      -6.579  75.470 115.718  0.00  0.00    -0.090 HD
ATOM     21  H   LIG d   1      -7.211  74.411 116.796  0.00  0.00    -0.090 HD
ENDBRANCH   5  18
BRANCH   3  22
ATOM     22  C   LIG d   1     -11.276  75.977 118.385  0.00  0.00     0.382 C 
ATOM     23  O   LIG d   1     -11.496  74.743 118.326  0.00  0.00    -0.241 OA
ATOM     24  O   LIG d   1     -12.234  76.766 118.497  0.00  0.00    -0.241 OA
ENDBRANCH   3  22
TORSDOF 7
ENDMDL
MODEL 8
REMARK VINA RESULT:      -4.6     14.470     16.703
REMARK  7 active torsions:
REMARK  status: ('A' for Active; 'I' for Inactive)
REMARK    1  A    between atoms: C_2  and  C_3 
REMARK    2  A    between atoms: C_3  and  O_6 
REMARK    3  A    between atoms: C_3  and  C_4 
REMARK    4  A    between atoms: C_7  and  O_6 
REMARK    5  A    between atoms: C_9  and  C_10 
REMARK    6  A    between atoms: N_15  and  C_14 
REMARK    7  A    between atoms: N_20  and  C_19 
REMARK       I    between atoms: C_22  and  N_20 
ROOT
ATOM      1  C   LIG d   1       1.452  88.443 115.963  0.00  0.00     0.161 C 
ATOM      2  C   LIG d   1       2.842  88.569 115.803  0.00  0.00     0.016 C 
ATOM      3  C   LIG d   1       3.579  89.689 116.252  0.00  0.00     0.038 C 
ATOM      4  C   LIG d   1       2.994  90.697 117.032  0.00  0.00     0.028 C 
ATOM      5  C   LIG d   1       1.498  90.862 116.786  0.00  0.00    -0.047 C 
ATOM      6  C   LIG d   1       0.814  89.481 116.910  0.00  0.00     0.091 C 
ENDROOT
BRANCH   1   7
ATOM      7  O   LIG d   1       1.129  87.106 116.395  0.00  0.00    -0.368 OA
BRANCH   7   8
ATOM      8  C   LIG d   1       1.607  86.728 117.709  0.00  0.00     0.119 C 
BRANCH   8   9
ATOM      9  C   LIG d   1       2.240  85.329 117.586  0.00  0.00     0.028 C 
ATOM     10  C   LIG d   1       2.458  84.910 116.123  0.00  0.00     0.006 C 
ENDBRANCH   8   9
BRANCH   8  11
ATOM     11  C   LIG d   1       0.448  86.563 118.697  0.00  0.00     0.028 C 
ATOM     12  C   LIG d   1       0.345  85.138 119.262  0.00  0.00     0.006 C 
ENDBRANCH   8  11
ENDBRANCH   7   8
ENDBRANCH   1   7
BRANCH   6  13
ATOM     13  N   LIG d   1      -0.639  89.539 116.601  0.00  0.00    -0.311 N 
ATOM     14  C   LIG d   1      -1.583  89.648 117.534  0.00  0.00     0.210 C 
ATOM     15  C   LIG d   1      -3.019  89.670 117.001  0.00  0.00     0.109 C 
ATOM     16  O   LIG d   1      -1.366  89.761 118.750  0.00  0.00    -0.276 OA
ATOM     17  H   LIG d   1      -0.902  89.485 115.637  0.00  0.00     0.149 HD
ENDBRANCH   6  13
BRANCH   5  18
ATOM     18  N   LIG d   1       0.992  91.847 117.760  0.00  0.00     0.381 N 
ATOM     19  H   LIG d   1       1.297  92.765 117.503  0.00  0.00    -0.090 HD
ATOM     20  H   LIG d   1       1.370  91.632 118.666  0.00  0.00    -0.090 HD
ATOM     21  H   LIG d   1      -0.003  91.816 117.791  0.00  0.00    -0.090 HD
ENDBRANCH   5  18
BRANCH   3  22
ATOM     22  C   LIG d   1       4.910  89.827 115.887  0.00  0.00     0.382 C 
ATOM     23  O   LIG d   1       5.762  90.170 116.741  0.00  0.00    -0.241 OA
ATOM     24  O   LIG d   1       5.261  89.657 114.704  0.00  0.00    -0.241 OA
ENDBRANCH   3  22
TORSDOF 7
ENDMDL
MODEL 9
REMARK VINA RESULT:      -4.6      2.026      2.729
REMARK  7 active torsions:
REMARK  status: ('A' for Active; 'I' for Inactive)
REMARK    1  A    between atoms: C_2  and  C_3 
REMARK    2  A    between atoms: C_3  and  O_6 
REMARK    3  A    between atoms: C_3  and  C_4 
REMARK    4  A    between atoms: C_7  and  O_6 
REMARK    5  A    between atoms: C_9  and  C_10 
REMARK    6  A    between atoms: N_15  and  C_14 
REMARK    7  A    between atoms: N_20  and  C_19 
REMARK       I    between atoms: C_22  and  N_20 
ROOT
ATOM      1  C   LIG d   1      -3.917  74.481 116.307  0.00  0.00     0.161 C 
ATOM      2  C   LIG d   1      -3.381  75.777 116.222  0.00  0.00     0.016 C 
ATOM      3  C   LIG d   1      -4.145  76.950 116.422  0.00  0.00     0.038 C 
ATOM      4  C   LIG d   1      -5.472  76.902 116.873  0.00  0.00     0.028 C 
ATOM      5  C   LIG d   1      -6.198  75.618 116.484  0.00  0.00    -0.047 C 
ATOM      6  C   LIG d   1      -5.336  74.407 116.907  0.00  0.00     0.091 C 
ENDROOT
BRANCH   1   7
ATOM      7  O   LIG d   1      -3.017  73.628 117.041  0.00  0.00    -0.368 OA
BRANCH   7   8
ATOM      8  C   LIG d   1      -1.728  74.198 117.376  0.00  0.00     0.119 C 
BRANCH   8   9
ATOM      9  C   LIG d   1      -0.649  73.340 116.688  0.00  0.00     0.028 C 
ATOM     10  C   LIG d   1      -0.518  73.654 115.188  0.00  0.00     0.006 C 
ENDBRANCH   8   9
BRANCH   8  11
ATOM     11  C   LIG d   1      -1.440  74.084 118.876  0.00  0.00     0.028 C 
ATOM     12  C   LIG d   1      -0.886  72.707 119.274  0.00  0.00     0.006 C 
ENDBRANCH   8  11
ENDBRANCH   7   8
ENDBRANCH   1   7
BRANCH   6  13
ATOM     13  N   LIG d   1      -5.934  73.112 116.488  0.00  0.00    -0.311 N 
ATOM     14  C   LIG d   1      -6.726  72.382 117.272  0.00  0.00     0.210 C 
ATOM     15  C   LIG d   1      -7.219  71.071 116.652  0.00  0.00     0.109 C 
ATOM     16  O   LIG d   1      -7.093  72.712 118.410  0.00  0.00    -0.276 OA
ATOM     17  H   LIG d   1      -5.714  72.784 115.568  0.00  0.00     0.149 HD
ENDBRANCH   6  13
BRANCH   5  18
ATOM     18  N   LIG d   1      -7.522  75.641 117.134  0.00  0.00     0.381 N 
ATOM     19  H   LIG d   1      -7.599  76.449 117.718  0.00  0.00    -0.090 HD
ATOM     20  H   LIG d   1      -7.615  74.824 117.712  0.00  0.00    -0.090 HD
ATOM     21  H   LIG d   1      -8.240  75.651 116.444  0.00  0.00    -0.090 HD
ENDBRANCH   5  18
BRANCH   3  22
ATOM     22  C   LIG d   1      -3.592  78.188 116.132  0.00  0.00     0.382 C 
ATOM     23  O   LIG d   1      -3.483  79.053 117.034  0.00  0.00    -0.241 OA
ATOM     24  O   LIG d   1      -3.242  78.466 114.969  0.00  0.00    -0.241 OA
ENDBRANCH   3  22
TORSDOF 7
ENDMDL
