MODEL 1
REMARK VINA RESULT:      -5.7      0.000      0.000
REMARK  7 active torsions:
REMARK  status: ('A' for Active; 'I' for Inactive)
REMARK    1  A    between atoms: C_2  and  C_3 
REMARK    2  A    between atoms: C_3  and  O_6 
REMARK    3  A    between atoms: C_3  and  C_4 
REMARK    4  A    between atoms: C_7  and  O_6 
REMARK    5  A    between atoms: C_9  and  C_10 
REMARK    6  A    between atoms: N_15  and  C_14 
REMARK    7  A    between atoms: N_20  and  C_19 
REMARK       I    between atoms: C_22  and  N_20 
ROOT
ATOM      1  C   LIG d   1      -4.392  89.934 117.013  0.00  0.00     0.161 C 
ATOM      2  C   LIG d   1      -3.899  88.985 116.102  0.00  0.00     0.016 C 
ATOM      3  C   LIG d   1      -4.644  88.503 115.001  0.00  0.00     0.038 C 
ATOM      4  C   LIG d   1      -5.885  89.054 114.648  0.00  0.00     0.028 C 
ATOM      5  C   LIG d   1      -6.639  89.657 115.828  0.00  0.00    -0.047 C 
ATOM      6  C   LIG d   1      -5.700  90.628 116.580  0.00  0.00     0.091 C 
ENDROOT
BRANCH   1   7
ATOM      7  O   LIG d   1      -3.374  90.915 117.295  0.00  0.00    -0.368 OA
BRANCH   7   8
ATOM      8  C   LIG d   1      -2.798  90.873 118.624  0.00  0.00     0.119 C 
BRANCH   8   9
ATOM      9  C   LIG d   1      -2.608  92.328 119.093  0.00  0.00     0.028 C 
ATOM     10  C   LIG d   1      -2.110  93.248 117.965  0.00  0.00     0.006 C 
ENDBRANCH   8   9
BRANCH   8  11
ATOM     11  C   LIG d   1      -1.392  90.266 118.603  0.00  0.00     0.028 C 
ATOM     12  C   LIG d   1      -1.369  88.800 119.063  0.00  0.00     0.006 C 
ENDBRANCH   8  11
ENDBRANCH   7   8
ENDBRANCH   1   7
BRANCH   6  13
ATOM     13  N   LIG d   1      -6.332  91.198 117.799  0.00  0.00    -0.311 N 
ATOM     14  C   LIG d   1      -6.235  92.480 118.144  0.00  0.00     0.210 C 
ATOM     15  C   LIG d   1      -6.944  92.855 119.448  0.00  0.00     0.109 C 
ATOM     16  O   LIG d   1      -5.655  93.350 117.476  0.00  0.00    -0.276 OA
ATOM     17  H   LIG d   1      -6.848  90.568 118.382  0.00  0.00     0.149 HD
ENDBRANCH   6  13
BRANCH   5  18
ATOM     18  N   LIG d   1      -7.847  90.315 115.297  0.00  0.00     0.381 N 
ATOM     19  H   LIG d   1      -7.860  91.275 115.576  0.00  0.00    -0.090 HD
ATOM     20  H   LIG d   1      -8.658  89.864 115.681  0.00  0.00    -0.090 HD
ATOM     21  H   LIG d   1      -7.861  90.250 114.303  0.00  0.00    -0.090 HD
ENDBRANCH   5  18
BRANCH   3  22
ATOM     22  C   LIG d   1      -4.165  87.431 114.264  0.00  0.00     0.382 C 
ATOM     23  O   LIG d   1      -4.735  87.100 113.196  0.00  0.00    -0.241 OA
ATOM     24  O   LIG d   1      -3.198  86.763 114.676  0.00  0.00    -0.241 OA
ENDBRANCH   3  22
TORSDOF 7
ENDMDL
MODEL 2
REMARK VINA RESULT:      -5.5     12.294     14.893
REMARK  7 active torsions:
REMARK  status: ('A' for Active; 'I' for Inactive)
REMARK    1  A    between atoms: C_2  and  C_3 
REMARK    2  A    between atoms: C_3  and  O_6 
REMARK    3  A    between atoms: C_3  and  C_4 
REMARK    4  A    between atoms: C_7  and  O_6 
REMARK    5  A    between atoms: C_9  and  C_10 
REMARK    6  A    between atoms: N_15  and  C_14 
REMARK    7  A    between atoms: N_20  and  C_19 
REMARK       I    between atoms: C_22  and  N_20 
ROOT
ATOM      1  C   LIG d   1      -5.135  76.383 115.801  0.00  0.00     0.161 C 
ATOM      2  C   LIG d   1      -3.941  75.680 115.571  0.00  0.00     0.016 C 
ATOM      3  C   LIG d   1      -2.825  75.737 116.438  0.00  0.00     0.038 C 
ATOM      4  C   LIG d   1      -2.884  76.386 117.680  0.00  0.00     0.028 C 
ATOM      5  C   LIG d   1      -3.895  77.526 117.721  0.00  0.00    -0.047 C 
ATOM      6  C   LIG d   1      -5.258  77.007 117.207  0.00  0.00     0.091 C 
ENDROOT
BRANCH   1   7
ATOM      7  O   LIG d   1      -6.264  75.529 115.532  0.00  0.00    -0.368 OA
BRANCH   7   8
ATOM      8  C   LIG d   1      -6.559  74.527 116.536  0.00  0.00     0.119 C 
BRANCH   8   9
ATOM      9  C   LIG d   1      -6.357  73.145 115.885  0.00  0.00     0.028 C 
ATOM     10  C   LIG d   1      -7.202  72.050 116.557  0.00  0.00     0.006 C 
ENDBRANCH   8   9
BRANCH   8  11
ATOM     11  C   LIG d   1      -8.033  74.568 116.949  0.00  0.00     0.028 C 
ATOM     12  C   LIG d   1      -8.231  75.009 118.408  0.00  0.00     0.006 C 
ENDBRANCH   8  11
ENDBRANCH   7   8
ENDBRANCH   1   7
BRANCH   6  13
ATOM     13  N   LIG d   1      -6.283  78.081 117.135  0.00  0.00    -0.311 N 
ATOM     14  C   LIG d   1      -7.034  78.448 118.171  0.00  0.00     0.210 C 
ATOM     15  C   LIG d   1      -8.043  79.562 117.876  0.00  0.00     0.109 C 
ATOM     16  O   LIG d   1      -6.938  77.980 119.316  0.00  0.00    -0.276 OA
ATOM     17  H   LIG d   1      -6.405  78.536 116.251  0.00  0.00     0.149 HD
ENDBRANCH   6  13
BRANCH   5  18
ATOM     18  N   LIG d   1      -3.952  78.022 119.109  0.00  0.00     0.381 N 
ATOM     19  H   LIG d   1      -3.339  77.483 119.687  0.00  0.00    -0.090 HD
ATOM     20  H   LIG d   1      -4.889  77.913 119.455  0.00  0.00    -0.090 HD
ATOM     21  H   LIG d   1      -3.689  78.983 119.139  0.00  0.00    -0.090 HD
ENDBRANCH   5  18
BRANCH   3  22
ATOM     22  C   LIG d   1      -1.621  75.173 116.045  0.00  0.00     0.382 C 
ATOM     23  O   LIG d   1      -1.167  75.400 114.898  0.00  0.00    -0.241 OA
ATOM     24  O   LIG d   1      -1.004  74.405 116.808  0.00  0.00    -0.241 OA
ENDBRANCH   3  22
TORSDOF 7
ENDMDL
MODEL 3
REMARK VINA RESULT:      -5.5     12.201     14.793
REMARK  7 active torsions:
REMARK  status: ('A' for Active; 'I' for Inactive)
REMARK    1  A    between atoms: C_2  and  C_3 
REMARK    2  A    between atoms: C_3  and  O_6 
REMARK    3  A    between atoms: C_3  and  C_4 
REMARK    4  A    between atoms: C_7  and  O_6 
REMARK    5  A    between atoms: C_9  and  C_10 
REMARK    6  A    between atoms: N_15  and  C_14 
REMARK    7  A    between atoms: N_20  and  C_19 
REMARK       I    between atoms: C_22  and  N_20 
ROOT
ATOM      1  C   LIG d   1      -6.741  76.890 116.928  0.00  0.00     0.161 C 
ATOM      2  C   LIG d   1      -6.857  78.270 117.160  0.00  0.00     0.016 C 
ATOM      3  C   LIG d   1      -7.838  78.837 118.006  0.00  0.00     0.038 C 
ATOM      4  C   LIG d   1      -8.680  78.045 118.799  0.00  0.00     0.028 C 
ATOM      5  C   LIG d   1      -8.936  76.659 118.215  0.00  0.00    -0.047 C 
ATOM      6  C   LIG d   1      -7.579  76.002 117.871  0.00  0.00     0.091 C 
ENDROOT
BRANCH   1   7
ATOM      7  O   LIG d   1      -5.354  76.501 116.976  0.00  0.00    -0.368 OA
BRANCH   7   8
ATOM      8  C   LIG d   1      -4.633  76.554 115.720  0.00  0.00     0.119 C 
BRANCH   8   9
ATOM      9  C   LIG d   1      -5.507  75.863 114.656  0.00  0.00     0.028 C 
ATOM     10  C   LIG d   1      -5.316  74.337 114.639  0.00  0.00     0.006 C 
ENDBRANCH   8   9
BRANCH   8  11
ATOM     11  C   LIG d   1      -3.343  75.730 115.783  0.00  0.00     0.028 C 
ATOM     12  C   LIG d   1      -2.482  76.064 117.012  0.00  0.00     0.006 C 
ENDBRANCH   8  11
ENDBRANCH   7   8
ENDBRANCH   1   7
BRANCH   6  13
ATOM     13  N   LIG d   1      -7.741  74.678 117.217  0.00  0.00    -0.311 N 
ATOM     14  C   LIG d   1      -7.848  73.535 117.892  0.00  0.00     0.210 C 
ATOM     15  C   LIG d   1      -7.987  72.281 117.023  0.00  0.00     0.109 C 
ATOM     16  O   LIG d   1      -7.873  73.443 119.129  0.00  0.00    -0.276 OA
ATOM     17  H   LIG d   1      -7.762  74.663 116.216  0.00  0.00     0.149 HD
ENDBRANCH   6  13
BRANCH   5  18
ATOM     18  N   LIG d   1      -9.713  75.894 119.208  0.00  0.00     0.381 N 
ATOM     19  H   LIG d   1     -10.538  75.523 118.779  0.00  0.00    -0.090 HD
ATOM     20  H   LIG d   1      -9.994  76.512 119.949  0.00  0.00    -0.090 HD
ATOM     21  H   LIG d   1      -9.160  75.152 119.576  0.00  0.00    -0.090 HD
ENDBRANCH   5  18
BRANCH   3  22
ATOM     22  C   LIG d   1      -8.010  80.213 118.032  0.00  0.00     0.382 C 
ATOM     23  O   LIG d   1      -8.368  80.820 116.994  0.00  0.00    -0.241 OA
ATOM     24  O   LIG d   1      -7.770  80.860 119.069  0.00  0.00    -0.241 OA
ENDBRANCH   3  22
TORSDOF 7
ENDMDL
MODEL 4
REMARK VINA RESULT:      -4.8     17.758     20.380
REMARK  7 active torsions:
REMARK  status: ('A' for Active; 'I' for Inactive)
REMARK    1  A    between atoms: C_2  and  C_3 
REMARK    2  A    between atoms: C_3  and  O_6 
REMARK    3  A    between atoms: C_3  and  C_4 
REMARK    4  A    between atoms: C_7  and  O_6 
REMARK    5  A    between atoms: C_9  and  C_10 
REMARK    6  A    between atoms: N_15  and  C_14 
REMARK    7  A    between atoms: N_20  and  C_19 
REMARK       I    between atoms: C_22  and  N_20 
ROOT
ATOM      1  C   LIG d   1      11.421  79.338 114.196  0.00  0.00     0.161 C 
ATOM      2  C   LIG d   1      10.133  79.678 114.641  0.00  0.00     0.016 C 
ATOM      3  C   LIG d   1       9.206  78.732 115.135  0.00  0.00     0.038 C 
ATOM      4  C   LIG d   1       9.561  77.393 115.361  0.00  0.00     0.028 C 
ATOM      5  C   LIG d   1      10.686  76.905 114.455  0.00  0.00    -0.047 C 
ATOM      6  C   LIG d   1      11.865  77.901 114.538  0.00  0.00     0.091 C 
ENDROOT
BRANCH   1   7
ATOM      7  O   LIG d   1      12.379  80.291 114.699  0.00  0.00    -0.368 OA
BRANCH   7   8
ATOM      8  C   LIG d   1      12.875  80.050 116.038  0.00  0.00     0.119 C 
BRANCH   8   9
ATOM      9  C   LIG d   1      12.430  81.234 116.918  0.00  0.00     0.028 C 
ATOM     10  C   LIG d   1      11.311  80.848 117.899  0.00  0.00     0.006 C 
ENDBRANCH   8   9
BRANCH   8  11
ATOM     11  C   LIG d   1      14.406  80.069 116.077  0.00  0.00     0.028 C 
ATOM     12  C   LIG d   1      15.034  80.335 114.699  0.00  0.00     0.006 C 
ENDBRANCH   8  11
ENDBRANCH   7   8
ENDBRANCH   1   7
BRANCH   6  13
ATOM     13  N   LIG d   1      12.976  77.542 113.618  0.00  0.00    -0.311 N 
ATOM     14  C   LIG d   1      14.059  76.870 114.003  0.00  0.00     0.210 C 
ATOM     15  C   LIG d   1      15.093  76.622 112.900  0.00  0.00     0.109 C 
ATOM     16  O   LIG d   1      14.248  76.427 115.146  0.00  0.00    -0.276 OA
ATOM     17  H   LIG d   1      12.891  77.835 112.664  0.00  0.00     0.149 HD
ENDBRANCH   6  13
BRANCH   5  18
ATOM     18  N   LIG d   1      11.048  75.542 114.889  0.00  0.00     0.381 N 
ATOM     19  H   LIG d   1      11.982  75.331 114.599  0.00  0.00    -0.090 HD
ATOM     20  H   LIG d   1      10.425  74.886 114.452  0.00  0.00    -0.090 HD
ATOM     21  H   LIG d   1      10.976  75.470 115.880  0.00  0.00    -0.090 HD
ENDBRANCH   5  18
BRANCH   3  22
ATOM     22  C   LIG d   1       7.894  79.114 115.372  0.00  0.00     0.382 C 
ATOM     23  O   LIG d   1       7.624  79.859 116.345  0.00  0.00    -0.241 OA
ATOM     24  O   LIG d   1       6.972  78.687 114.652  0.00  0.00    -0.241 OA
ENDBRANCH   3  22
TORSDOF 7
ENDMDL
MODEL 5
REMARK VINA RESULT:      -4.6     19.003     21.338
REMARK  7 active torsions:
REMARK  status: ('A' for Active; 'I' for Inactive)
REMARK    1  A    between atoms: C_2  and  C_3 
REMARK    2  A    between atoms: C_3  and  O_6 
REMARK    3  A    between atoms: C_3  and  C_4 
REMARK    4  A    between atoms: C_7  and  O_6 
REMARK    5  A    between atoms: C_9  and  C_10 
REMARK    6  A    between atoms: N_15  and  C_14 
REMARK    7  A    between atoms: N_20  and  C_19 
REMARK       I    between atoms: C_22  and  N_20 
ROOT
ATOM      1  C   LIG d   1     -23.627  83.460 113.744  0.00  0.00     0.161 C 
ATOM      2  C   LIG d   1     -22.735  84.526 113.952  0.00  0.00     0.016 C 
ATOM      3  C   LIG d   1     -23.153  85.858 114.175  0.00  0.00     0.038 C 
ATOM      4  C   LIG d   1     -24.504  86.191 114.357  0.00  0.00     0.028 C 
ATOM      5  C   LIG d   1     -25.463  85.236 113.655  0.00  0.00    -0.047 C 
ATOM      6  C   LIG d   1     -25.105  83.785 114.049  0.00  0.00     0.091 C 
ENDROOT
BRANCH   1   7
ATOM      7  O   LIG d   1     -23.200  82.311 114.501  0.00  0.00    -0.368 OA
BRANCH   7   8
ATOM      8  C   LIG d   1     -23.405  82.379 115.934  0.00  0.00     0.119 C 
BRANCH   8   9
ATOM      9  C   LIG d   1     -22.020  82.286 116.604  0.00  0.00     0.028 C 
ATOM     10  C   LIG d   1     -22.085  82.533 118.121  0.00  0.00     0.006 C 
ENDBRANCH   8   9
BRANCH   8  11
ATOM     11  C   LIG d   1     -24.185  81.164 116.444  0.00  0.00     0.028 C 
ATOM     12  C   LIG d   1     -24.316  80.054 115.388  0.00  0.00     0.006 C 
ENDBRANCH   8  11
ENDBRANCH   7   8
ENDBRANCH   1   7
BRANCH   6  13
ATOM     13  N   LIG d   1     -25.941  82.781 113.341  0.00  0.00    -0.311 N 
ATOM     14  C   LIG d   1     -27.014  82.207 113.882  0.00  0.00     0.210 C 
ATOM     15  C   LIG d   1     -27.722  81.185 112.987  0.00  0.00     0.109 C 
ATOM     16  O   LIG d   1     -27.465  82.470 115.007  0.00  0.00    -0.276 OA
ATOM     17  H   LIG d   1     -25.665  82.532 112.411  0.00  0.00     0.149 HD
ENDBRANCH   6  13
BRANCH   5  18
ATOM     18  N   LIG d   1     -26.834  85.618 114.040  0.00  0.00     0.381 N 
ATOM     19  H   LIG d   1     -27.457  84.851 113.883  0.00  0.00    -0.090 HD
ATOM     20  H   LIG d   1     -27.131  86.387 113.466  0.00  0.00    -0.090 HD
ATOM     21  H   LIG d   1     -26.857  85.882 115.001  0.00  0.00    -0.090 HD
ENDBRANCH   5  18
BRANCH   3  22
ATOM     22  C   LIG d   1     -22.216  86.880 114.178  0.00  0.00     0.382 C 
ATOM     23  O   LIG d   1     -21.184  86.787 113.471  0.00  0.00    -0.241 OA
ATOM     24  O   LIG d   1     -22.369  87.874 114.913  0.00  0.00    -0.241 OA
ENDBRANCH   3  22
TORSDOF 7
ENDMDL
MODEL 6
REMARK VINA RESULT:      -4.5      5.724      8.473
REMARK  7 active torsions:
REMARK  status: ('A' for Active; 'I' for Inactive)
REMARK    1  A    between atoms: C_2  and  C_3 
REMARK    2  A    between atoms: C_3  and  O_6 
REMARK    3  A    between atoms: C_3  and  C_4 
REMARK    4  A    between atoms: C_7  and  O_6 
REMARK    5  A    between atoms: C_9  and  C_10 
REMARK    6  A    between atoms: N_15  and  C_14 
REMARK    7  A    between atoms: N_20  and  C_19 
REMARK       I    between atoms: C_22  and  N_20 
ROOT
ATOM      1  C   LIG d   1       1.765  88.023 115.945  0.00  0.00     0.161 C 
ATOM      2  C   LIG d   1       0.671  87.876 116.814  0.00  0.00     0.016 C 
ATOM      3  C   LIG d   1       0.197  88.913 117.650  0.00  0.00     0.038 C 
ATOM      4  C   LIG d   1       0.694  90.222 117.562  0.00  0.00     0.028 C 
ATOM      5  C   LIG d   1       2.133  90.291 117.062  0.00  0.00    -0.047 C 
ATOM      6  C   LIG d   1       2.249  89.475 115.754  0.00  0.00     0.091 C 
ENDROOT
BRANCH   1   7
ATOM      7  O   LIG d   1       1.459  87.425 114.669  0.00  0.00    -0.368 OA
BRANCH   7   8
ATOM      8  C   LIG d   1       1.175  86.004 114.683  0.00  0.00     0.119 C 
BRANCH   8   9
ATOM      9  C   LIG d   1       2.289  85.303 113.882  0.00  0.00     0.028 C 
ATOM     10  C   LIG d   1       2.902  86.215 112.805  0.00  0.00     0.006 C 
ENDBRANCH   8   9
BRANCH   8  11
ATOM     11  C   LIG d   1      -0.123  85.688 113.934  0.00  0.00     0.028 C 
ATOM     12  C   LIG d   1      -1.301  85.401 114.880  0.00  0.00     0.006 C 
ENDBRANCH   8  11
ENDBRANCH   7   8
ENDBRANCH   1   7
BRANCH   6  13
ATOM     13  N   LIG d   1       3.643  89.421 115.242  0.00  0.00    -0.311 N 
ATOM     14  C   LIG d   1       3.961  89.599 113.961  0.00  0.00     0.210 C 
ATOM     15  C   LIG d   1       5.455  89.482 113.643  0.00  0.00     0.109 C 
ATOM     16  O   LIG d   1       3.151  89.875 113.063  0.00  0.00    -0.276 OA
ATOM     17  H   LIG d   1       4.367  89.233 115.908  0.00  0.00     0.149 HD
ENDBRANCH   6  13
BRANCH   5  18
ATOM     18  N   LIG d   1       2.476  91.715 116.888  0.00  0.00     0.381 N 
ATOM     19  H   LIG d   1       3.440  91.861 117.111  0.00  0.00    -0.090 HD
ATOM     20  H   LIG d   1       1.920  92.263 117.519  0.00  0.00    -0.090 HD
ATOM     21  H   LIG d   1       2.300  91.996 115.948  0.00  0.00    -0.090 HD
ENDBRANCH   5  18
BRANCH   3  22
ATOM     22  C   LIG d   1      -0.759  88.635 118.615  0.00  0.00     0.382 C 
ATOM     23  O   LIG d   1      -0.644  87.614 119.336  0.00  0.00    -0.241 OA
ATOM     24  O   LIG d   1      -1.758  89.368 118.745  0.00  0.00    -0.241 OA
ENDBRANCH   3  22
TORSDOF 7
ENDMDL
MODEL 7
REMARK VINA RESULT:      -4.5      6.059      8.348
REMARK  7 active torsions:
REMARK  status: ('A' for Active; 'I' for Inactive)
REMARK    1  A    between atoms: C_2  and  C_3 
REMARK    2  A    between atoms: C_3  and  O_6 
REMARK    3  A    between atoms: C_3  and  C_4 
REMARK    4  A    between atoms: C_7  and  O_6 
REMARK    5  A    between atoms: C_9  and  C_10 
REMARK    6  A    between atoms: N_15  and  C_14 
REMARK    7  A    between atoms: N_20  and  C_19 
REMARK       I    between atoms: C_22  and  N_20 
ROOT
ATOM      1  C   LIG d   1       1.907  87.562 115.393  0.00  0.00     0.161 C 
ATOM      2  C   LIG d   1       3.013  88.081 114.700  0.00  0.00     0.016 C 
ATOM      3  C   LIG d   1       3.449  89.421 114.822  0.00  0.00     0.038 C 
ATOM      4  C   LIG d   1       2.896  90.297 115.766  0.00  0.00     0.028 C 
ATOM      5  C   LIG d   1       1.451  89.967 116.126  0.00  0.00    -0.047 C 
ATOM      6  C   LIG d   1       1.359  88.473 116.511  0.00  0.00     0.091 C 
ENDROOT
BRANCH   1   7
ATOM      7  O   LIG d   1       2.228  86.259 115.920  0.00  0.00    -0.368 OA
BRANCH   7   8
ATOM      8  C   LIG d   1       1.574  85.135 115.281  0.00  0.00     0.119 C 
BRANCH   8   9
ATOM      9  C   LIG d   1       2.638  84.390 114.453  0.00  0.00     0.028 C 
ATOM     10  C   LIG d   1       2.584  84.758 112.961  0.00  0.00     0.006 C 
ENDBRANCH   8   9
BRANCH   8  11
ATOM     11  C   LIG d   1       0.525  85.603 114.267  0.00  0.00     0.028 C 
ATOM     12  C   LIG d   1      -0.902  85.180 114.649  0.00  0.00     0.006 C 
ENDBRANCH   8  11
ENDBRANCH   7   8
ENDBRANCH   1   7
BRANCH   6  13
ATOM     13  N   LIG d   1      -0.036  88.046 116.796  0.00  0.00    -0.311 N 
ATOM     14  C   LIG d   1      -0.379  87.328 117.864  0.00  0.00     0.210 C 
ATOM     15  C   LIG d   1      -1.867  86.978 117.957  0.00  0.00     0.109 C 
ATOM     16  O   LIG d   1       0.403  86.975 118.760  0.00  0.00    -0.276 OA
ATOM     17  H   LIG d   1      -0.739  88.316 116.137  0.00  0.00     0.149 HD
ENDBRANCH   6  13
BRANCH   5  18
ATOM     18  N   LIG d   1       1.046  90.872 117.218  0.00  0.00     0.381 N 
ATOM     19  H   LIG d   1       0.929  90.351 118.064  0.00  0.00    -0.090 HD
ATOM     20  H   LIG d   1       0.164  91.291 116.982  0.00  0.00    -0.090 HD
ATOM     21  H   LIG d   1       1.734  91.580 117.348  0.00  0.00    -0.090 HD
ENDBRANCH   5  18
BRANCH   3  22
ATOM     22  C   LIG d   1       4.424  89.907 113.964  0.00  0.00     0.382 C 
ATOM     23  O   LIG d   1       5.637  89.796 114.266  0.00  0.00    -0.241 OA
ATOM     24  O   LIG d   1       4.105  90.493 112.913  0.00  0.00    -0.241 OA
ENDBRANCH   3  22
TORSDOF 7
ENDMDL
MODEL 8
REMARK VINA RESULT:      -4.3      8.197     10.427
REMARK  7 active torsions:
REMARK  status: ('A' for Active; 'I' for Inactive)
REMARK    1  A    between atoms: C_2  and  C_3 
REMARK    2  A    between atoms: C_3  and  O_6 
REMARK    3  A    between atoms: C_3  and  C_4 
REMARK    4  A    between atoms: C_7  and  O_6 
REMARK    5  A    between atoms: C_9  and  C_10 
REMARK    6  A    between atoms: N_15  and  C_14 
REMARK    7  A    between atoms: N_20  and  C_19 
REMARK       I    between atoms: C_22  and  N_20 
ROOT
ATOM      1  C   LIG d   1       2.561  86.246 114.221  0.00  0.00     0.161 C 
ATOM      2  C   LIG d   1       2.989  87.506 113.770  0.00  0.00     0.016 C 
ATOM      3  C   LIG d   1       3.991  88.265 114.417  0.00  0.00     0.038 C 
ATOM      4  C   LIG d   1       4.745  87.745 115.480  0.00  0.00     0.028 C 
ATOM      5  C   LIG d   1       4.005  86.681 116.284  0.00  0.00    -0.047 C 
ATOM      6  C   LIG d   1       3.449  85.614 115.314  0.00  0.00     0.091 C 
ENDROOT
BRANCH   1   7
ATOM      7  O   LIG d   1       2.427  85.346 113.103  0.00  0.00    -0.368 OA
BRANCH   7   8
ATOM      8  C   LIG d   1       1.082  84.897 112.805  0.00  0.00     0.119 C 
BRANCH   8   9
ATOM      9  C   LIG d   1       0.117  85.698 113.700  0.00  0.00     0.028 C 
ATOM     10  C   LIG d   1      -0.892  84.796 114.431  0.00  0.00     0.006 C 
ENDBRANCH   8   9
BRANCH   8  11
ATOM     11  C   LIG d   1       0.883  83.431 113.204  0.00  0.00     0.028 C 
ATOM     12  C   LIG d   1       2.074  82.541 112.816  0.00  0.00     0.006 C 
ENDBRANCH   8  11
ENDBRANCH   7   8
ENDBRANCH   1   7
BRANCH   6  13
ATOM     13  N   LIG d   1       2.639  84.581 116.010  0.00  0.00    -0.311 N 
ATOM     14  C   LIG d   1       3.117  83.388 116.361  0.00  0.00     0.210 C 
ATOM     15  C   LIG d   1       2.108  82.465 117.052  0.00  0.00     0.109 C 
ATOM     16  O   LIG d   1       4.289  83.020 116.195  0.00  0.00    -0.276 OA
ATOM     17  H   LIG d   1       1.685  84.809 116.212  0.00  0.00     0.149 HD
ENDBRANCH   6  13
BRANCH   5  18
ATOM     18  N   LIG d   1       4.952  86.129 117.271  0.00  0.00     0.381 N 
ATOM     19  H   LIG d   1       4.620  86.309 118.197  0.00  0.00    -0.090 HD
ATOM     20  H   LIG d   1       5.840  86.585 117.159  0.00  0.00    -0.090 HD
ATOM     21  H   LIG d   1       5.055  85.148 117.132  0.00  0.00    -0.090 HD
ENDBRANCH   5  18
BRANCH   3  22
ATOM     22  C   LIG d   1       4.220  89.575 114.027  0.00  0.00     0.382 C 
ATOM     23  O   LIG d   1       3.500  90.101 113.144  0.00  0.00    -0.241 OA
ATOM     24  O   LIG d   1       5.165  90.224 114.514  0.00  0.00    -0.241 OA
ENDBRANCH   3  22
TORSDOF 7
ENDMDL
MODEL 9
REMARK VINA RESULT:      -4.3      2.909      5.030
REMARK  7 active torsions:
REMARK  status: ('A' for Active; 'I' for Inactive)
REMARK    1  A    between atoms: C_2  and  C_3 
REMARK    2  A    between atoms: C_3  and  O_6 
REMARK    3  A    between atoms: C_3  and  C_4 
REMARK    4  A    between atoms: C_7  and  O_6 
REMARK    5  A    between atoms: C_9  and  C_10 
REMARK    6  A    between atoms: N_15  and  C_14 
REMARK    7  A    between atoms: N_20  and  C_19 
REMARK       I    between atoms: C_22  and  N_20 
ROOT
ATOM      1  C   LIG d   1      -2.586  89.152 117.473  0.00  0.00     0.161 C 
ATOM      2  C   LIG d   1      -3.853  88.962 116.896  0.00  0.00     0.016 C 
ATOM      3  C   LIG d   1      -4.740  90.023 116.600  0.00  0.00     0.038 C 
ATOM      4  C   LIG d   1      -4.356  91.366 116.722  0.00  0.00     0.028 C 
ATOM      5  C   LIG d   1      -3.275  91.594 117.773  0.00  0.00    -0.047 C 
ATOM      6  C   LIG d   1      -2.106  90.618 117.510  0.00  0.00     0.091 C 
ENDROOT
BRANCH   1   7
ATOM      7  O   LIG d   1      -1.616  88.323 116.803  0.00  0.00    -0.368 OA
BRANCH   7   8
ATOM      8  C   LIG d   1      -1.818  86.892 116.908  0.00  0.00     0.119 C 
BRANCH   8   9
ATOM      9  C   LIG d   1      -1.522  86.490 118.366  0.00  0.00     0.028 C 
ATOM     10  C   LIG d   1      -0.550  85.302 118.462  0.00  0.00     0.006 C 
ENDBRANCH   8   9
BRANCH   8  11
ATOM     11  C   LIG d   1      -0.801  86.122 116.061  0.00  0.00     0.028 C 
ATOM     12  C   LIG d   1      -1.449  85.378 114.883  0.00  0.00     0.006 C 
ENDBRANCH   8  11
ENDBRANCH   7   8
ENDBRANCH   1   7
BRANCH   6  13
ATOM     13  N   LIG d   1      -1.042  90.716 118.543  0.00  0.00    -0.311 N 
ATOM     14  C   LIG d   1       0.083  91.408 118.372  0.00  0.00     0.210 C 
ATOM     15  C   LIG d   1       1.056  91.362 119.555  0.00  0.00     0.109 C 
ATOM     16  O   LIG d   1       0.354  92.082 117.367  0.00  0.00    -0.276 OA
ATOM     17  H   LIG d   1      -1.193  90.225 119.402  0.00  0.00     0.149 HD
ENDBRANCH   6  13
BRANCH   5  18
ATOM     18  N   LIG d   1      -2.873  93.011 117.698  0.00  0.00     0.381 N 
ATOM     19  H   LIG d   1      -1.877  93.084 117.760  0.00  0.00    -0.090 HD
ATOM     20  H   LIG d   1      -3.274  93.505 118.476  0.00  0.00    -0.090 HD
ATOM     21  H   LIG d   1      -3.190  93.411 116.843  0.00  0.00    -0.090 HD
ENDBRANCH   5  18
BRANCH   3  22
ATOM     22  C   LIG d   1      -6.042  89.742 116.214  0.00  0.00     0.382 C 
ATOM     23  O   LIG d   1      -6.359  88.575 115.878  0.00  0.00    -0.241 OA
ATOM     24  O   LIG d   1      -6.893  90.650 116.155  0.00  0.00    -0.241 OA
ENDBRANCH   3  22
TORSDOF 7
ENDMDL
