MODEL 1
REMARK VINA RESULT:      -5.6      0.000      0.000
REMARK  7 active torsions:
REMARK  status: ('A' for Active; 'I' for Inactive)
REMARK    1  A    between atoms: C_2  and  C_3 
REMARK    2  A    between atoms: C_3  and  O_6 
REMARK    3  A    between atoms: C_3  and  C_4 
REMARK    4  A    between atoms: C_7  and  O_6 
REMARK    5  A    between atoms: C_9  and  C_10 
REMARK    6  A    between atoms: N_15  and  C_14 
REMARK    7  A    between atoms: N_20  and  C_19 
REMARK       I    between atoms: C_22  and  N_20 
ROOT
ATOM      1  C   LIG d   1       1.492  88.695 115.736  0.00  0.00     0.161 C 
ATOM      2  C   LIG d   1       0.220  88.872 116.304  0.00  0.00     0.016 C 
ATOM      3  C   LIG d   1      -0.112  89.958 117.147  0.00  0.00     0.038 C 
ATOM      4  C   LIG d   1       0.769  91.029 117.357  0.00  0.00     0.028 C 
ATOM      5  C   LIG d   1       2.238  90.643 117.212  0.00  0.00    -0.047 C 
ATOM      6  C   LIG d   1       2.433  89.911 115.864  0.00  0.00     0.091 C 
ENDROOT
BRANCH   1   7
ATOM      7  O   LIG d   1       1.360  88.307 114.354  0.00  0.00    -0.368 OA
BRANCH   7   8
ATOM      8  C   LIG d   1       1.672  86.926 114.047  0.00  0.00     0.119 C 
BRANCH   8   9
ATOM      9  C   LIG d   1       2.586  86.923 112.805  0.00  0.00     0.028 C 
ATOM     10  C   LIG d   1       3.945  86.257 113.078  0.00  0.00     0.006 C 
ENDBRANCH   8   9
BRANCH   8  11
ATOM     11  C   LIG d   1       0.419  86.151 113.630  0.00  0.00     0.028 C 
ATOM     12  C   LIG d   1       0.614  84.627 113.687  0.00  0.00     0.006 C 
ENDBRANCH   8  11
ENDBRANCH   7   8
ENDBRANCH   1   7
BRANCH   6  13
ATOM     13  N   LIG d   1       3.825  89.424 115.680  0.00  0.00    -0.311 N 
ATOM     14  C   LIG d   1       4.538  89.643 114.577  0.00  0.00     0.210 C 
ATOM     15  C   LIG d   1       5.945  89.037 114.585  0.00  0.00     0.109 C 
ATOM     16  O   LIG d   1       4.151  90.310 113.605  0.00  0.00    -0.276 OA
ATOM     17  H   LIG d   1       4.229  88.901 116.432  0.00  0.00     0.149 HD
ENDBRANCH   6  13
BRANCH   5  18
ATOM     18  N   LIG d   1       3.036  91.879 117.319  0.00  0.00     0.381 N 
ATOM     19  H   LIG d   1       3.871  91.791 116.775  0.00  0.00    -0.090 HD
ATOM     20  H   LIG d   1       3.299  92.013 118.280  0.00  0.00    -0.090 HD
ATOM     21  H   LIG d   1       2.503  92.658 117.001  0.00  0.00    -0.090 HD
ENDBRANCH   5  18
BRANCH   3  22
ATOM     22  C   LIG d   1      -1.323  89.960 117.821  0.00  0.00     0.382 C 
ATOM     23  O   LIG d   1      -2.334  89.433 117.296  0.00  0.00    -0.241 OA
ATOM     24  O   LIG d   1      -1.429  90.520 118.929  0.00  0.00    -0.241 OA
ENDBRANCH   3  22
TORSDOF 7
ENDMDL
MODEL 2
REMARK VINA RESULT:      -5.6     12.171     14.113
REMARK  7 active torsions:
REMARK  status: ('A' for Active; 'I' for Inactive)
REMARK    1  A    between atoms: C_2  and  C_3 
REMARK    2  A    between atoms: C_3  and  O_6 
REMARK    3  A    between atoms: C_3  and  C_4 
REMARK    4  A    between atoms: C_7  and  O_6 
REMARK    5  A    between atoms: C_9  and  C_10 
REMARK    6  A    between atoms: N_15  and  C_14 
REMARK    7  A    between atoms: N_20  and  C_19 
REMARK       I    between atoms: C_22  and  N_20 
ROOT
ATOM      1  C   LIG d   1      -6.922  77.345 116.980  0.00  0.00     0.161 C 
ATOM      2  C   LIG d   1      -8.224  77.738 117.331  0.00  0.00     0.016 C 
ATOM      3  C   LIG d   1      -8.562  79.057 117.711  0.00  0.00     0.038 C 
ATOM      4  C   LIG d   1      -7.644  80.114 117.620  0.00  0.00     0.028 C 
ATOM      5  C   LIG d   1      -6.192  79.668 117.754  0.00  0.00    -0.047 C 
ATOM      6  C   LIG d   1      -5.930  78.507 116.767  0.00  0.00     0.091 C 
ENDROOT
BRANCH   1   7
ATOM      7  O   LIG d   1      -6.965  76.502 115.811  0.00  0.00    -0.368 OA
BRANCH   7   8
ATOM      8  C   LIG d   1      -6.419  75.169 115.966  0.00  0.00     0.119 C 
BRANCH   8   9
ATOM      9  C   LIG d   1      -5.772  74.775 114.625  0.00  0.00     0.028 C 
ATOM     10  C   LIG d   1      -5.639  75.969 113.664  0.00  0.00     0.006 C 
ENDBRANCH   8   9
BRANCH   8  11
ATOM     11  C   LIG d   1      -7.527  74.137 116.200  0.00  0.00     0.028 C 
ATOM     12  C   LIG d   1      -7.140  72.729 115.722  0.00  0.00     0.006 C 
ENDBRANCH   8  11
ENDBRANCH   7   8
ENDBRANCH   1   7
BRANCH   6  13
ATOM     13  N   LIG d   1      -4.556  77.955 116.893  0.00  0.00    -0.311 N 
ATOM     14  C   LIG d   1      -3.627  78.078 115.946  0.00  0.00     0.210 C 
ATOM     15  C   LIG d   1      -2.283  77.418 116.269  0.00  0.00     0.109 C 
ATOM     16  O   LIG d   1      -3.779  78.698 114.883  0.00  0.00    -0.276 OA
ATOM     17  H   LIG d   1      -4.338  77.463 117.737  0.00  0.00     0.149 HD
ENDBRANCH   6  13
BRANCH   5  18
ATOM     18  N   LIG d   1      -5.339  80.845 117.502  0.00  0.00     0.381 N 
ATOM     19  H   LIG d   1      -5.868  81.551 117.030  0.00  0.00    -0.090 HD
ATOM     20  H   LIG d   1      -4.576  80.572 116.907  0.00  0.00    -0.090 HD
ATOM     21  H   LIG d   1      -4.988  81.202 118.363  0.00  0.00    -0.090 HD
ENDBRANCH   5  18
BRANCH   3  22
ATOM     22  C   LIG d   1      -9.822  79.322 118.228  0.00  0.00     0.382 C 
ATOM     23  O   LIG d   1     -10.752  78.496 118.065  0.00  0.00    -0.241 OA
ATOM     24  O   LIG d   1     -10.050  80.396 118.816  0.00  0.00    -0.241 OA
ENDBRANCH   3  22
TORSDOF 7
ENDMDL
MODEL 3
REMARK VINA RESULT:      -5.3     11.707     14.155
REMARK  7 active torsions:
REMARK  status: ('A' for Active; 'I' for Inactive)
REMARK    1  A    between atoms: C_2  and  C_3 
REMARK    2  A    between atoms: C_3  and  O_6 
REMARK    3  A    between atoms: C_3  and  C_4 
REMARK    4  A    between atoms: C_7  and  O_6 
REMARK    5  A    between atoms: C_9  and  C_10 
REMARK    6  A    between atoms: N_15  and  C_14 
REMARK    7  A    between atoms: N_20  and  C_19 
REMARK       I    between atoms: C_22  and  N_20 
ROOT
ATOM      1  C   LIG d   1      -6.454  77.084 116.238  0.00  0.00     0.161 C 
ATOM      2  C   LIG d   1      -7.788  76.642 116.219  0.00  0.00     0.016 C 
ATOM      3  C   LIG d   1      -8.828  77.277 116.936  0.00  0.00     0.038 C 
ATOM      4  C   LIG d   1      -8.632  78.495 117.604  0.00  0.00     0.028 C 
ATOM      5  C   LIG d   1      -7.195  78.708 118.067  0.00  0.00    -0.047 C 
ATOM      6  C   LIG d   1      -6.243  78.475 116.871  0.00  0.00     0.091 C 
ENDROOT
BRANCH   1   7
ATOM      7  O   LIG d   1      -5.911  77.053 114.904  0.00  0.00    -0.368 OA
BRANCH   7   8
ATOM      8  C   LIG d   1      -4.784  76.166 114.694  0.00  0.00     0.119 C 
BRANCH   8   9
ATOM      9  C   LIG d   1      -3.741  76.932 113.858  0.00  0.00     0.028 C 
ATOM     10  C   LIG d   1      -2.310  76.744 114.390  0.00  0.00     0.006 C 
ENDBRANCH   8   9
BRANCH   8  11
ATOM     11  C   LIG d   1      -5.179  74.956 113.842  0.00  0.00     0.028 C 
ATOM     12  C   LIG d   1      -5.768  73.807 114.675  0.00  0.00     0.006 C 
ENDBRANCH   8  11
ENDBRANCH   7   8
ENDBRANCH   1   7
BRANCH   6  13
ATOM     13  N   LIG d   1      -4.811  78.580 117.258  0.00  0.00    -0.311 N 
ATOM     14  C   LIG d   1      -3.962  79.439 116.697  0.00  0.00     0.210 C 
ATOM     15  C   LIG d   1      -2.527  79.369 117.228  0.00  0.00     0.109 C 
ATOM     16  O   LIG d   1      -4.268  80.273 115.832  0.00  0.00    -0.276 OA
ATOM     17  H   LIG d   1      -4.486  77.961 117.974  0.00  0.00     0.149 HD
ENDBRANCH   6  13
BRANCH   5  18
ATOM     18  N   LIG d   1      -7.102  80.071 118.623  0.00  0.00     0.381 N 
ATOM     19  H   LIG d   1      -7.843  80.220 119.278  0.00  0.00    -0.090 HD
ATOM     20  H   LIG d   1      -7.203  80.734 117.875  0.00  0.00    -0.090 HD
ATOM     21  H   LIG d   1      -6.222  80.197 119.072  0.00  0.00    -0.090 HD
ENDBRANCH   5  18
BRANCH   3  22
ATOM     22  C   LIG d   1     -10.072  76.672 117.022  0.00  0.00     0.382 C 
ATOM     23  O   LIG d   1     -10.233  75.505 116.589  0.00  0.00    -0.241 OA
ATOM     24  O   LIG d   1     -11.047  77.294 117.486  0.00  0.00    -0.241 OA
ENDBRANCH   3  22
TORSDOF 7
ENDMDL
MODEL 4
REMARK VINA RESULT:      -5.0      2.430      5.615
REMARK  7 active torsions:
REMARK  status: ('A' for Active; 'I' for Inactive)
REMARK    1  A    between atoms: C_2  and  C_3 
REMARK    2  A    between atoms: C_3  and  O_6 
REMARK    3  A    between atoms: C_3  and  C_4 
REMARK    4  A    between atoms: C_7  and  O_6 
REMARK    5  A    between atoms: C_9  and  C_10 
REMARK    6  A    between atoms: N_15  and  C_14 
REMARK    7  A    between atoms: N_20  and  C_19 
REMARK       I    between atoms: C_22  and  N_20 
ROOT
ATOM      1  C   LIG d   1       2.712  89.975 116.757  0.00  0.00     0.161 C 
ATOM      2  C   LIG d   1       2.622  89.372 115.492  0.00  0.00     0.016 C 
ATOM      3  C   LIG d   1       3.746  88.909 114.769  0.00  0.00     0.038 C 
ATOM      4  C   LIG d   1       5.030  88.882 115.332  0.00  0.00     0.028 C 
ATOM      5  C   LIG d   1       5.243  89.942 116.407  0.00  0.00    -0.047 C 
ATOM      6  C   LIG d   1       4.092  89.852 117.436  0.00  0.00     0.091 C 
ENDROOT
BRANCH   1   7
ATOM      7  O   LIG d   1       1.681  89.455 117.620  0.00  0.00    -0.368 OA
BRANCH   7   8
ATOM      8  C   LIG d   1       0.833  90.437 118.264  0.00  0.00     0.119 C 
BRANCH   8   9
ATOM      9  C   LIG d   1      -0.537  89.775 118.511  0.00  0.00     0.028 C 
ATOM     10  C   LIG d   1      -1.261  89.419 117.202  0.00  0.00     0.006 C 
ENDBRANCH   8   9
BRANCH   8  11
ATOM     11  C   LIG d   1       0.549  91.622 117.336  0.00  0.00     0.028 C 
ATOM     12  C   LIG d   1       0.263  92.923 118.101  0.00  0.00     0.006 C 
ENDBRANCH   8  11
ENDBRANCH   7   8
ENDBRANCH   1   7
BRANCH   6  13
ATOM     13  N   LIG d   1       4.178  90.911 118.476  0.00  0.00    -0.311 N 
ATOM     14  C   LIG d   1       4.090  92.212 118.206  0.00  0.00     0.210 C 
ATOM     15  C   LIG d   1       4.223  93.134 119.422  0.00  0.00     0.109 C 
ATOM     16  O   LIG d   1       3.882  92.689 117.081  0.00  0.00    -0.276 OA
ATOM     17  H   LIG d   1       4.315  90.611 119.421  0.00  0.00     0.149 HD
ENDBRANCH   6  13
BRANCH   5  18
ATOM     18  N   LIG d   1       6.571  89.711 117.004  0.00  0.00     0.381 N 
ATOM     19  H   LIG d   1       6.468  89.338 117.927  0.00  0.00    -0.090 HD
ATOM     20  H   LIG d   1       7.055  90.590 117.072  0.00  0.00    -0.090 HD
ATOM     21  H   LIG d   1       7.094  89.079 116.439  0.00  0.00    -0.090 HD
ENDBRANCH   5  18
BRANCH   3  22
ATOM     22  C   LIG d   1       3.596  88.504 113.451  0.00  0.00     0.382 C 
ATOM     23  O   LIG d   1       2.466  88.545 112.907  0.00  0.00    -0.241 OA
ATOM     24  O   LIG d   1       4.568  88.057 112.813  0.00  0.00    -0.241 OA
ENDBRANCH   3  22
TORSDOF 7
ENDMDL
MODEL 5
REMARK VINA RESULT:      -4.8     10.513     13.611
REMARK  7 active torsions:
REMARK  status: ('A' for Active; 'I' for Inactive)
REMARK    1  A    between atoms: C_2  and  C_3 
REMARK    2  A    between atoms: C_3  and  O_6 
REMARK    3  A    between atoms: C_3  and  C_4 
REMARK    4  A    between atoms: C_7  and  O_6 
REMARK    5  A    between atoms: C_9  and  C_10 
REMARK    6  A    between atoms: N_15  and  C_14 
REMARK    7  A    between atoms: N_20  and  C_19 
REMARK       I    between atoms: C_22  and  N_20 
ROOT
ATOM      1  C   LIG d   1      -4.619  78.566 116.355  0.00  0.00     0.161 C 
ATOM      2  C   LIG d   1      -4.229  77.525 115.495  0.00  0.00     0.016 C 
ATOM      3  C   LIG d   1      -5.068  76.437 115.162  0.00  0.00     0.038 C 
ATOM      4  C   LIG d   1      -6.416  76.394 115.548  0.00  0.00     0.028 C 
ATOM      5  C   LIG d   1      -6.703  77.167 116.831  0.00  0.00    -0.047 C 
ATOM      6  C   LIG d   1      -6.123  78.593 116.698  0.00  0.00     0.091 C 
ENDROOT
BRANCH   1   7
ATOM      7  O   LIG d   1      -4.207  79.833 115.806  0.00  0.00    -0.368 OA
BRANCH   7   8
ATOM      8  C   LIG d   1      -3.229  80.575 116.576  0.00  0.00     0.119 C 
BRANCH   8   9
ATOM      9  C   LIG d   1      -3.862  81.931 116.944  0.00  0.00     0.028 C 
ATOM     10  C   LIG d   1      -3.803  82.216 118.454  0.00  0.00     0.006 C 
ENDBRANCH   8   9
BRANCH   8  11
ATOM     11  C   LIG d   1      -1.998  80.917 115.733  0.00  0.00     0.028 C 
ATOM     12  C   LIG d   1      -2.098  82.297 115.065  0.00  0.00     0.006 C 
ENDBRANCH   8  11
ENDBRANCH   7   8
ENDBRANCH   1   7
BRANCH   6  13
ATOM     13  N   LIG d   1      -6.286  79.390 117.942  0.00  0.00    -0.311 N 
ATOM     14  C   LIG d   1      -7.261  80.280 118.119  0.00  0.00     0.210 C 
ATOM     15  C   LIG d   1      -7.235  81.007 119.468  0.00  0.00     0.109 C 
ATOM     16  O   LIG d   1      -8.163  80.514 117.301  0.00  0.00    -0.276 OA
ATOM     17  H   LIG d   1      -5.616  79.241 118.670  0.00  0.00     0.149 HD
ENDBRANCH   6  13
BRANCH   5  18
ATOM     18  N   LIG d   1      -8.163  77.153 117.042  0.00  0.00     0.381 N 
ATOM     19  H   LIG d   1      -8.494  76.209 117.062  0.00  0.00    -0.090 HD
ATOM     20  H   LIG d   1      -8.606  77.627 116.275  0.00  0.00    -0.090 HD
ATOM     21  H   LIG d   1      -8.388  77.610 117.898  0.00  0.00    -0.090 HD
ENDBRANCH   5  18
BRANCH   3  22
ATOM     22  C   LIG d   1      -4.548  75.356 114.465  0.00  0.00     0.382 C 
ATOM     23  O   LIG d   1      -3.411  75.438 113.940  0.00  0.00    -0.241 OA
ATOM     24  O   LIG d   1      -5.218  74.317 114.318  0.00  0.00    -0.241 OA
ENDBRANCH   3  22
TORSDOF 7
ENDMDL
MODEL 6
REMARK VINA RESULT:      -4.8     11.542     13.768
REMARK  7 active torsions:
REMARK  status: ('A' for Active; 'I' for Inactive)
REMARK    1  A    between atoms: C_2  and  C_3 
REMARK    2  A    between atoms: C_3  and  O_6 
REMARK    3  A    between atoms: C_3  and  C_4 
REMARK    4  A    between atoms: C_7  and  O_6 
REMARK    5  A    between atoms: C_9  and  C_10 
REMARK    6  A    between atoms: N_15  and  C_14 
REMARK    7  A    between atoms: N_20  and  C_19 
REMARK       I    between atoms: C_22  and  N_20 
ROOT
ATOM      1  C   LIG d   1      -3.232  77.800 114.499  0.00  0.00     0.161 C 
ATOM      2  C   LIG d   1      -2.270  76.863 114.087  0.00  0.00     0.016 C 
ATOM      3  C   LIG d   1      -1.247  76.374 114.932  0.00  0.00     0.038 C 
ATOM      4  C   LIG d   1      -1.208  76.678 116.301  0.00  0.00     0.028 C 
ATOM      5  C   LIG d   1      -1.858  78.014 116.643  0.00  0.00    -0.047 C 
ATOM      6  C   LIG d   1      -3.272  78.059 116.020  0.00  0.00     0.091 C 
ENDROOT
BRANCH   1   7
ATOM      7  O   LIG d   1      -4.534  77.406 114.023  0.00  0.00    -0.368 OA
BRANCH   7   8
ATOM      8  C   LIG d   1      -5.207  76.376 114.788  0.00  0.00     0.119 C 
BRANCH   8   9
ATOM      9  C   LIG d   1      -5.500  75.205 113.830  0.00  0.00     0.028 C 
ATOM     10  C   LIG d   1      -5.476  73.843 114.543  0.00  0.00     0.006 C 
ENDBRANCH   8   9
BRANCH   8  11
ATOM     11  C   LIG d   1      -6.578  76.851 115.278  0.00  0.00     0.028 C 
ATOM     12  C   LIG d   1      -6.929  76.316 116.676  0.00  0.00     0.006 C 
ENDBRANCH   8  11
ENDBRANCH   7   8
ENDBRANCH   1   7
BRANCH   6  13
ATOM     13  N   LIG d   1      -3.946  79.366 116.236  0.00  0.00    -0.311 N 
ATOM     14  C   LIG d   1      -4.756  79.612 117.265  0.00  0.00     0.210 C 
ATOM     15  C   LIG d   1      -5.363  81.018 117.288  0.00  0.00     0.109 C 
ATOM     16  O   LIG d   1      -5.004  78.809 118.177  0.00  0.00    -0.276 OA
ATOM     17  H   LIG d   1      -3.776  80.084 115.560  0.00  0.00     0.149 HD
ENDBRANCH   6  13
BRANCH   5  18
ATOM     18  N   LIG d   1      -1.870  78.140 118.113  0.00  0.00     0.381 N 
ATOM     19  H   LIG d   1      -1.832  79.106 118.371  0.00  0.00    -0.090 HD
ATOM     20  H   LIG d   1      -1.057  77.683 118.485  0.00  0.00    -0.090 HD
ATOM     21  H   LIG d   1      -2.695  77.722 118.484  0.00  0.00    -0.090 HD
ENDBRANCH   5  18
BRANCH   3  22
ATOM     22  C   LIG d   1      -0.226  75.603 114.399  0.00  0.00     0.382 C 
ATOM     23  O   LIG d   1       0.962  75.807 114.749  0.00  0.00    -0.241 OA
ATOM     24  O   LIG d   1      -0.471  74.736 113.539  0.00  0.00    -0.241 OA
ENDBRANCH   3  22
TORSDOF 7
ENDMDL
MODEL 7
REMARK VINA RESULT:      -4.7      2.609      3.636
REMARK  7 active torsions:
REMARK  status: ('A' for Active; 'I' for Inactive)
REMARK    1  A    between atoms: C_2  and  C_3 
REMARK    2  A    between atoms: C_3  and  O_6 
REMARK    3  A    between atoms: C_3  and  C_4 
REMARK    4  A    between atoms: C_7  and  O_6 
REMARK    5  A    between atoms: C_9  and  C_10 
REMARK    6  A    between atoms: N_15  and  C_14 
REMARK    7  A    between atoms: N_20  and  C_19 
REMARK       I    between atoms: C_22  and  N_20 
ROOT
ATOM      1  C   LIG d   1       3.426  90.091 116.394  0.00  0.00     0.161 C 
ATOM      2  C   LIG d   1       2.387  90.986 116.698  0.00  0.00     0.016 C 
ATOM      3  C   LIG d   1       2.397  91.836 117.828  0.00  0.00     0.038 C 
ATOM      4  C   LIG d   1       3.524  91.957 118.654  0.00  0.00     0.028 C 
ATOM      5  C   LIG d   1       4.396  90.706 118.676  0.00  0.00    -0.047 C 
ATOM      6  C   LIG d   1       4.713  90.289 117.221  0.00  0.00     0.091 C 
ENDROOT
BRANCH   1   7
ATOM      7  O   LIG d   1       3.723  90.148 114.984  0.00  0.00    -0.368 OA
BRANCH   7   8
ATOM      8  C   LIG d   1       3.413  88.957 114.219  0.00  0.00     0.119 C 
BRANCH   8   9
ATOM      9  C   LIG d   1       2.716  87.965 115.170  0.00  0.00     0.028 C 
ATOM     10  C   LIG d   1       3.316  86.551 115.084  0.00  0.00     0.006 C 
ENDBRANCH   8   9
BRANCH   8  11
ATOM     11  C   LIG d   1       4.687  88.247 113.754  0.00  0.00     0.028 C 
ATOM     12  C   LIG d   1       5.885  89.200 113.618  0.00  0.00     0.006 C 
ENDBRANCH   8  11
ENDBRANCH   7   8
ENDBRANCH   1   7
BRANCH   6  13
ATOM     13  N   LIG d   1       5.492  89.026 117.151  0.00  0.00    -0.311 N 
ATOM     14  C   LIG d   1       6.822  88.987 117.092  0.00  0.00     0.210 C 
ATOM     15  C   LIG d   1       7.425  87.581 117.005  0.00  0.00     0.109 C 
ATOM     16  O   LIG d   1       7.561  89.982 117.137  0.00  0.00    -0.276 OA
ATOM     17  H   LIG d   1       4.973  88.170 117.141  0.00  0.00     0.149 HD
ENDBRANCH   6  13
BRANCH   5  18
ATOM     18  N   LIG d   1       5.604  91.019 119.464  0.00  0.00     0.381 N 
ATOM     19  H   LIG d   1       6.261  91.514 118.894  0.00  0.00    -0.090 HD
ATOM     20  H   LIG d   1       6.030  90.158 119.761  0.00  0.00    -0.090 HD
ATOM     21  H   LIG d   1       5.360  91.569 120.258  0.00  0.00    -0.090 HD
ENDBRANCH   5  18
BRANCH   3  22
ATOM     22  C   LIG d   1       1.255  92.546 118.164  0.00  0.00     0.382 C 
ATOM     23  O   LIG d   1       1.015  92.815 119.366  0.00  0.00    -0.241 OA
ATOM     24  O   LIG d   1       0.439  92.883 117.285  0.00  0.00    -0.241 OA
ENDBRANCH   3  22
TORSDOF 7
ENDMDL
MODEL 8
REMARK VINA RESULT:      -4.6      9.336     12.367
REMARK  7 active torsions:
REMARK  status: ('A' for Active; 'I' for Inactive)
REMARK    1  A    between atoms: C_2  and  C_3 
REMARK    2  A    between atoms: C_3  and  O_6 
REMARK    3  A    between atoms: C_3  and  C_4 
REMARK    4  A    between atoms: C_7  and  O_6 
REMARK    5  A    between atoms: C_9  and  C_10 
REMARK    6  A    between atoms: N_15  and  C_14 
REMARK    7  A    between atoms: N_20  and  C_19 
REMARK       I    between atoms: C_22  and  N_20 
ROOT
ATOM      1  C   LIG d   1      -1.086  78.130 114.503  0.00  0.00     0.161 C 
ATOM      2  C   LIG d   1      -2.380  77.828 114.049  0.00  0.00     0.016 C 
ATOM      3  C   LIG d   1      -3.008  76.579 114.262  0.00  0.00     0.038 C 
ATOM      4  C   LIG d   1      -2.438  75.593 115.080  0.00  0.00     0.028 C 
ATOM      5  C   LIG d   1      -0.916  75.662 115.141  0.00  0.00    -0.047 C 
ATOM      6  C   LIG d   1      -0.492  77.106 115.493  0.00  0.00     0.091 C 
ENDROOT
BRANCH   1   7
ATOM      7  O   LIG d   1      -1.065  79.452 115.077  0.00  0.00    -0.368 OA
BRANCH   7   8
ATOM      8  C   LIG d   1      -2.187  80.307 114.748  0.00  0.00     0.119 C 
BRANCH   8   9
ATOM      9  C   LIG d   1      -1.622  81.580 114.088  0.00  0.00     0.028 C 
ATOM     10  C   LIG d   1      -0.085  81.582 114.038  0.00  0.00     0.006 C 
ENDBRANCH   8   9
BRANCH   8  11
ATOM     11  C   LIG d   1      -2.908  80.791 116.010  0.00  0.00     0.028 C 
ATOM     12  C   LIG d   1      -3.340  82.263 115.922  0.00  0.00     0.006 C 
ENDBRANCH   8  11
ENDBRANCH   7   8
ENDBRANCH   1   7
BRANCH   6  13
ATOM     13  N   LIG d   1       0.984  77.280 115.490  0.00  0.00    -0.311 N 
ATOM     14  C   LIG d   1       1.732  77.214 116.590  0.00  0.00     0.210 C 
ATOM     15  C   LIG d   1       3.230  77.443 116.367  0.00  0.00     0.109 C 
ATOM     16  O   LIG d   1       1.301  76.956 117.724  0.00  0.00    -0.276 OA
ATOM     17  H   LIG d   1       1.420  77.463 114.607  0.00  0.00     0.149 HD
ENDBRANCH   6  13
BRANCH   5  18
ATOM     18  N   LIG d   1      -0.464  74.668 116.134  0.00  0.00     0.381 N 
ATOM     19  H   LIG d   1      -0.580  73.745 115.766  0.00  0.00    -0.090 HD
ATOM     20  H   LIG d   1      -1.031  74.753 116.959  0.00  0.00    -0.090 HD
ATOM     21  H   LIG d   1       0.493  74.826 116.362  0.00  0.00    -0.090 HD
ENDBRANCH   5  18
BRANCH   3  22
ATOM     22  C   LIG d   1      -4.203  76.292 113.619  0.00  0.00     0.382 C 
ATOM     23  O   LIG d   1      -4.776  75.195 113.822  0.00  0.00    -0.241 OA
ATOM     24  O   LIG d   1      -4.692  77.099 112.806  0.00  0.00    -0.241 OA
ENDBRANCH   3  22
TORSDOF 7
ENDMDL
MODEL 9
REMARK VINA RESULT:      -4.5      4.098      5.538
REMARK  7 active torsions:
REMARK  status: ('A' for Active; 'I' for Inactive)
REMARK    1  A    between atoms: C_2  and  C_3 
REMARK    2  A    between atoms: C_3  and  O_6 
REMARK    3  A    between atoms: C_3  and  C_4 
REMARK    4  A    between atoms: C_7  and  O_6 
REMARK    5  A    between atoms: C_9  and  C_10 
REMARK    6  A    between atoms: N_15  and  C_14 
REMARK    7  A    between atoms: N_20  and  C_19 
REMARK       I    between atoms: C_22  and  N_20 
ROOT
ATOM      1  C   LIG d   1       3.150  86.248 114.601  0.00  0.00     0.161 C 
ATOM      2  C   LIG d   1       3.684  87.369 113.944  0.00  0.00     0.016 C 
ATOM      3  C   LIG d   1       4.698  88.184 114.496  0.00  0.00     0.038 C 
ATOM      4  C   LIG d   1       5.358  87.843 115.686  0.00  0.00     0.028 C 
ATOM      5  C   LIG d   1       4.507  87.001 116.631  0.00  0.00    -0.047 C 
ATOM      6  C   LIG d   1       3.934  85.795 115.850  0.00  0.00     0.091 C 
ENDROOT
BRANCH   1   7
ATOM      7  O   LIG d   1       3.015  85.155 113.671  0.00  0.00    -0.368 OA
BRANCH   7   8
ATOM      8  C   LIG d   1       1.663  84.824 113.268  0.00  0.00     0.119 C 
BRANCH   8   9
ATOM      9  C   LIG d   1       0.765  86.021 113.634  0.00  0.00     0.028 C 
ATOM     10  C   LIG d   1      -0.650  85.896 113.043  0.00  0.00     0.006 C 
ENDBRANCH   8   9
BRANCH   8  11
ATOM     11  C   LIG d   1       1.114  83.643 114.074  0.00  0.00     0.028 C 
ATOM     12  C   LIG d   1       2.088  82.455 114.130  0.00  0.00     0.006 C 
ENDBRANCH   8  11
ENDBRANCH   7   8
ENDBRANCH   1   7
BRANCH   6  13
ATOM     13  N   LIG d   1       3.021  84.966 116.679  0.00  0.00    -0.311 N 
ATOM     14  C   LIG d   1       3.406  83.854 117.304  0.00  0.00     0.210 C 
ATOM     15  C   LIG d   1       2.302  83.139 118.089  0.00  0.00     0.109 C 
ATOM     16  O   LIG d   1       4.564  83.411 117.310  0.00  0.00    -0.276 OA
ATOM     17  H   LIG d   1       2.071  85.270 116.754  0.00  0.00     0.149 HD
ENDBRANCH   6  13
BRANCH   5  18
ATOM     18  N   LIG d   1       5.362  86.602 117.765  0.00  0.00     0.381 N 
ATOM     19  H   LIG d   1       5.192  85.643 117.996  0.00  0.00    -0.090 HD
ATOM     20  H   LIG d   1       5.127  87.165 118.563  0.00  0.00    -0.090 HD
ATOM     21  H   LIG d   1       6.322  86.730 117.530  0.00  0.00    -0.090 HD
ENDBRANCH   5  18
BRANCH   3  22
ATOM     22  C   LIG d   1       5.035  89.378 113.876  0.00  0.00     0.382 C 
ATOM     23  O   LIG d   1       4.156  90.252 113.680  0.00  0.00    -0.241 OA
ATOM     24  O   LIG d   1       6.196  89.573 113.469  0.00  0.00    -0.241 OA
ENDBRANCH   3  22
TORSDOF 7
ENDMDL
