MODEL 1
REMARK VINA RESULT:      -5.4      0.000      0.000
REMARK  7 active torsions:
REMARK  status: ('A' for Active; 'I' for Inactive)
REMARK    1  A    between atoms: C_2  and  C_3 
REMARK    2  A    between atoms: C_3  and  O_6 
REMARK    3  A    between atoms: C_3  and  C_4 
REMARK    4  A    between atoms: C_7  and  O_6 
REMARK    5  A    between atoms: C_9  and  C_10 
REMARK    6  A    between atoms: N_15  and  C_14 
REMARK    7  A    between atoms: N_20  and  C_19 
REMARK       I    between atoms: C_22  and  N_20 
ROOT
ATOM      1  C   LIG d   1      -7.177  74.413 118.425  0.00  0.00     0.161 C 
ATOM      2  C   LIG d   1      -8.442  75.022 118.476  0.00  0.00     0.016 C 
ATOM      3  C   LIG d   1      -8.708  76.308 117.952  0.00  0.00     0.038 C 
ATOM      4  C   LIG d   1      -7.756  77.015 117.202  0.00  0.00     0.028 C 
ATOM      5  C   LIG d   1      -6.317  76.659 117.561  0.00  0.00    -0.047 C 
ATOM      6  C   LIG d   1      -6.154  75.123 117.514  0.00  0.00     0.091 C 
ENDROOT
BRANCH   1   7
ATOM      7  O   LIG d   1      -7.315  73.031 118.043  0.00  0.00    -0.368 OA
BRANCH   7   8
ATOM      8  C   LIG d   1      -7.672  72.784 116.661  0.00  0.00     0.119 C 
BRANCH   8   9
ATOM      9  C   LIG d   1      -9.063  72.121 116.653  0.00  0.00     0.028 C 
ATOM     10  C   LIG d   1      -9.021  70.664 117.145  0.00  0.00     0.006 C 
ENDBRANCH   8   9
BRANCH   8  11
ATOM     11  C   LIG d   1      -6.731  71.762 116.016  0.00  0.00     0.028 C 
ATOM     12  C   LIG d   1      -5.650  71.254 116.983  0.00  0.00     0.006 C 
ENDBRANCH   8  11
ENDBRANCH   7   8
ENDBRANCH   1   7
BRANCH   6  13
ATOM     13  N   LIG d   1      -4.797  74.684 117.933  0.00  0.00    -0.311 N 
ATOM     14  C   LIG d   1      -3.777  74.546 117.088  0.00  0.00     0.210 C 
ATOM     15  C   LIG d   1      -2.470  74.063 117.725  0.00  0.00     0.109 C 
ATOM     16  O   LIG d   1      -3.822  74.809 115.877  0.00  0.00    -0.276 OA
ATOM     17  H   LIG d   1      -4.664  74.479 118.904  0.00  0.00     0.149 HD
ENDBRANCH   6  13
BRANCH   5  18
ATOM     18  N   LIG d   1      -5.434  77.364 116.612  0.00  0.00     0.381 N 
ATOM     19  H   LIG d   1      -5.983  77.926 115.993  0.00  0.00    -0.090 HD
ATOM     20  H   LIG d   1      -4.937  76.684 116.064  0.00  0.00    -0.090 HD
ATOM     21  H   LIG d   1      -4.789  77.937 117.109  0.00  0.00    -0.090 HD
ENDBRANCH   5  18
BRANCH   3  22
ATOM     22  C   LIG d   1      -9.927  76.916 118.210  0.00  0.00     0.382 C 
ATOM     23  O   LIG d   1      -9.975  78.147 118.451  0.00  0.00    -0.241 OA
ATOM     24  O   LIG d   1     -10.974  76.243 118.250  0.00  0.00    -0.241 OA
ENDBRANCH   3  22
TORSDOF 7
ENDMDL
MODEL 2
REMARK VINA RESULT:      -5.1      2.285      5.018
REMARK  7 active torsions:
REMARK  status: ('A' for Active; 'I' for Inactive)
REMARK    1  A    between atoms: C_2  and  C_3 
REMARK    2  A    between atoms: C_3  and  O_6 
REMARK    3  A    between atoms: C_3  and  C_4 
REMARK    4  A    between atoms: C_7  and  O_6 
REMARK    5  A    between atoms: C_9  and  C_10 
REMARK    6  A    between atoms: N_15  and  C_14 
REMARK    7  A    between atoms: N_20  and  C_19 
REMARK       I    between atoms: C_22  and  N_20 
ROOT
ATOM      1  C   LIG d   1      -5.922  75.015 117.865  0.00  0.00     0.161 C 
ATOM      2  C   LIG d   1      -6.021  73.710 117.354  0.00  0.00     0.016 C 
ATOM      3  C   LIG d   1      -7.248  73.108 116.990  0.00  0.00     0.038 C 
ATOM      4  C   LIG d   1      -8.451  73.830 116.969  0.00  0.00     0.028 C 
ATOM      5  C   LIG d   1      -8.475  74.994 117.955  0.00  0.00    -0.047 C 
ATOM      6  C   LIG d   1      -7.210  75.856 117.745  0.00  0.00     0.091 C 
ENDROOT
BRANCH   1   7
ATOM      7  O   LIG d   1      -4.816  75.699 117.243  0.00  0.00    -0.368 OA
BRANCH   7   8
ATOM      8  C   LIG d   1      -4.203  75.027 116.116  0.00  0.00     0.119 C 
BRANCH   8   9
ATOM      9  C   LIG d   1      -2.680  75.029 116.348  0.00  0.00     0.028 C 
ATOM     10  C   LIG d   1      -2.269  74.162 117.550  0.00  0.00     0.006 C 
ENDBRANCH   8   9
BRANCH   8  11
ATOM     11  C   LIG d   1      -4.416  75.810 114.817  0.00  0.00     0.028 C 
ATOM     12  C   LIG d   1      -5.609  75.293 113.998  0.00  0.00     0.006 C 
ENDBRANCH   8  11
ENDBRANCH   7   8
ENDBRANCH   1   7
BRANCH   6  13
ATOM     13  N   LIG d   1      -7.113  76.969 118.726  0.00  0.00    -0.311 N 
ATOM     14  C   LIG d   1      -6.811  78.221 118.386  0.00  0.00     0.210 C 
ATOM     15  C   LIG d   1      -6.743  79.209 119.555  0.00  0.00     0.109 C 
ATOM     16  O   LIG d   1      -6.624  78.613 117.225  0.00  0.00    -0.276 OA
ATOM     17  H   LIG d   1      -7.280  76.745 119.687  0.00  0.00     0.149 HD
ENDBRANCH   6  13
BRANCH   5  18
ATOM     18  N   LIG d   1      -9.727  75.741 117.731  0.00  0.00     0.381 N 
ATOM     19  H   LIG d   1     -10.223  75.347 116.957  0.00  0.00    -0.090 HD
ATOM     20  H   LIG d   1      -9.502  76.695 117.509  0.00  0.00    -0.090 HD
ATOM     21  H   LIG d   1     -10.295  75.709 118.550  0.00  0.00    -0.090 HD
ENDBRANCH   5  18
BRANCH   3  22
ATOM     22  C   LIG d   1      -7.286  71.758 116.678  0.00  0.00     0.382 C 
ATOM     23  O   LIG d   1      -8.343  71.245 116.238  0.00  0.00    -0.241 OA
ATOM     24  O   LIG d   1      -6.289  71.037 116.874  0.00  0.00    -0.241 OA
ENDBRANCH   3  22
TORSDOF 7
ENDMDL
MODEL 3
REMARK VINA RESULT:      -5.0      3.348      4.531
REMARK  7 active torsions:
REMARK  status: ('A' for Active; 'I' for Inactive)
REMARK    1  A    between atoms: C_2  and  C_3 
REMARK    2  A    between atoms: C_3  and  O_6 
REMARK    3  A    between atoms: C_3  and  C_4 
REMARK    4  A    between atoms: C_7  and  O_6 
REMARK    5  A    between atoms: C_9  and  C_10 
REMARK    6  A    between atoms: N_15  and  C_14 
REMARK    7  A    between atoms: N_20  and  C_19 
REMARK       I    between atoms: C_22  and  N_20 
ROOT
ATOM      1  C   LIG d   1      -6.018  78.395 117.350  0.00  0.00     0.161 C 
ATOM      2  C   LIG d   1      -7.355  78.198 117.735  0.00  0.00     0.016 C 
ATOM      3  C   LIG d   1      -8.248  79.257 118.017  0.00  0.00     0.038 C 
ATOM      4  C   LIG d   1      -7.905  80.597 117.786  0.00  0.00     0.028 C 
ATOM      5  C   LIG d   1      -6.407  80.864 117.881  0.00  0.00    -0.047 C 
ATOM      6  C   LIG d   1      -5.659  79.851 116.985  0.00  0.00     0.091 C 
ENDROOT
BRANCH   1   7
ATOM      7  O   LIG d   1      -5.687  77.509 116.263  0.00  0.00    -0.368 OA
BRANCH   7   8
ATOM      8  C   LIG d   1      -6.186  76.153 116.371  0.00  0.00     0.119 C 
BRANCH   8   9
ATOM      9  C   LIG d   1      -5.011  75.263 116.820  0.00  0.00     0.028 C 
ATOM     10  C   LIG d   1      -5.474  73.870 117.281  0.00  0.00     0.006 C 
ENDBRANCH   8   9
BRANCH   8  11
ATOM     11  C   LIG d   1      -6.611  75.606 115.005  0.00  0.00     0.028 C 
ATOM     12  C   LIG d   1      -5.463  75.597 113.983  0.00  0.00     0.006 C 
ENDBRANCH   8  11
ENDBRANCH   7   8
ENDBRANCH   1   7
BRANCH   6  13
ATOM     13  N   LIG d   1      -4.182  79.988 117.085  0.00  0.00    -0.311 N 
ATOM     14  C   LIG d   1      -3.406  80.322 116.056  0.00  0.00     0.210 C 
ATOM     15  C   LIG d   1      -1.908  80.389 116.370  0.00  0.00     0.109 C 
ATOM     16  O   LIG d   1      -3.819  80.602 114.920  0.00  0.00    -0.276 OA
ATOM     17  H   LIG d   1      -3.767  79.809 117.978  0.00  0.00     0.149 HD
ENDBRANCH   6  13
BRANCH   5  18
ATOM     18  N   LIG d   1      -6.178  82.266 117.483  0.00  0.00     0.381 N 
ATOM     19  H   LIG d   1      -6.971  82.823 117.733  0.00  0.00    -0.090 HD
ATOM     20  H   LIG d   1      -6.066  82.307 116.485  0.00  0.00    -0.090 HD
ATOM     21  H   LIG d   1      -5.361  82.619 117.931  0.00  0.00    -0.090 HD
ENDBRANCH   5  18
BRANCH   3  22
ATOM     22  C   LIG d   1      -9.487  78.981 118.575  0.00  0.00     0.382 C 
ATOM     23  O   LIG d   1     -10.120  77.957 118.221  0.00  0.00    -0.241 OA
ATOM     24  O   LIG d   1     -10.000  79.766 119.395  0.00  0.00    -0.241 OA
ENDBRANCH   3  22
TORSDOF 7
ENDMDL
MODEL 4
REMARK VINA RESULT:      -4.9      3.092      5.451
REMARK  7 active torsions:
REMARK  status: ('A' for Active; 'I' for Inactive)
REMARK    1  A    between atoms: C_2  and  C_3 
REMARK    2  A    between atoms: C_3  and  O_6 
REMARK    3  A    between atoms: C_3  and  C_4 
REMARK    4  A    between atoms: C_7  and  O_6 
REMARK    5  A    between atoms: C_9  and  C_10 
REMARK    6  A    between atoms: N_15  and  C_14 
REMARK    7  A    between atoms: N_20  and  C_19 
REMARK       I    between atoms: C_22  and  N_20 
ROOT
ATOM      1  C   LIG d   1      -3.933  75.653 117.073  0.00  0.00     0.161 C 
ATOM      2  C   LIG d   1      -4.643  74.577 117.631  0.00  0.00     0.016 C 
ATOM      3  C   LIG d   1      -5.621  73.840 116.925  0.00  0.00     0.038 C 
ATOM      4  C   LIG d   1      -5.850  74.035 115.554  0.00  0.00     0.028 C 
ATOM      5  C   LIG d   1      -5.517  75.445 115.079  0.00  0.00    -0.047 C 
ATOM      6  C   LIG d   1      -4.089  75.808 115.546  0.00  0.00     0.091 C 
ENDROOT
BRANCH   1   7
ATOM      7  O   LIG d   1      -2.539  75.555 117.427  0.00  0.00    -0.368 OA
BRANCH   7   8
ATOM      8  C   LIG d   1      -1.904  74.279 117.167  0.00  0.00     0.119 C 
BRANCH   8   9
ATOM      9  C   LIG d   1      -1.180  73.851 118.458  0.00  0.00     0.028 C 
ATOM     10  C   LIG d   1      -1.215  74.943 119.541  0.00  0.00     0.006 C 
ENDBRANCH   8   9
BRANCH   8  11
ATOM     11  C   LIG d   1      -0.804  74.408 116.109  0.00  0.00     0.028 C 
ATOM     12  C   LIG d   1      -0.271  75.844 115.977  0.00  0.00     0.006 C 
ENDBRANCH   8  11
ENDBRANCH   7   8
ENDBRANCH   1   7
BRANCH   6  13
ATOM     13  N   LIG d   1      -3.715  77.203 115.194  0.00  0.00    -0.311 N 
ATOM     14  C   LIG d   1      -3.026  77.524 114.101  0.00  0.00     0.210 C 
ATOM     15  C   LIG d   1      -2.729  79.018 113.939  0.00  0.00     0.109 C 
ATOM     16  O   LIG d   1      -2.659  76.717 113.233  0.00  0.00    -0.276 OA
ATOM     17  H   LIG d   1      -3.999  77.924 115.828  0.00  0.00     0.149 HD
ENDBRANCH   6  13
BRANCH   5  18
ATOM     18  N   LIG d   1      -5.669  75.468 113.612  0.00  0.00     0.381 N 
ATOM     19  H   LIG d   1      -6.463  76.023 113.362  0.00  0.00    -0.090 HD
ATOM     20  H   LIG d   1      -5.825  74.530 113.286  0.00  0.00    -0.090 HD
ATOM     21  H   LIG d   1      -4.848  75.841 113.190  0.00  0.00    -0.090 HD
ENDBRANCH   5  18
BRANCH   3  22
ATOM     22  C   LIG d   1      -6.412  72.924 117.601  0.00  0.00     0.382 C 
ATOM     23  O   LIG d   1      -6.384  71.712 117.277  0.00  0.00    -0.241 OA
ATOM     24  O   LIG d   1      -7.186  73.300 118.501  0.00  0.00    -0.241 OA
ENDBRANCH   3  22
TORSDOF 7
ENDMDL
MODEL 5
REMARK VINA RESULT:      -4.8      2.002      5.268
REMARK  7 active torsions:
REMARK  status: ('A' for Active; 'I' for Inactive)
REMARK    1  A    between atoms: C_2  and  C_3 
REMARK    2  A    between atoms: C_3  and  O_6 
REMARK    3  A    between atoms: C_3  and  C_4 
REMARK    4  A    between atoms: C_7  and  O_6 
REMARK    5  A    between atoms: C_9  and  C_10 
REMARK    6  A    between atoms: N_15  and  C_14 
REMARK    7  A    between atoms: N_20  and  C_19 
REMARK       I    between atoms: C_22  and  N_20 
ROOT
ATOM      1  C   LIG d   1      -5.491  75.733 116.114  0.00  0.00     0.161 C 
ATOM      2  C   LIG d   1      -4.282  75.093 115.793  0.00  0.00     0.016 C 
ATOM      3  C   LIG d   1      -3.117  75.186 116.588  0.00  0.00     0.038 C 
ATOM      4  C   LIG d   1      -3.126  75.806 117.847  0.00  0.00     0.028 C 
ATOM      5  C   LIG d   1      -4.185  76.895 117.978  0.00  0.00    -0.047 C 
ATOM      6  C   LIG d   1      -5.552  76.321 117.539  0.00  0.00     0.091 C 
ENDROOT
BRANCH   1   7
ATOM      7  O   LIG d   1      -6.593  74.830 115.897  0.00  0.00    -0.368 OA
BRANCH   7   8
ATOM      8  C   LIG d   1      -6.787  73.807 116.904  0.00  0.00     0.119 C 
BRANCH   8   9
ATOM      9  C   LIG d   1      -6.544  72.442 116.230  0.00  0.00     0.028 C 
ATOM     10  C   LIG d   1      -7.018  71.266 117.100  0.00  0.00     0.006 C 
ENDBRANCH   8   9
BRANCH   8  11
ATOM     11  C   LIG d   1      -8.240  73.768 117.387  0.00  0.00     0.028 C 
ATOM     12  C   LIG d   1      -9.163  74.690 116.575  0.00  0.00     0.006 C 
ENDBRANCH   8  11
ENDBRANCH   7   8
ENDBRANCH   1   7
BRANCH   6  13
ATOM     13  N   LIG d   1      -6.629  77.345 117.557  0.00  0.00    -0.311 N 
ATOM     14  C   LIG d   1      -7.598  77.374 118.469  0.00  0.00     0.210 C 
ATOM     15  C   LIG d   1      -8.619  78.502 118.293  0.00  0.00     0.109 C 
ATOM     16  O   LIG d   1      -7.692  76.591 119.427  0.00  0.00    -0.276 OA
ATOM     17  H   LIG d   1      -6.612  78.038 116.834  0.00  0.00     0.149 HD
ENDBRANCH   6  13
BRANCH   5  18
ATOM     18  N   LIG d   1      -4.176  77.360 119.378  0.00  0.00     0.381 N 
ATOM     19  H   LIG d   1      -3.251  77.288 119.752  0.00  0.00    -0.090 HD
ATOM     20  H   LIG d   1      -4.783  76.770 119.920  0.00  0.00    -0.090 HD
ATOM     21  H   LIG d   1      -4.489  78.304 119.426  0.00  0.00    -0.090 HD
ENDBRANCH   5  18
BRANCH   3  22
ATOM     22  C   LIG d   1      -1.915  74.689 116.108  0.00  0.00     0.382 C 
ATOM     23  O   LIG d   1      -1.541  74.970 114.943  0.00  0.00    -0.241 OA
ATOM     24  O   LIG d   1      -1.221  73.928 116.808  0.00  0.00    -0.241 OA
ENDBRANCH   3  22
TORSDOF 7
ENDMDL
MODEL 6
REMARK VINA RESULT:      -4.6      3.160      4.418
REMARK  7 active torsions:
REMARK  status: ('A' for Active; 'I' for Inactive)
REMARK    1  A    between atoms: C_2  and  C_3 
REMARK    2  A    between atoms: C_3  and  O_6 
REMARK    3  A    between atoms: C_3  and  C_4 
REMARK    4  A    between atoms: C_7  and  O_6 
REMARK    5  A    between atoms: C_9  and  C_10 
REMARK    6  A    between atoms: N_15  and  C_14 
REMARK    7  A    between atoms: N_20  and  C_19 
REMARK       I    between atoms: C_22  and  N_20 
ROOT
ATOM      1  C   LIG d   1      -5.276  77.476 116.735  0.00  0.00     0.161 C 
ATOM      2  C   LIG d   1      -6.015  78.650 116.959  0.00  0.00     0.016 C 
ATOM      3  C   LIG d   1      -5.453  79.946 116.908  0.00  0.00     0.038 C 
ATOM      4  C   LIG d   1      -4.136  80.166 116.477  0.00  0.00     0.028 C 
ATOM      5  C   LIG d   1      -3.210  78.980 116.729  0.00  0.00    -0.047 C 
ATOM      6  C   LIG d   1      -3.864  77.703 116.155  0.00  0.00     0.091 C 
ENDROOT
BRANCH   1   7
ATOM      7  O   LIG d   1      -6.026  76.580 115.892  0.00  0.00    -0.368 OA
BRANCH   7   8
ATOM      8  C   LIG d   1      -6.600  75.421 116.546  0.00  0.00     0.119 C 
BRANCH   8   9
ATOM      9  C   LIG d   1      -6.003  74.168 115.876  0.00  0.00     0.028 C 
ATOM     10  C   LIG d   1      -5.417  74.469 114.486  0.00  0.00     0.006 C 
ENDBRANCH   8   9
BRANCH   8  11
ATOM     11  C   LIG d   1      -8.109  75.332 116.299  0.00  0.00     0.028 C 
ATOM     12  C   LIG d   1      -8.938  75.694 117.541  0.00  0.00     0.006 C 
ENDBRANCH   8  11
ENDBRANCH   7   8
ENDBRANCH   1   7
BRANCH   6  13
ATOM     13  N   LIG d   1      -3.063  76.482 116.433  0.00  0.00    -0.311 N 
ATOM     14  C   LIG d   1      -2.218  75.944 115.555  0.00  0.00     0.210 C 
ATOM     15  C   LIG d   1      -1.507  74.675 116.035  0.00  0.00     0.109 C 
ATOM     16  O   LIG d   1      -1.967  76.415 114.435  0.00  0.00    -0.276 OA
ATOM     17  H   LIG d   1      -3.182  76.052 117.329  0.00  0.00     0.149 HD
ENDBRANCH   6  13
BRANCH   5  18
ATOM     18  N   LIG d   1      -1.908  79.292 116.109  0.00  0.00     0.381 N 
ATOM     19  H   LIG d   1      -2.046  79.588 115.163  0.00  0.00    -0.090 HD
ATOM     20  H   LIG d   1      -1.345  78.460 116.100  0.00  0.00    -0.090 HD
ATOM     21  H   LIG d   1      -1.448  80.008 116.625  0.00  0.00    -0.090 HD
ENDBRANCH   5  18
BRANCH   3  22
ATOM     22  C   LIG d   1      -6.199  81.036 117.329  0.00  0.00     0.382 C 
ATOM     23  O   LIG d   1      -7.422  81.102 117.056  0.00  0.00    -0.241 OA
ATOM     24  O   LIG d   1      -5.655  81.976 117.940  0.00  0.00    -0.241 OA
ENDBRANCH   3  22
TORSDOF 7
ENDMDL
MODEL 7
REMARK VINA RESULT:      -4.6      3.690      5.537
REMARK  7 active torsions:
REMARK  status: ('A' for Active; 'I' for Inactive)
REMARK    1  A    between atoms: C_2  and  C_3 
REMARK    2  A    between atoms: C_3  and  O_6 
REMARK    3  A    between atoms: C_3  and  C_4 
REMARK    4  A    between atoms: C_7  and  O_6 
REMARK    5  A    between atoms: C_9  and  C_10 
REMARK    6  A    between atoms: N_15  and  C_14 
REMARK    7  A    between atoms: N_20  and  C_19 
REMARK       I    between atoms: C_22  and  N_20 
ROOT
ATOM      1  C   LIG d   1      -2.645  75.238 117.020  0.00  0.00     0.161 C 
ATOM      2  C   LIG d   1      -3.111  76.426 116.432  0.00  0.00     0.016 C 
ATOM      3  C   LIG d   1      -2.396  77.134 115.438  0.00  0.00     0.038 C 
ATOM      4  C   LIG d   1      -1.230  76.618 114.853  0.00  0.00     0.028 C 
ATOM      5  C   LIG d   1      -0.459  75.675 115.770  0.00  0.00    -0.047 C 
ATOM      6  C   LIG d   1      -1.429  74.601 116.315  0.00  0.00     0.091 C 
ENDROOT
BRANCH   1   7
ATOM      7  O   LIG d   1      -3.723  74.286 117.118  0.00  0.00    -0.368 OA
BRANCH   7   8
ATOM      8  C   LIG d   1      -5.056  74.808 116.895  0.00  0.00     0.119 C 
BRANCH   8   9
ATOM      9  C   LIG d   1      -5.874  74.548 118.175  0.00  0.00     0.028 C 
ATOM     10  C   LIG d   1      -6.770  73.304 118.056  0.00  0.00     0.006 C 
ENDBRANCH   8   9
BRANCH   8  11
ATOM     11  C   LIG d   1      -5.779  74.035 115.788  0.00  0.00     0.028 C 
ATOM     12  C   LIG d   1      -5.441  74.553 114.381  0.00  0.00     0.006 C 
ENDBRANCH   8  11
ENDBRANCH   7   8
ENDBRANCH   1   7
BRANCH   6  13
ATOM     13  N   LIG d   1      -0.774  73.688 117.287  0.00  0.00    -0.311 N 
ATOM     14  C   LIG d   1      -0.308  74.087 118.470  0.00  0.00     0.210 C 
ATOM     15  C   LIG d   1       0.349  72.987 119.310  0.00  0.00     0.109 C 
ATOM     16  O   LIG d   1      -0.405  75.240 118.915  0.00  0.00    -0.276 OA
ATOM     17  H   LIG d   1      -0.681  72.727 117.020  0.00  0.00     0.149 HD
ENDBRANCH   6  13
BRANCH   5  18
ATOM     18  N   LIG d   1       0.654  75.105 114.988  0.00  0.00     0.381 N 
ATOM     19  H   LIG d   1       1.080  75.820 114.434  0.00  0.00    -0.090 HD
ATOM     20  H   LIG d   1       0.290  74.401 114.370  0.00  0.00    -0.090 HD
ATOM     21  H   LIG d   1       1.330  74.702 115.600  0.00  0.00    -0.090 HD
ENDBRANCH   5  18
BRANCH   3  22
ATOM     22  C   LIG d   1      -2.827  78.393 115.048  0.00  0.00     0.382 C 
ATOM     23  O   LIG d   1      -2.098  79.107 114.317  0.00  0.00    -0.241 OA
ATOM     24  O   LIG d   1      -3.916  78.842 115.454  0.00  0.00    -0.241 OA
ENDBRANCH   3  22
TORSDOF 7
ENDMDL
MODEL 8
REMARK VINA RESULT:      -4.6      2.221      3.121
REMARK  7 active torsions:
REMARK  status: ('A' for Active; 'I' for Inactive)
REMARK    1  A    between atoms: C_2  and  C_3 
REMARK    2  A    between atoms: C_3  and  O_6 
REMARK    3  A    between atoms: C_3  and  C_4 
REMARK    4  A    between atoms: C_7  and  O_6 
REMARK    5  A    between atoms: C_9  and  C_10 
REMARK    6  A    between atoms: N_15  and  C_14 
REMARK    7  A    between atoms: N_20  and  C_19 
REMARK       I    between atoms: C_22  and  N_20 
ROOT
ATOM      1  C   LIG d   1      -6.618  77.133 117.625  0.00  0.00     0.161 C 
ATOM      2  C   LIG d   1      -7.782  77.771 118.084  0.00  0.00     0.016 C 
ATOM      3  C   LIG d   1      -7.958  79.174 118.069  0.00  0.00     0.038 C 
ATOM      4  C   LIG d   1      -7.036  80.030 117.449  0.00  0.00     0.028 C 
ATOM      5  C   LIG d   1      -5.616  79.475 117.425  0.00  0.00    -0.047 C 
ATOM      6  C   LIG d   1      -5.647  78.043 116.844  0.00  0.00     0.091 C 
ENDROOT
BRANCH   1   7
ATOM      7  O   LIG d   1      -6.972  75.981 116.834  0.00  0.00    -0.368 OA
BRANCH   7   8
ATOM      8  C   LIG d   1      -6.993  74.711 117.531  0.00  0.00     0.119 C 
BRANCH   8   9
ATOM      9  C   LIG d   1      -5.875  73.836 116.932  0.00  0.00     0.028 C 
ATOM     10  C   LIG d   1      -6.419  72.558 116.273  0.00  0.00     0.006 C 
ENDBRANCH   8   9
BRANCH   8  11
ATOM     11  C   LIG d   1      -8.293  73.949 117.261  0.00  0.00     0.028 C 
ATOM     12  C   LIG d   1      -9.348  74.805 116.543  0.00  0.00     0.006 C 
ENDBRANCH   8  11
ENDBRANCH   7   8
ENDBRANCH   1   7
BRANCH   6  13
ATOM     13  N   LIG d   1      -4.310  77.394 116.862  0.00  0.00    -0.311 N 
ATOM     14  C   LIG d   1      -3.719  76.901 115.775  0.00  0.00     0.210 C 
ATOM     15  C   LIG d   1      -2.351  76.256 116.019  0.00  0.00     0.109 C 
ATOM     16  O   LIG d   1      -4.185  76.964 114.627  0.00  0.00    -0.276 OA
ATOM     17  H   LIG d   1      -3.847  77.328 117.748  0.00  0.00     0.149 HD
ENDBRANCH   6  13
BRANCH   5  18
ATOM     18  N   LIG d   1      -4.788  80.403 116.631  0.00  0.00     0.381 N 
ATOM     19  H   LIG d   1      -4.410  81.113 117.226  0.00  0.00    -0.090 HD
ATOM     20  H   LIG d   1      -5.368  80.845 115.940  0.00  0.00    -0.090 HD
ATOM     21  H   LIG d   1      -4.049  79.905 116.186  0.00  0.00    -0.090 HD
ENDBRANCH   5  18
BRANCH   3  22
ATOM     22  C   LIG d   1      -9.049  79.737 118.714  0.00  0.00     0.382 C 
ATOM     23  O   LIG d   1      -8.879  80.672 119.533  0.00  0.00    -0.241 OA
ATOM     24  O   LIG d   1     -10.196  79.292 118.520  0.00  0.00    -0.241 OA
ENDBRANCH   3  22
TORSDOF 7
ENDMDL
MODEL 9
REMARK VINA RESULT:      -4.4     16.091     18.180
REMARK  7 active torsions:
REMARK  status: ('A' for Active; 'I' for Inactive)
REMARK    1  A    between atoms: C_2  and  C_3 
REMARK    2  A    between atoms: C_3  and  O_6 
REMARK    3  A    between atoms: C_3  and  C_4 
REMARK    4  A    between atoms: C_7  and  O_6 
REMARK    5  A    between atoms: C_9  and  C_10 
REMARK    6  A    between atoms: N_15  and  C_14 
REMARK    7  A    between atoms: N_20  and  C_19 
REMARK       I    between atoms: C_22  and  N_20 
ROOT
ATOM      1  C   LIG d   1       0.189  90.596 118.161  0.00  0.00     0.161 C 
ATOM      2  C   LIG d   1      -1.130  90.244 117.831  0.00  0.00     0.016 C 
ATOM      3  C   LIG d   1      -2.186  91.180 117.742  0.00  0.00     0.038 C 
ATOM      4  C   LIG d   1      -1.962  92.562 117.828  0.00  0.00     0.028 C 
ATOM      5  C   LIG d   1      -0.736  92.925 118.660  0.00  0.00    -0.047 C 
ATOM      6  C   LIG d   1       0.475  92.113 118.150  0.00  0.00     0.091 C 
ENDROOT
BRANCH   1   7
ATOM      7  O   LIG d   1       1.110  89.906 117.293  0.00  0.00    -0.368 OA
BRANCH   7   8
ATOM      8  C   LIG d   1       2.004  88.963 117.934  0.00  0.00     0.119 C 
BRANCH   8   9
ATOM      9  C   LIG d   1       3.441  89.331 117.518  0.00  0.00     0.028 C 
ATOM     10  C   LIG d   1       3.507  89.935 116.106  0.00  0.00     0.006 C 
ENDBRANCH   8   9
BRANCH   8  11
ATOM     11  C   LIG d   1       1.782  87.541 117.410  0.00  0.00     0.028 C 
ATOM     12  C   LIG d   1       0.756  87.480 116.268  0.00  0.00     0.006 C 
ENDBRANCH   8  11
ENDBRANCH   7   8
ENDBRANCH   1   7
BRANCH   6  13
ATOM     13  N   LIG d   1       1.697  92.346 118.963  0.00  0.00    -0.311 N 
ATOM     14  C   LIG d   1       2.838  92.811 118.456  0.00  0.00     0.210 C 
ATOM     15  C   LIG d   1       3.981  92.959 119.465  0.00  0.00     0.109 C 
ATOM     16  O   LIG d   1       3.001  93.146 117.273  0.00  0.00    -0.276 OA
ATOM     17  H   LIG d   1       1.643  92.130 119.939  0.00  0.00     0.149 HD
ENDBRANCH   6  13
BRANCH   5  18
ATOM     18  N   LIG d   1      -0.541  94.384 118.552  0.00  0.00     0.381 N 
ATOM     19  H   LIG d   1      -1.418  94.830 118.367  0.00  0.00    -0.090 HD
ATOM     20  H   LIG d   1       0.078  94.573 117.784  0.00  0.00    -0.090 HD
ATOM     21  H   LIG d   1      -0.152  94.739 119.398  0.00  0.00    -0.090 HD
ENDBRANCH   5  18
BRANCH   3  22
ATOM     22  C   LIG d   1      -3.491  90.732 117.603  0.00  0.00     0.382 C 
ATOM     23  O   LIG d   1      -3.944  89.865 118.389  0.00  0.00    -0.241 OA
ATOM     24  O   LIG d   1      -4.208  91.151 116.675  0.00  0.00    -0.241 OA
ENDBRANCH   3  22
TORSDOF 7
ENDMDL
