MODEL 1
REMARK VINA RESULT:      -5.2      0.000      0.000
REMARK  7 active torsions:
REMARK  status: ('A' for Active; 'I' for Inactive)
REMARK    1  A    between atoms: C_2  and  C_3 
REMARK    2  A    between atoms: C_3  and  O_6 
REMARK    3  A    between atoms: C_3  and  C_4 
REMARK    4  A    between atoms: C_7  and  O_6 
REMARK    5  A    between atoms: C_9  and  C_10 
REMARK    6  A    between atoms: N_15  and  C_14 
REMARK    7  A    between atoms: N_20  and  C_19 
REMARK       I    between atoms: C_22  and  N_20 
ROOT
ATOM      1  C   LIG d   1      -8.344  74.935 117.998  0.00  0.00     0.161 C 
ATOM      2  C   LIG d   1      -9.441  75.656 118.498  0.00  0.00     0.016 C 
ATOM      3  C   LIG d   1      -9.497  77.068 118.527  0.00  0.00     0.038 C 
ATOM      4  C   LIG d   1      -8.514  77.862 117.916  0.00  0.00     0.028 C 
ATOM      5  C   LIG d   1      -7.148  77.188 117.848  0.00  0.00    -0.047 C 
ATOM      6  C   LIG d   1      -7.311  75.783 117.226  0.00  0.00     0.091 C 
ENDROOT
BRANCH   1   7
ATOM      7  O   LIG d   1      -8.808  73.843 117.180  0.00  0.00    -0.368 OA
BRANCH   7   8
ATOM      8  C   LIG d   1      -9.287  72.674 117.889  0.00  0.00     0.119 C 
BRANCH   8   9
ATOM      9  C   LIG d   1      -8.360  71.499 117.524  0.00  0.00     0.028 C 
ATOM     10  C   LIG d   1      -9.010  70.528 116.524  0.00  0.00     0.006 C 
ENDBRANCH   8   9
BRANCH   8  11
ATOM     11  C   LIG d   1     -10.679  72.259 117.403  0.00  0.00     0.028 C 
ATOM     12  C   LIG d   1     -11.811  72.871 118.244  0.00  0.00     0.006 C 
ENDBRANCH   8  11
ENDBRANCH   7   8
ENDBRANCH   1   7
BRANCH   6  13
ATOM     13  N   LIG d   1      -6.035  75.022 117.200  0.00  0.00    -0.311 N 
ATOM     14  C   LIG d   1      -5.193  75.038 116.168  0.00  0.00     0.210 C 
ATOM     15  C   LIG d   1      -3.944  74.168 116.339  0.00  0.00     0.109 C 
ATOM     16  O   LIG d   1      -5.346  75.715 115.140  0.00  0.00    -0.276 OA
ATOM     17  H   LIG d   1      -5.816  74.471 118.006  0.00  0.00     0.149 HD
ENDBRANCH   6  13
BRANCH   5  18
ATOM     18  N   LIG d   1      -6.256  78.066 117.067  0.00  0.00     0.381 N 
ATOM     19  H   LIG d   1      -6.589  78.136 116.126  0.00  0.00    -0.090 HD
ATOM     20  H   LIG d   1      -5.337  77.662 117.047  0.00  0.00    -0.090 HD
ATOM     21  H   LIG d   1      -6.220  78.971 117.482  0.00  0.00    -0.090 HD
ENDBRANCH   5  18
BRANCH   3  22
ATOM     22  C   LIG d   1     -10.525  77.702 119.209  0.00  0.00     0.382 C 
ATOM     23  O   LIG d   1     -10.402  78.902 119.553  0.00  0.00    -0.241 OA
ATOM     24  O   LIG d   1     -11.555  77.076 119.523  0.00  0.00    -0.241 OA
ENDBRANCH   3  22
TORSDOF 7
ENDMDL
MODEL 2
REMARK VINA RESULT:      -5.1      2.217      4.856
REMARK  7 active torsions:
REMARK  status: ('A' for Active; 'I' for Inactive)
REMARK    1  A    between atoms: C_2  and  C_3 
REMARK    2  A    between atoms: C_3  and  O_6 
REMARK    3  A    between atoms: C_3  and  C_4 
REMARK    4  A    between atoms: C_7  and  O_6 
REMARK    5  A    between atoms: C_9  and  C_10 
REMARK    6  A    between atoms: N_15  and  C_14 
REMARK    7  A    between atoms: N_20  and  C_19 
REMARK       I    between atoms: C_22  and  N_20 
ROOT
ATOM      1  C   LIG d   1      -7.491  74.835 117.611  0.00  0.00     0.161 C 
ATOM      2  C   LIG d   1      -8.754  74.502 118.130  0.00  0.00     0.016 C 
ATOM      3  C   LIG d   1      -9.348  73.229 117.975  0.00  0.00     0.038 C 
ATOM      4  C   LIG d   1      -8.651  72.148 117.416  0.00  0.00     0.028 C 
ATOM      5  C   LIG d   1      -7.569  72.571 116.428  0.00  0.00    -0.047 C 
ATOM      6  C   LIG d   1      -6.668  73.636 117.095  0.00  0.00     0.091 C 
ENDROOT
BRANCH   1   7
ATOM      7  O   LIG d   1      -6.738  75.574 118.593  0.00  0.00    -0.368 OA
BRANCH   7   8
ATOM      8  C   LIG d   1      -6.597  76.995 118.350  0.00  0.00     0.119 C 
BRANCH   8   9
ATOM      9  C   LIG d   1      -7.770  77.704 119.055  0.00  0.00     0.028 C 
ATOM     10  C   LIG d   1      -8.736  78.371 118.061  0.00  0.00     0.006 C 
ENDBRANCH   8   9
BRANCH   8  11
ATOM     11  C   LIG d   1      -6.759  77.325 116.863  0.00  0.00     0.028 C 
ATOM     12  C   LIG d   1      -5.447  77.787 116.209  0.00  0.00     0.006 C 
ENDBRANCH   8  11
ENDBRANCH   7   8
ENDBRANCH   1   7
BRANCH   6  13
ATOM     13  N   LIG d   1      -5.635  74.166 116.168  0.00  0.00    -0.311 N 
ATOM     14  C   LIG d   1      -4.326  74.019 116.368  0.00  0.00     0.210 C 
ATOM     15  C   LIG d   1      -3.433  74.659 115.300  0.00  0.00     0.109 C 
ATOM     16  O   LIG d   1      -3.821  73.393 117.311  0.00  0.00    -0.276 OA
ATOM     17  H   LIG d   1      -5.958  74.661 115.359  0.00  0.00     0.149 HD
ENDBRANCH   6  13
BRANCH   5  18
ATOM     18  N   LIG d   1      -6.831  71.358 116.028  0.00  0.00     0.381 N 
ATOM     19  H   LIG d   1      -6.943  70.648 116.725  0.00  0.00    -0.090 HD
ATOM     20  H   LIG d   1      -5.854  71.580 115.959  0.00  0.00    -0.090 HD
ATOM     21  H   LIG d   1      -7.167  71.028 115.150  0.00  0.00    -0.090 HD
ENDBRANCH   5  18
BRANCH   3  22
ATOM     22  C   LIG d   1     -10.671  73.038 118.346  0.00  0.00     0.382 C 
ATOM     23  O   LIG d   1     -11.143  73.663 119.326  0.00  0.00    -0.241 OA
ATOM     24  O   LIG d   1     -11.384  72.216 117.741  0.00  0.00    -0.241 OA
ENDBRANCH   3  22
TORSDOF 7
ENDMDL
MODEL 3
REMARK VINA RESULT:      -5.1      2.341      4.615
REMARK  7 active torsions:
REMARK  status: ('A' for Active; 'I' for Inactive)
REMARK    1  A    between atoms: C_2  and  C_3 
REMARK    2  A    between atoms: C_3  and  O_6 
REMARK    3  A    between atoms: C_3  and  C_4 
REMARK    4  A    between atoms: C_7  and  O_6 
REMARK    5  A    between atoms: C_9  and  C_10 
REMARK    6  A    between atoms: N_15  and  C_14 
REMARK    7  A    between atoms: N_20  and  C_19 
REMARK       I    between atoms: C_22  and  N_20 
ROOT
ATOM      1  C   LIG d   1      -7.813  75.980 117.102  0.00  0.00     0.161 C 
ATOM      2  C   LIG d   1      -7.122  77.203 117.086  0.00  0.00     0.016 C 
ATOM      3  C   LIG d   1      -7.556  78.351 117.787  0.00  0.00     0.038 C 
ATOM      4  C   LIG d   1      -8.638  78.310 118.679  0.00  0.00     0.028 C 
ATOM      5  C   LIG d   1      -9.664  77.234 118.338  0.00  0.00    -0.047 C 
ATOM      6  C   LIG d   1      -8.933  75.884 118.158  0.00  0.00     0.091 C 
ENDROOT
BRANCH   1   7
ATOM      7  O   LIG d   1      -6.879  74.893 117.262  0.00  0.00    -0.368 OA
BRANCH   7   8
ATOM      8  C   LIG d   1      -5.929  74.706 116.184  0.00  0.00     0.119 C 
BRANCH   8   9
ATOM      9  C   LIG d   1      -6.387  73.479 115.371  0.00  0.00     0.028 C 
ATOM     10  C   LIG d   1      -7.123  72.443 116.237  0.00  0.00     0.006 C 
ENDBRANCH   8   9
BRANCH   8  11
ATOM     11  C   LIG d   1      -4.542  74.341 116.722  0.00  0.00     0.028 C 
ATOM     12  C   LIG d   1      -4.078  75.271 117.854  0.00  0.00     0.006 C 
ENDBRANCH   8  11
ENDBRANCH   7   8
ENDBRANCH   1   7
BRANCH   6  13
ATOM     13  N   LIG d   1      -9.853  74.793 117.740  0.00  0.00    -0.311 N 
ATOM     14  C   LIG d   1     -10.014  73.666 118.430  0.00  0.00     0.210 C 
ATOM     15  C   LIG d   1     -10.995  72.664 117.813  0.00  0.00     0.109 C 
ATOM     16  O   LIG d   1      -9.462  73.413 119.512  0.00  0.00    -0.276 OA
ATOM     17  H   LIG d   1     -10.364  74.929 116.890  0.00  0.00     0.149 HD
ENDBRANCH   6  13
BRANCH   5  18
ATOM     18  N   LIG d   1     -10.663  77.211 119.423  0.00  0.00     0.381 N 
ATOM     19  H   LIG d   1     -10.210  77.356 120.304  0.00  0.00    -0.090 HD
ATOM     20  H   LIG d   1     -11.103  76.308 119.440  0.00  0.00    -0.090 HD
ATOM     21  H   LIG d   1     -11.346  77.920 119.273  0.00  0.00    -0.090 HD
ENDBRANCH   5  18
BRANCH   3  22
ATOM     22  C   LIG d   1      -6.930  79.568 117.567  0.00  0.00     0.382 C 
ATOM     23  O   LIG d   1      -6.151  79.706 116.593  0.00  0.00    -0.241 OA
ATOM     24  O   LIG d   1      -7.099  80.517 118.356  0.00  0.00    -0.241 OA
ENDBRANCH   3  22
TORSDOF 7
ENDMDL
MODEL 4
REMARK VINA RESULT:      -5.0      2.341      5.526
REMARK  7 active torsions:
REMARK  status: ('A' for Active; 'I' for Inactive)
REMARK    1  A    between atoms: C_2  and  C_3 
REMARK    2  A    between atoms: C_3  and  O_6 
REMARK    3  A    between atoms: C_3  and  C_4 
REMARK    4  A    between atoms: C_7  and  O_6 
REMARK    5  A    between atoms: C_9  and  C_10 
REMARK    6  A    between atoms: N_15  and  C_14 
REMARK    7  A    between atoms: N_20  and  C_19 
REMARK       I    between atoms: C_22  and  N_20 
ROOT
ATOM      1  C   LIG d   1      -7.605  74.070 117.561  0.00  0.00     0.161 C 
ATOM      2  C   LIG d   1      -7.868  72.774 117.089  0.00  0.00     0.016 C 
ATOM      3  C   LIG d   1      -9.126  72.140 117.214  0.00  0.00     0.038 C 
ATOM      4  C   LIG d   1     -10.256  72.823 117.688  0.00  0.00     0.028 C 
ATOM      5  C   LIG d   1      -9.918  73.965 118.641  0.00  0.00    -0.047 C 
ATOM      6  C   LIG d   1      -8.855  74.872 117.981  0.00  0.00     0.091 C 
ENDROOT
BRANCH   1   7
ATOM      7  O   LIG d   1      -6.846  74.803 116.579  0.00  0.00    -0.368 OA
BRANCH   7   8
ATOM      8  C   LIG d   1      -5.715  74.108 115.999  0.00  0.00     0.119 C 
BRANCH   8   9
ATOM      9  C   LIG d   1      -4.436  74.717 116.606  0.00  0.00     0.028 C 
ATOM     10  C   LIG d   1      -3.228  74.605 115.662  0.00  0.00     0.006 C 
ENDBRANCH   8   9
BRANCH   8  11
ATOM     11  C   LIG d   1      -5.613  74.370 114.493  0.00  0.00     0.028 C 
ATOM     12  C   LIG d   1      -6.455  75.573 114.039  0.00  0.00     0.006 C 
ENDBRANCH   8  11
ENDBRANCH   7   8
ENDBRANCH   1   7
BRANCH   6  13
ATOM     13  N   LIG d   1      -8.406  75.966 118.880  0.00  0.00    -0.311 N 
ATOM     14  C   LIG d   1      -8.208  77.218 118.470  0.00  0.00     0.210 C 
ATOM     15  C   LIG d   1      -7.726  78.186 119.555  0.00  0.00     0.109 C 
ATOM     16  O   LIG d   1      -8.416  77.625 117.317  0.00  0.00    -0.276 OA
ATOM     17  H   LIG d   1      -8.244  75.731 119.840  0.00  0.00     0.149 HD
ENDBRANCH   6  13
BRANCH   5  18
ATOM     18  N   LIG d   1     -11.174  74.675 118.948  0.00  0.00     0.381 N 
ATOM     19  H   LIG d   1     -11.912  74.324 118.371  0.00  0.00    -0.090 HD
ATOM     20  H   LIG d   1     -11.053  75.652 118.745  0.00  0.00    -0.090 HD
ATOM     21  H   LIG d   1     -11.408  74.554 119.909  0.00  0.00    -0.090 HD
ENDBRANCH   5  18
BRANCH   3  22
ATOM     22  C   LIG d   1      -9.253  70.796 116.900  0.00  0.00     0.382 C 
ATOM     23  O   LIG d   1      -8.391  70.237 116.179  0.00  0.00    -0.241 OA
ATOM     24  O   LIG d   1     -10.241  70.146 117.290  0.00  0.00    -0.241 OA
ENDBRANCH   3  22
TORSDOF 7
ENDMDL
MODEL 5
REMARK VINA RESULT:      -5.0      1.953      3.294
REMARK  7 active torsions:
REMARK  status: ('A' for Active; 'I' for Inactive)
REMARK    1  A    between atoms: C_2  and  C_3 
REMARK    2  A    between atoms: C_3  and  O_6 
REMARK    3  A    between atoms: C_3  and  C_4 
REMARK    4  A    between atoms: C_7  and  O_6 
REMARK    5  A    between atoms: C_9  and  C_10 
REMARK    6  A    between atoms: N_15  and  C_14 
REMARK    7  A    between atoms: N_20  and  C_19 
REMARK       I    between atoms: C_22  and  N_20 
ROOT
ATOM      1  C   LIG d   1      -6.636  75.629 117.955  0.00  0.00     0.161 C 
ATOM      2  C   LIG d   1      -7.984  75.290 118.160  0.00  0.00     0.016 C 
ATOM      3  C   LIG d   1      -9.039  76.230 118.109  0.00  0.00     0.038 C 
ATOM      4  C   LIG d   1      -8.833  77.555 117.698  0.00  0.00     0.028 C 
ATOM      5  C   LIG d   1      -7.421  78.061 117.972  0.00  0.00    -0.047 C 
ATOM      6  C   LIG d   1      -6.404  77.049 117.396  0.00  0.00     0.091 C 
ENDROOT
BRANCH   1   7
ATOM      7  O   LIG d   1      -6.009  74.648 117.106  0.00  0.00    -0.368 OA
BRANCH   7   8
ATOM      8  C   LIG d   1      -6.781  74.208 115.962  0.00  0.00     0.119 C 
BRANCH   8   9
ATOM      9  C   LIG d   1      -6.708  72.669 115.919  0.00  0.00     0.028 C 
ATOM     10  C   LIG d   1      -7.839  72.005 116.722  0.00  0.00     0.006 C 
ENDBRANCH   8   9
BRANCH   8  11
ATOM     11  C   LIG d   1      -6.151  74.681 114.649  0.00  0.00     0.028 C 
ATOM     12  C   LIG d   1      -4.645  74.958 114.777  0.00  0.00     0.006 C 
ENDBRANCH   8  11
ENDBRANCH   7   8
ENDBRANCH   1   7
BRANCH   6  13
ATOM     13  N   LIG d   1      -4.998  77.425 117.695  0.00  0.00    -0.311 N 
ATOM     14  C   LIG d   1      -4.227  78.108 116.850  0.00  0.00     0.210 C 
ATOM     15  C   LIG d   1      -2.802  78.374 117.346  0.00  0.00     0.109 C 
ATOM     16  O   LIG d   1      -4.597  78.546 115.751  0.00  0.00    -0.276 OA
ATOM     17  H   LIG d   1      -4.626  77.137 118.578  0.00  0.00     0.149 HD
ENDBRANCH   6  13
BRANCH   5  18
ATOM     18  N   LIG d   1      -7.304  79.403 117.371  0.00  0.00     0.381 N 
ATOM     19  H   LIG d   1      -7.788  79.426 116.496  0.00  0.00    -0.090 HD
ATOM     20  H   LIG d   1      -6.333  79.599 117.199  0.00  0.00    -0.090 HD
ATOM     21  H   LIG d   1      -7.684  80.087 117.988  0.00  0.00    -0.090 HD
ENDBRANCH   5  18
BRANCH   3  22
ATOM     22  C   LIG d   1     -10.313  75.856 118.511  0.00  0.00     0.382 C 
ATOM     23  O   LIG d   1     -10.627  74.642 118.548  0.00  0.00    -0.241 OA
ATOM     24  O   LIG d   1     -11.165  76.719 118.795  0.00  0.00    -0.241 OA
ENDBRANCH   3  22
TORSDOF 7
ENDMDL
MODEL 6
REMARK VINA RESULT:      -4.9      2.986      4.591
REMARK  7 active torsions:
REMARK  status: ('A' for Active; 'I' for Inactive)
REMARK    1  A    between atoms: C_2  and  C_3 
REMARK    2  A    between atoms: C_3  and  O_6 
REMARK    3  A    between atoms: C_3  and  C_4 
REMARK    4  A    between atoms: C_7  and  O_6 
REMARK    5  A    between atoms: C_9  and  C_10 
REMARK    6  A    between atoms: N_15  and  C_14 
REMARK    7  A    between atoms: N_20  and  C_19 
REMARK       I    between atoms: C_22  and  N_20 
ROOT
ATOM      1  C   LIG d   1      -6.129  77.698 116.739  0.00  0.00     0.161 C 
ATOM      2  C   LIG d   1      -7.472  77.530 117.114  0.00  0.00     0.016 C 
ATOM      3  C   LIG d   1      -8.260  78.563 117.671  0.00  0.00     0.038 C 
ATOM      4  C   LIG d   1      -7.798  79.886 117.752  0.00  0.00     0.028 C 
ATOM      5  C   LIG d   1      -6.280  79.993 117.853  0.00  0.00    -0.047 C 
ATOM      6  C   LIG d   1      -5.642  79.162 116.716  0.00  0.00     0.091 C 
ENDROOT
BRANCH   1   7
ATOM      7  O   LIG d   1      -5.896  77.072 115.462  0.00  0.00    -0.368 OA
BRANCH   7   8
ATOM      8  C   LIG d   1      -5.116  75.852 115.482  0.00  0.00     0.119 C 
BRANCH   8   9
ATOM      9  C   LIG d   1      -3.800  76.131 114.730  0.00  0.00     0.028 C 
ATOM     10  C   LIG d   1      -2.568  75.608 115.488  0.00  0.00     0.006 C 
ENDBRANCH   8   9
BRANCH   8  11
ATOM     11  C   LIG d   1      -5.806  74.736 114.693  0.00  0.00     0.028 C 
ATOM     12  C   LIG d   1      -6.383  73.635 115.597  0.00  0.00     0.006 C 
ENDBRANCH   8  11
ENDBRANCH   7   8
ENDBRANCH   1   7
BRANCH   6  13
ATOM     13  N   LIG d   1      -4.158  79.144 116.792  0.00  0.00    -0.311 N 
ATOM     14  C   LIG d   1      -3.368  79.570 115.808  0.00  0.00     0.210 C 
ATOM     15  C   LIG d   1      -1.866  79.445 116.084  0.00  0.00     0.109 C 
ATOM     16  O   LIG d   1      -3.769  80.069 114.746  0.00  0.00    -0.276 OA
ATOM     17  H   LIG d   1      -3.748  78.784 117.632  0.00  0.00     0.149 HD
ENDBRANCH   6  13
BRANCH   5  18
ATOM     18  N   LIG d   1      -5.929  81.424 117.790  0.00  0.00     0.381 N 
ATOM     19  H   LIG d   1      -5.982  81.826 118.705  0.00  0.00    -0.090 HD
ATOM     20  H   LIG d   1      -6.592  81.896 117.200  0.00  0.00    -0.090 HD
ATOM     21  H   LIG d   1      -5.010  81.534 117.423  0.00  0.00    -0.090 HD
ENDBRANCH   5  18
BRANCH   3  22
ATOM     22  C   LIG d   1      -9.511  78.269 118.192  0.00  0.00     0.382 C 
ATOM     23  O   LIG d   1     -10.203  79.178 118.710  0.00  0.00    -0.241 OA
ATOM     24  O   LIG d   1      -9.936  77.099 118.191  0.00  0.00    -0.241 OA
ENDBRANCH   3  22
TORSDOF 7
ENDMDL
MODEL 7
REMARK VINA RESULT:      -4.9      2.259      4.842
REMARK  7 active torsions:
REMARK  status: ('A' for Active; 'I' for Inactive)
REMARK    1  A    between atoms: C_2  and  C_3 
REMARK    2  A    between atoms: C_3  and  O_6 
REMARK    3  A    between atoms: C_3  and  C_4 
REMARK    4  A    between atoms: C_7  and  O_6 
REMARK    5  A    between atoms: C_9  and  C_10 
REMARK    6  A    between atoms: N_15  and  C_14 
REMARK    7  A    between atoms: N_20  and  C_19 
REMARK       I    between atoms: C_22  and  N_20 
ROOT
ATOM      1  C   LIG d   1      -8.359  75.013 117.882  0.00  0.00     0.161 C 
ATOM      2  C   LIG d   1      -9.164  73.886 117.648  0.00  0.00     0.016 C 
ATOM      3  C   LIG d   1     -10.529  73.815 118.010  0.00  0.00     0.038 C 
ATOM      4  C   LIG d   1     -11.225  74.931 118.497  0.00  0.00     0.028 C 
ATOM      5  C   LIG d   1     -10.332  75.934 119.219  0.00  0.00    -0.047 C 
ATOM      6  C   LIG d   1      -9.129  76.279 118.312  0.00  0.00     0.091 C 
ENDROOT
BRANCH   1   7
ATOM      7  O   LIG d   1      -7.553  75.288 116.720  0.00  0.00    -0.368 OA
BRANCH   7   8
ATOM      8  C   LIG d   1      -6.482  74.349 116.451  0.00  0.00     0.119 C 
BRANCH   8   9
ATOM      9  C   LIG d   1      -5.229  74.850 117.195  0.00  0.00     0.028 C 
ATOM     10  C   LIG d   1      -3.954  74.105 116.767  0.00  0.00     0.006 C 
ENDBRANCH   8   9
BRANCH   8  11
ATOM     11  C   LIG d   1      -6.100  74.351 114.968  0.00  0.00     0.028 C 
ATOM     12  C   LIG d   1      -6.545  75.628 114.238  0.00  0.00     0.006 C 
ENDBRANCH   8  11
ENDBRANCH   7   8
ENDBRANCH   1   7
BRANCH   6  13
ATOM     13  N   LIG d   1      -8.162  77.191 118.976  0.00  0.00    -0.311 N 
ATOM     14  C   LIG d   1      -8.150  78.510 118.790  0.00  0.00     0.210 C 
ATOM     15  C   LIG d   1      -7.056  79.261 119.555  0.00  0.00     0.109 C 
ATOM     16  O   LIG d   1      -8.963  79.132 118.089  0.00  0.00    -0.276 OA
ATOM     17  H   LIG d   1      -7.486  76.773 119.586  0.00  0.00     0.149 HD
ENDBRANCH   6  13
BRANCH   5  18
ATOM     18  N   LIG d   1     -11.160  77.109 119.553  0.00  0.00     0.381 N 
ATOM     19  H   LIG d   1     -10.706  77.655 120.257  0.00  0.00    -0.090 HD
ATOM     20  H   LIG d   1     -12.041  76.792 119.919  0.00  0.00    -0.090 HD
ATOM     21  H   LIG d   1     -11.311  77.662 118.739  0.00  0.00    -0.090 HD
ENDBRANCH   5  18
BRANCH   3  22
ATOM     22  C   LIG d   1     -11.201  72.606 117.922  0.00  0.00     0.382 C 
ATOM     23  O   LIG d   1     -10.698  71.654 117.277  0.00  0.00    -0.241 OA
ATOM     24  O   LIG d   1     -12.325  72.468 118.442  0.00  0.00    -0.241 OA
ENDBRANCH   3  22
TORSDOF 7
ENDMDL
MODEL 8
REMARK VINA RESULT:      -4.9      1.932      4.477
REMARK  7 active torsions:
REMARK  status: ('A' for Active; 'I' for Inactive)
REMARK    1  A    between atoms: C_2  and  C_3 
REMARK    2  A    between atoms: C_3  and  O_6 
REMARK    3  A    between atoms: C_3  and  C_4 
REMARK    4  A    between atoms: C_7  and  O_6 
REMARK    5  A    between atoms: C_9  and  C_10 
REMARK    6  A    between atoms: N_15  and  C_14 
REMARK    7  A    between atoms: N_20  and  C_19 
REMARK       I    between atoms: C_22  and  N_20 
ROOT
ATOM      1  C   LIG d   1      -7.352  75.820 117.056  0.00  0.00     0.161 C 
ATOM      2  C   LIG d   1      -7.653  77.168 117.310  0.00  0.00     0.016 C 
ATOM      3  C   LIG d   1      -8.867  77.599 117.893  0.00  0.00     0.038 C 
ATOM      4  C   LIG d   1      -9.806  76.691 118.404  0.00  0.00     0.028 C 
ATOM      5  C   LIG d   1      -9.772  75.331 117.714  0.00  0.00    -0.047 C 
ATOM      6  C   LIG d   1      -8.317  74.808 117.708  0.00  0.00     0.091 C 
ENDROOT
BRANCH   1   7
ATOM      7  O   LIG d   1      -5.993  75.540 117.448  0.00  0.00    -0.368 OA
BRANCH   7   8
ATOM      8  C   LIG d   1      -5.032  75.414 116.371  0.00  0.00     0.119 C 
BRANCH   8   9
ATOM      9  C   LIG d   1      -5.824  75.326 115.052  0.00  0.00     0.028 C 
ATOM     10  C   LIG d   1      -5.673  73.958 114.367  0.00  0.00     0.006 C 
ENDBRANCH   8   9
BRANCH   8  11
ATOM     11  C   LIG d   1      -4.258  74.096 116.467  0.00  0.00     0.028 C 
ATOM     12  C   LIG d   1      -2.734  74.298 116.460  0.00  0.00     0.006 C 
ENDBRANCH   8  11
ENDBRANCH   7   8
ENDBRANCH   1   7
BRANCH   6  13
ATOM     13  N   LIG d   1      -8.181  73.521 116.978  0.00  0.00    -0.311 N 
ATOM     14  C   LIG d   1      -8.383  72.332 117.543  0.00  0.00     0.210 C 
ATOM     15  C   LIG d   1      -8.170  71.131 116.617  0.00  0.00     0.109 C 
ATOM     16  O   LIG d   1      -8.751  72.160 118.715  0.00  0.00    -0.276 OA
ATOM     17  H   LIG d   1      -7.916  73.570 116.013  0.00  0.00     0.149 HD
ENDBRANCH   6  13
BRANCH   5  18
ATOM     18  N   LIG d   1     -10.703  74.442 118.435  0.00  0.00     0.381 N 
ATOM     19  H   LIG d   1     -10.901  73.636 117.877  0.00  0.00    -0.090 HD
ATOM     20  H   LIG d   1     -11.564  74.935 118.595  0.00  0.00    -0.090 HD
ATOM     21  H   LIG d   1     -10.304  74.164 119.304  0.00  0.00    -0.090 HD
ENDBRANCH   5  18
BRANCH   3  22
ATOM     22  C   LIG d   1      -9.168  78.951 117.933  0.00  0.00     0.382 C 
ATOM     23  O   LIG d   1      -8.420  79.778 117.358  0.00  0.00    -0.241 OA
ATOM     24  O   LIG d   1     -10.155  79.360 118.573  0.00  0.00    -0.241 OA
ENDBRANCH   3  22
TORSDOF 7
ENDMDL
MODEL 9
REMARK VINA RESULT:      -4.7      3.164      4.397
REMARK  7 active torsions:
REMARK  status: ('A' for Active; 'I' for Inactive)
REMARK    1  A    between atoms: C_2  and  C_3 
REMARK    2  A    between atoms: C_3  and  O_6 
REMARK    3  A    between atoms: C_3  and  C_4 
REMARK    4  A    between atoms: C_7  and  O_6 
REMARK    5  A    between atoms: C_9  and  C_10 
REMARK    6  A    between atoms: N_15  and  C_14 
REMARK    7  A    between atoms: N_20  and  C_19 
REMARK       I    between atoms: C_22  and  N_20 
ROOT
ATOM      1  C   LIG d   1      -5.398  77.358 117.005  0.00  0.00     0.161 C 
ATOM      2  C   LIG d   1      -6.050  78.581 117.233  0.00  0.00     0.016 C 
ATOM      3  C   LIG d   1      -5.471  79.838 116.944  0.00  0.00     0.038 C 
ATOM      4  C   LIG d   1      -4.250  79.952 116.262  0.00  0.00     0.028 C 
ATOM      5  C   LIG d   1      -3.328  78.756 116.466  0.00  0.00    -0.047 C 
ATOM      6  C   LIG d   1      -4.111  77.459 116.159  0.00  0.00     0.091 C 
ENDROOT
BRANCH   1   7
ATOM      7  O   LIG d   1      -6.315  76.418 116.412  0.00  0.00    -0.368 OA
BRANCH   7   8
ATOM      8  C   LIG d   1      -6.560  75.205 117.164  0.00  0.00     0.119 C 
BRANCH   8   9
ATOM      9  C   LIG d   1      -6.115  74.018 116.287  0.00  0.00     0.028 C 
ATOM     10  C   LIG d   1      -6.039  74.387 114.796  0.00  0.00     0.006 C 
ENDBRANCH   8   9
BRANCH   8  11
ATOM     11  C   LIG d   1      -8.057  74.991 117.406  0.00  0.00     0.028 C 
ATOM     12  C   LIG d   1      -8.821  76.308 117.612  0.00  0.00     0.006 C 
ENDBRANCH   8  11
ENDBRANCH   7   8
ENDBRANCH   1   7
BRANCH   6  13
ATOM     13  N   LIG d   1      -3.307  76.236 116.416  0.00  0.00    -0.311 N 
ATOM     14  C   LIG d   1      -2.593  75.618 115.477  0.00  0.00     0.210 C 
ATOM     15  C   LIG d   1      -1.853  74.362 115.949  0.00  0.00     0.109 C 
ATOM     16  O   LIG d   1      -2.477  76.008 114.306  0.00  0.00    -0.276 OA
ATOM     17  H   LIG d   1      -3.320  75.869 117.348  0.00  0.00     0.149 HD
ENDBRANCH   6  13
BRANCH   5  18
ATOM     18  N   LIG d   1      -2.154  78.943 115.592  0.00  0.00     0.381 N 
ATOM     19  H   LIG d   1      -2.172  79.860 115.194  0.00  0.00    -0.090 HD
ATOM     20  H   LIG d   1      -2.196  78.273 114.844  0.00  0.00    -0.090 HD
ATOM     21  H   LIG d   1      -1.316  78.816 116.115  0.00  0.00    -0.090 HD
ENDBRANCH   5  18
BRANCH   3  22
ATOM     22  C   LIG d   1      -6.096  80.999 117.374  0.00  0.00     0.382 C 
ATOM     23  O   LIG d   1      -5.724  81.555 118.435  0.00  0.00    -0.241 OA
ATOM     24  O   LIG d   1      -7.057  81.472 116.738  0.00  0.00    -0.241 OA
ENDBRANCH   3  22
TORSDOF 7
ENDMDL
