MODEL 1
REMARK VINA RESULT:      -5.6      0.000      0.000
REMARK  7 active torsions:
REMARK  status: ('A' for Active; 'I' for Inactive)
REMARK    1  A    between atoms: C_2  and  C_3 
REMARK    2  A    between atoms: C_3  and  O_6 
REMARK    3  A    between atoms: C_3  and  C_4 
REMARK    4  A    between atoms: C_7  and  O_6 
REMARK    5  A    between atoms: C_9  and  C_10 
REMARK    6  A    between atoms: N_15  and  C_14 
REMARK    7  A    between atoms: N_20  and  C_19 
REMARK       I    between atoms: C_22  and  N_20 
ROOT
ATOM      1  C   LIG d   1      -8.228  75.393 118.150  0.00  0.00     0.161 C 
ATOM      2  C   LIG d   1      -9.351  76.118 118.581  0.00  0.00     0.016 C 
ATOM      3  C   LIG d   1      -9.407  77.531 118.597  0.00  0.00     0.038 C 
ATOM      4  C   LIG d   1      -8.390  78.319 118.037  0.00  0.00     0.028 C 
ATOM      5  C   LIG d   1      -7.023  77.644 118.052  0.00  0.00    -0.047 C 
ATOM      6  C   LIG d   1      -7.152  76.235 117.432  0.00  0.00     0.091 C 
ENDROOT
BRANCH   1   7
ATOM      7  O   LIG d   1      -8.646  74.295 117.315  0.00  0.00    -0.368 OA
BRANCH   7   8
ATOM      8  C   LIG d   1      -8.964  73.059 118.000  0.00  0.00     0.119 C 
BRANCH   8   9
ATOM      9  C   LIG d   1      -8.070  71.955 117.401  0.00  0.00     0.028 C 
ATOM     10  C   LIG d   1      -7.309  72.429 116.151  0.00  0.00     0.006 C 
ENDBRANCH   8   9
BRANCH   8  11
ATOM     11  C   LIG d   1     -10.402  72.617 117.713  0.00  0.00     0.028 C 
ATOM     12  C   LIG d   1     -10.537  71.094 117.559  0.00  0.00     0.006 C 
ENDBRANCH   8  11
ENDBRANCH   7   8
ENDBRANCH   1   7
BRANCH   6  13
ATOM     13  N   LIG d   1      -5.877  75.473 117.484  0.00  0.00    -0.311 N 
ATOM     14  C   LIG d   1      -5.008  75.427 116.475  0.00  0.00     0.210 C 
ATOM     15  C   LIG d   1      -3.766  74.568 116.730  0.00  0.00     0.109 C 
ATOM     16  O   LIG d   1      -5.134  76.042 115.406  0.00  0.00    -0.276 OA
ATOM     17  H   LIG d   1      -5.680  74.970 118.327  0.00  0.00     0.149 HD
ENDBRANCH   6  13
BRANCH   5  18
ATOM     18  N   LIG d   1      -6.088  78.516 117.317  0.00  0.00     0.381 N 
ATOM     19  H   LIG d   1      -6.336  78.538 116.348  0.00  0.00    -0.090 HD
ATOM     20  H   LIG d   1      -5.160  78.139 117.396  0.00  0.00    -0.090 HD
ATOM     21  H   LIG d   1      -6.112  79.438 117.694  0.00  0.00    -0.090 HD
ENDBRANCH   5  18
BRANCH   3  22
ATOM     22  C   LIG d   1     -10.471  78.170 119.215  0.00  0.00     0.382 C 
ATOM     23  O   LIG d   1     -11.551  77.558 119.394  0.00  0.00    -0.241 OA
ATOM     24  O   LIG d   1     -10.379  79.365 119.555  0.00  0.00    -0.241 OA
ENDBRANCH   3  22
TORSDOF 7
ENDMDL
MODEL 2
REMARK VINA RESULT:      -5.2      2.051      5.408
REMARK  7 active torsions:
REMARK  status: ('A' for Active; 'I' for Inactive)
REMARK    1  A    between atoms: C_2  and  C_3 
REMARK    2  A    between atoms: C_3  and  O_6 
REMARK    3  A    between atoms: C_3  and  C_4 
REMARK    4  A    between atoms: C_7  and  O_6 
REMARK    5  A    between atoms: C_9  and  C_10 
REMARK    6  A    between atoms: N_15  and  C_14 
REMARK    7  A    between atoms: N_20  and  C_19 
REMARK       I    between atoms: C_22  and  N_20 
ROOT
ATOM      1  C   LIG d   1      -6.409  75.005 116.713  0.00  0.00     0.161 C 
ATOM      2  C   LIG d   1      -6.950  73.713 116.604  0.00  0.00     0.016 C 
ATOM      3  C   LIG d   1      -8.108  73.293 117.297  0.00  0.00     0.038 C 
ATOM      4  C   LIG d   1      -8.896  74.188 118.035  0.00  0.00     0.028 C 
ATOM      5  C   LIG d   1      -8.112  75.377 118.582  0.00  0.00    -0.047 C 
ATOM      6  C   LIG d   1      -7.318  76.028 117.426  0.00  0.00     0.091 C 
ENDROOT
BRANCH   1   7
ATOM      7  O   LIG d   1      -6.035  75.490 115.409  0.00  0.00    -0.368 OA
BRANCH   7   8
ATOM      8  C   LIG d   1      -4.640  75.339 115.048  0.00  0.00     0.119 C 
BRANCH   8   9
ATOM      9  C   LIG d   1      -3.847  75.114 116.349  0.00  0.00     0.028 C 
ATOM     10  C   LIG d   1      -2.594  74.249 116.131  0.00  0.00     0.006 C 
ENDBRANCH   8   9
BRANCH   8  11
ATOM     11  C   LIG d   1      -4.076  76.630 114.447  0.00  0.00     0.028 C 
ATOM     12  C   LIG d   1      -3.829  77.719 115.502  0.00  0.00     0.006 C 
ENDBRANCH   8  11
ENDBRANCH   7   8
ENDBRANCH   1   7
BRANCH   6  13
ATOM     13  N   LIG d   1      -6.457  77.147 117.891  0.00  0.00    -0.311 N 
ATOM     14  C   LIG d   1      -6.857  78.417 117.916  0.00  0.00     0.210 C 
ATOM     15  C   LIG d   1      -5.806  79.416 118.411  0.00  0.00     0.109 C 
ATOM     16  O   LIG d   1      -7.992  78.808 117.605  0.00  0.00    -0.276 OA
ATOM     17  H   LIG d   1      -5.530  76.916 118.190  0.00  0.00     0.149 HD
ENDBRANCH   6  13
BRANCH   5  18
ATOM     18  N   LIG d   1      -9.079  76.297 119.210  0.00  0.00     0.381 N 
ATOM     19  H   LIG d   1      -8.847  76.425 120.175  0.00  0.00    -0.090 HD
ATOM     20  H   LIG d   1      -9.996  75.891 119.157  0.00  0.00    -0.090 HD
ATOM     21  H   LIG d   1      -9.068  77.175 118.739  0.00  0.00    -0.090 HD
ENDBRANCH   5  18
BRANCH   3  22
ATOM     22  C   LIG d   1      -8.466  71.953 117.288  0.00  0.00     0.382 C 
ATOM     23  O   LIG d   1      -8.614  71.336 118.370  0.00  0.00    -0.241 OA
ATOM     24  O   LIG d   1      -8.601  71.342 116.211  0.00  0.00    -0.241 OA
ENDBRANCH   3  22
TORSDOF 7
ENDMDL
MODEL 3
REMARK VINA RESULT:      -5.2      1.782      2.384
REMARK  7 active torsions:
REMARK  status: ('A' for Active; 'I' for Inactive)
REMARK    1  A    between atoms: C_2  and  C_3 
REMARK    2  A    between atoms: C_3  and  O_6 
REMARK    3  A    between atoms: C_3  and  C_4 
REMARK    4  A    between atoms: C_7  and  O_6 
REMARK    5  A    between atoms: C_9  and  C_10 
REMARK    6  A    between atoms: N_15  and  C_14 
REMARK    7  A    between atoms: N_20  and  C_19 
REMARK       I    between atoms: C_22  and  N_20 
ROOT
ATOM      1  C   LIG d   1      -7.380  76.853 117.649  0.00  0.00     0.161 C 
ATOM      2  C   LIG d   1      -8.637  77.287 118.102  0.00  0.00     0.016 C 
ATOM      3  C   LIG d   1      -8.937  78.640 118.384  0.00  0.00     0.038 C 
ATOM      4  C   LIG d   1      -8.040  79.676 118.085  0.00  0.00     0.028 C 
ATOM      5  C   LIG d   1      -6.580  79.237 118.100  0.00  0.00    -0.047 C 
ATOM      6  C   LIG d   1      -6.425  77.982 117.211  0.00  0.00     0.091 C 
ENDROOT
BRANCH   1   7
ATOM      7  O   LIG d   1      -7.550  75.898 116.582  0.00  0.00    -0.368 OA
BRANCH   7   8
ATOM      8  C   LIG d   1      -6.879  74.625 116.754  0.00  0.00     0.119 C 
BRANCH   8   9
ATOM      9  C   LIG d   1      -6.188  74.283 115.420  0.00  0.00     0.028 C 
ATOM     10  C   LIG d   1      -6.337  75.403 114.377  0.00  0.00     0.006 C 
ENDBRANCH   8   9
BRANCH   8  11
ATOM     11  C   LIG d   1      -7.883  73.494 116.993  0.00  0.00     0.028 C 
ATOM     12  C   LIG d   1      -7.490  72.189 116.281  0.00  0.00     0.006 C 
ENDBRANCH   8  11
ENDBRANCH   7   8
ENDBRANCH   1   7
BRANCH   6  13
ATOM     13  N   LIG d   1      -5.042  77.437 117.236  0.00  0.00    -0.311 N 
ATOM     14  C   LIG d   1      -4.104  77.775 116.354  0.00  0.00     0.210 C 
ATOM     15  C   LIG d   1      -2.752  77.081 116.549  0.00  0.00     0.109 C 
ATOM     16  O   LIG d   1      -4.253  78.609 115.447  0.00  0.00    -0.276 OA
ATOM     17  H   LIG d   1      -4.826  76.777 117.958  0.00  0.00     0.149 HD
ENDBRANCH   6  13
BRANCH   5  18
ATOM     18  N   LIG d   1      -5.767  80.377 117.637  0.00  0.00     0.381 N 
ATOM     19  H   LIG d   1      -6.231  81.236 117.858  0.00  0.00    -0.090 HD
ATOM     20  H   LIG d   1      -5.666  80.321 116.639  0.00  0.00    -0.090 HD
ATOM     21  H   LIG d   1      -4.870  80.355 118.071  0.00  0.00    -0.090 HD
ENDBRANCH   5  18
BRANCH   3  22
ATOM     22  C   LIG d   1     -10.132  78.963 119.009  0.00  0.00     0.382 C 
ATOM     23  O   LIG d   1     -10.324  80.129 119.431  0.00  0.00    -0.241 OA
ATOM     24  O   LIG d   1     -11.003  78.092 119.195  0.00  0.00    -0.241 OA
ENDBRANCH   3  22
TORSDOF 7
ENDMDL
MODEL 4
REMARK VINA RESULT:      -4.9      3.823      5.966
REMARK  7 active torsions:
REMARK  status: ('A' for Active; 'I' for Inactive)
REMARK    1  A    between atoms: C_2  and  C_3 
REMARK    2  A    between atoms: C_3  and  O_6 
REMARK    3  A    between atoms: C_3  and  C_4 
REMARK    4  A    between atoms: C_7  and  O_6 
REMARK    5  A    between atoms: C_9  and  C_10 
REMARK    6  A    between atoms: N_15  and  C_14 
REMARK    7  A    between atoms: N_20  and  C_19 
REMARK       I    between atoms: C_22  and  N_20 
ROOT
ATOM      1  C   LIG d   1      -4.411  74.996 116.539  0.00  0.00     0.161 C 
ATOM      2  C   LIG d   1      -5.332  73.991 116.875  0.00  0.00     0.016 C 
ATOM      3  C   LIG d   1      -6.492  73.713 116.117  0.00  0.00     0.038 C 
ATOM      4  C   LIG d   1      -6.732  74.325 114.878  0.00  0.00     0.028 C 
ATOM      5  C   LIG d   1      -6.092  75.703 114.749  0.00  0.00    -0.047 C 
ATOM      6  C   LIG d   1      -4.598  75.599 115.131  0.00  0.00     0.091 C 
ENDROOT
BRANCH   1   7
ATOM      7  O   LIG d   1      -3.067  74.500 116.697  0.00  0.00    -0.368 OA
BRANCH   7   8
ATOM      8  C   LIG d   1      -2.165  75.336 117.463  0.00  0.00     0.119 C 
BRANCH   8   9
ATOM      9  C   LIG d   1      -0.841  75.428 116.679  0.00  0.00     0.028 C 
ATOM     10  C   LIG d   1      -0.895  74.666 115.344  0.00  0.00     0.006 C 
ENDBRANCH   8   9
BRANCH   8  11
ATOM     11  C   LIG d   1      -1.801  74.684 118.800  0.00  0.00     0.028 C 
ATOM     12  C   LIG d   1      -2.054  73.168 118.812  0.00  0.00     0.006 C 
ENDBRANCH   8  11
ENDBRANCH   7   8
ENDBRANCH   1   7
BRANCH   6  13
ATOM     13  N   LIG d   1      -3.915  76.920 115.113  0.00  0.00    -0.311 N 
ATOM     14  C   LIG d   1      -3.234  77.378 114.064  0.00  0.00     0.210 C 
ATOM     15  C   LIG d   1      -2.591  78.755 114.263  0.00  0.00     0.109 C 
ATOM     16  O   LIG d   1      -3.128  76.791 112.977  0.00  0.00    -0.276 OA
ATOM     17  H   LIG d   1      -3.976  77.476 115.943  0.00  0.00     0.149 HD
ENDBRANCH   6  13
BRANCH   5  18
ATOM     18  N   LIG d   1      -6.304  76.165 113.364  0.00  0.00     0.381 N 
ATOM     19  H   LIG d   1      -7.282  76.291 113.195  0.00  0.00    -0.090 HD
ATOM     20  H   LIG d   1      -5.963  75.463 112.731  0.00  0.00    -0.090 HD
ATOM     21  H   LIG d   1      -5.820  77.023 113.213  0.00  0.00    -0.090 HD
ENDBRANCH   5  18
BRANCH   3  22
ATOM     22  C   LIG d   1      -7.448  72.841 116.617  0.00  0.00     0.382 C 
ATOM     23  O   LIG d   1      -7.521  71.670 116.173  0.00  0.00    -0.241 OA
ATOM     24  O   LIG d   1      -8.266  73.225 117.474  0.00  0.00    -0.241 OA
ENDBRANCH   3  22
TORSDOF 7
ENDMDL
MODEL 5
REMARK VINA RESULT:      -4.8      1.671      4.669
REMARK  7 active torsions:
REMARK  status: ('A' for Active; 'I' for Inactive)
REMARK    1  A    between atoms: C_2  and  C_3 
REMARK    2  A    between atoms: C_3  and  O_6 
REMARK    3  A    between atoms: C_3  and  C_4 
REMARK    4  A    between atoms: C_7  and  O_6 
REMARK    5  A    between atoms: C_9  and  C_10 
REMARK    6  A    between atoms: N_15  and  C_14 
REMARK    7  A    between atoms: N_20  and  C_19 
REMARK       I    between atoms: C_22  and  N_20 
ROOT
ATOM      1  C   LIG d   1      -8.006  74.934 117.605  0.00  0.00     0.161 C 
ATOM      2  C   LIG d   1      -7.114  74.447 116.635  0.00  0.00     0.016 C 
ATOM      3  C   LIG d   1      -5.817  74.974 116.437  0.00  0.00     0.038 C 
ATOM      4  C   LIG d   1      -5.265  75.930 117.303  0.00  0.00     0.028 C 
ATOM      5  C   LIG d   1      -6.310  76.807 117.983  0.00  0.00    -0.047 C 
ATOM      6  C   LIG d   1      -7.380  75.901 118.632  0.00  0.00     0.091 C 
ENDROOT
BRANCH   1   7
ATOM      7  O   LIG d   1      -8.643  73.830 118.280  0.00  0.00    -0.368 OA
BRANCH   7   8
ATOM      8  C   LIG d   1      -9.123  72.757 117.433  0.00  0.00     0.119 C 
BRANCH   8   9
ATOM      9  C   LIG d   1     -10.654  72.691 117.592  0.00  0.00     0.028 C 
ATOM     10  C   LIG d   1     -11.305  74.084 117.591  0.00  0.00     0.006 C 
ENDBRANCH   8   9
BRANCH   8  11
ATOM     11  C   LIG d   1      -8.606  71.397 117.911  0.00  0.00     0.028 C 
ATOM     12  C   LIG d   1      -9.634  70.270 117.724  0.00  0.00     0.006 C 
ENDBRANCH   8  11
ENDBRANCH   7   8
ENDBRANCH   1   7
BRANCH   6  13
ATOM     13  N   LIG d   1      -8.486  76.680 119.247  0.00  0.00    -0.311 N 
ATOM     14  C   LIG d   1      -8.931  77.835 118.755  0.00  0.00     0.210 C 
ATOM     15  C   LIG d   1     -10.065  78.485 119.555  0.00  0.00     0.109 C 
ATOM     16  O   LIG d   1      -8.516  78.367 117.715  0.00  0.00    -0.276 OA
ATOM     17  H   LIG d   1      -8.901  76.306 120.078  0.00  0.00     0.149 HD
ENDBRANCH   6  13
BRANCH   5  18
ATOM     18  N   LIG d   1      -5.608  77.663 118.958  0.00  0.00     0.381 N 
ATOM     19  H   LIG d   1      -6.220  78.388 119.275  0.00  0.00    -0.090 HD
ATOM     20  H   LIG d   1      -4.819  78.090 118.506  0.00  0.00    -0.090 HD
ATOM     21  H   LIG d   1      -5.300  77.116 119.732  0.00  0.00    -0.090 HD
ENDBRANCH   5  18
BRANCH   3  22
ATOM     22  C   LIG d   1      -5.073  74.573 115.338  0.00  0.00     0.382 C 
ATOM     23  O   LIG d   1      -3.821  74.646 115.368  0.00  0.00    -0.241 OA
ATOM     24  O   LIG d   1      -5.640  74.180 114.301  0.00  0.00    -0.241 OA
ENDBRANCH   3  22
TORSDOF 7
ENDMDL
MODEL 6
REMARK VINA RESULT:      -4.8     14.517     16.601
REMARK  7 active torsions:
REMARK  status: ('A' for Active; 'I' for Inactive)
REMARK    1  A    between atoms: C_2  and  C_3 
REMARK    2  A    between atoms: C_3  and  O_6 
REMARK    3  A    between atoms: C_3  and  C_4 
REMARK    4  A    between atoms: C_7  and  O_6 
REMARK    5  A    between atoms: C_9  and  C_10 
REMARK    6  A    between atoms: N_15  and  C_14 
REMARK    7  A    between atoms: N_20  and  C_19 
REMARK       I    between atoms: C_22  and  N_20 
ROOT
ATOM      1  C   LIG d   1      -4.670  90.766 116.935  0.00  0.00     0.161 C 
ATOM      2  C   LIG d   1      -3.549  89.920 116.912  0.00  0.00     0.016 C 
ATOM      3  C   LIG d   1      -2.394  90.136 117.699  0.00  0.00     0.038 C 
ATOM      4  C   LIG d   1      -2.343  91.136 118.681  0.00  0.00     0.028 C 
ATOM      5  C   LIG d   1      -3.255  92.322 118.386  0.00  0.00    -0.047 C 
ATOM      6  C   LIG d   1      -4.677  91.799 118.081  0.00  0.00     0.091 C 
ENDROOT
BRANCH   1   7
ATOM      7  O   LIG d   1      -5.876  89.978 116.963  0.00  0.00    -0.368 OA
BRANCH   7   8
ATOM      8  C   LIG d   1      -6.574  89.836 115.701  0.00  0.00     0.119 C 
BRANCH   8   9
ATOM      9  C   LIG d   1      -5.926  90.813 114.701  0.00  0.00     0.028 C 
ATOM     10  C   LIG d   1      -6.936  91.364 113.681  0.00  0.00     0.006 C 
ENDBRANCH   8   9
BRANCH   8  11
ATOM     11  C   LIG d   1      -8.034  90.284 115.818  0.00  0.00     0.028 C 
ATOM     12  C   LIG d   1      -9.023  89.109 115.775  0.00  0.00     0.006 C 
ENDBRANCH   8  11
ENDBRANCH   7   8
ENDBRANCH   1   7
BRANCH   6  13
ATOM     13  N   LIG d   1      -5.612  92.889 117.699  0.00  0.00    -0.311 N 
ATOM     14  C   LIG d   1      -6.679  93.227 118.421  0.00  0.00     0.210 C 
ATOM     15  C   LIG d   1      -7.522  94.365 117.837  0.00  0.00     0.109 C 
ATOM     16  O   LIG d   1      -6.989  92.714 119.507  0.00  0.00    -0.276 OA
ATOM     17  H   LIG d   1      -5.418  93.379 116.847  0.00  0.00     0.149 HD
ENDBRANCH   6  13
BRANCH   5  18
ATOM     18  N   LIG d   1      -3.208  93.223 119.553  0.00  0.00     0.381 N 
ATOM     19  H   LIG d   1      -3.829  93.994 119.412  0.00  0.00    -0.090 HD
ATOM     20  H   LIG d   1      -2.275  93.584 119.648  0.00  0.00    -0.090 HD
ATOM     21  H   LIG d   1      -3.465  92.726 120.377  0.00  0.00    -0.090 HD
ENDBRANCH   5  18
BRANCH   3  22
ATOM     22  C   LIG d   1      -1.259  89.370 117.479  0.00  0.00     0.382 C 
ATOM     23  O   LIG d   1      -1.286  88.134 117.693  0.00  0.00    -0.241 OA
ATOM     24  O   LIG d   1      -0.197  89.907 117.112  0.00  0.00    -0.241 OA
ENDBRANCH   3  22
TORSDOF 7
ENDMDL
MODEL 7
REMARK VINA RESULT:      -4.7     14.368     15.847
REMARK  7 active torsions:
REMARK  status: ('A' for Active; 'I' for Inactive)
REMARK    1  A    between atoms: C_2  and  C_3 
REMARK    2  A    between atoms: C_3  and  O_6 
REMARK    3  A    between atoms: C_3  and  C_4 
REMARK    4  A    between atoms: C_7  and  O_6 
REMARK    5  A    between atoms: C_9  and  C_10 
REMARK    6  A    between atoms: N_15  and  C_14 
REMARK    7  A    between atoms: N_20  and  C_19 
REMARK       I    between atoms: C_22  and  N_20 
ROOT
ATOM      1  C   LIG d   1       1.224  87.722 116.263  0.00  0.00     0.161 C 
ATOM      2  C   LIG d   1      -0.001  87.554 116.931  0.00  0.00     0.016 C 
ATOM      3  C   LIG d   1      -0.724  88.623 117.509  0.00  0.00     0.038 C 
ATOM      4  C   LIG d   1      -0.343  89.960 117.327  0.00  0.00     0.028 C 
ATOM      5  C   LIG d   1       1.153  90.138 117.091  0.00  0.00    -0.047 C 
ATOM      6  C   LIG d   1       1.599  89.187 115.957  0.00  0.00     0.091 C 
ENDROOT
BRANCH   1   7
ATOM      7  O   LIG d   1       1.231  86.940 115.052  0.00  0.00    -0.368 OA
BRANCH   7   8
ATOM      8  C   LIG d   1       1.795  85.609 115.156  0.00  0.00     0.119 C 
BRANCH   8   9
ATOM      9  C   LIG d   1       3.067  85.712 116.020  0.00  0.00     0.028 C 
ATOM     10  C   LIG d   1       4.354  85.586 115.188  0.00  0.00     0.006 C 
ENDBRANCH   8   9
BRANCH   8  11
ATOM     11  C   LIG d   1       2.272  85.098 113.793  0.00  0.00     0.028 C 
ATOM     12  C   LIG d   1       1.117  84.870 112.805  0.00  0.00     0.006 C 
ENDBRANCH   8  11
ENDBRANCH   7   8
ENDBRANCH   1   7
BRANCH   6  13
ATOM     13  N   LIG d   1       3.065  89.236 115.720  0.00  0.00    -0.311 N 
ATOM     14  C   LIG d   1       3.611  89.243 114.505  0.00  0.00     0.210 C 
ATOM     15  C   LIG d   1       5.143  89.276 114.485  0.00  0.00     0.109 C 
ATOM     16  O   LIG d   1       2.972  89.257 113.442  0.00  0.00    -0.276 OA
ATOM     17  H   LIG d   1       3.657  89.259 116.527  0.00  0.00     0.149 HD
ENDBRANCH   6  13
BRANCH   5  18
ATOM     18  N   LIG d   1       1.389  91.560 116.780  0.00  0.00     0.381 N 
ATOM     19  H   LIG d   1       2.303  91.674 116.388  0.00  0.00    -0.090 HD
ATOM     20  H   LIG d   1       1.344  92.091 117.632  0.00  0.00    -0.090 HD
ATOM     21  H   LIG d   1       0.701  91.888 116.138  0.00  0.00    -0.090 HD
ENDBRANCH   5  18
BRANCH   3  22
ATOM     22  C   LIG d   1      -1.820  88.354 118.315  0.00  0.00     0.382 C 
ATOM     23  O   LIG d   1      -1.728  87.508 119.237  0.00  0.00    -0.241 OA
ATOM     24  O   LIG d   1      -2.912  88.913 118.102  0.00  0.00    -0.241 OA
ENDBRANCH   3  22
TORSDOF 7
ENDMDL
MODEL 8
REMARK VINA RESULT:      -4.6      3.026      4.248
REMARK  7 active torsions:
REMARK  status: ('A' for Active; 'I' for Inactive)
REMARK    1  A    between atoms: C_2  and  C_3 
REMARK    2  A    between atoms: C_3  and  O_6 
REMARK    3  A    between atoms: C_3  and  C_4 
REMARK    4  A    between atoms: C_7  and  O_6 
REMARK    5  A    between atoms: C_9  and  C_10 
REMARK    6  A    between atoms: N_15  and  C_14 
REMARK    7  A    between atoms: N_20  and  C_19 
REMARK       I    between atoms: C_22  and  N_20 
ROOT
ATOM      1  C   LIG d   1      -4.907  76.906 117.939  0.00  0.00     0.161 C 
ATOM      2  C   LIG d   1      -5.628  78.099 118.110  0.00  0.00     0.016 C 
ATOM      3  C   LIG d   1      -5.234  79.334 117.545  0.00  0.00     0.038 C 
ATOM      4  C   LIG d   1      -4.166  79.428 116.640  0.00  0.00     0.028 C 
ATOM      5  C   LIG d   1      -3.108  78.347 116.837  0.00  0.00    -0.047 C 
ATOM      6  C   LIG d   1      -3.801  76.966 116.865  0.00  0.00     0.091 C 
ENDROOT
BRANCH   1   7
ATOM      7  O   LIG d   1      -5.816  75.821 117.663  0.00  0.00    -0.368 OA
BRANCH   7   8
ATOM      8  C   LIG d   1      -6.944  76.136 116.811  0.00  0.00     0.119 C 
BRANCH   8   9
ATOM      9  C   LIG d   1      -8.176  75.413 117.388  0.00  0.00     0.028 C 
ATOM     10  C   LIG d   1      -9.104  76.363 118.163  0.00  0.00     0.006 C 
ENDBRANCH   8   9
BRANCH   8  11
ATOM     11  C   LIG d   1      -6.757  75.560 115.404  0.00  0.00     0.028 C 
ATOM     12  C   LIG d   1      -6.372  74.072 115.416  0.00  0.00     0.006 C 
ENDBRANCH   8  11
ENDBRANCH   7   8
ENDBRANCH   1   7
BRANCH   6  13
ATOM     13  N   LIG d   1      -2.848  75.859 117.138  0.00  0.00    -0.311 N 
ATOM     14  C   LIG d   1      -2.560  74.905 116.255  0.00  0.00     0.210 C 
ATOM     15  C   LIG d   1      -1.567  73.847 116.746  0.00  0.00     0.109 C 
ATOM     16  O   LIG d   1      -3.008  74.852 115.100  0.00  0.00    -0.276 OA
ATOM     17  H   LIG d   1      -2.415  75.842 118.041  0.00  0.00     0.149 HD
ENDBRANCH   6  13
BRANCH   5  18
ATOM     18  N   LIG d   1      -2.126  78.480 115.744  0.00  0.00     0.381 N 
ATOM     19  H   LIG d   1      -2.013  79.445 115.506  0.00  0.00    -0.090 HD
ATOM     20  H   LIG d   1      -2.473  77.994 114.936  0.00  0.00    -0.090 HD
ATOM     21  H   LIG d   1      -1.251  78.094 116.023  0.00  0.00    -0.090 HD
ENDBRANCH   5  18
BRANCH   3  22
ATOM     22  C   LIG d   1      -5.887  80.499 117.916  0.00  0.00     0.382 C 
ATOM     23  O   LIG d   1      -6.817  80.950 117.204  0.00  0.00    -0.241 OA
ATOM     24  O   LIG d   1      -5.529  81.129 118.929  0.00  0.00    -0.241 OA
ENDBRANCH   3  22
TORSDOF 7
ENDMDL
MODEL 9
REMARK VINA RESULT:      -4.5      2.382      5.239
REMARK  7 active torsions:
REMARK  status: ('A' for Active; 'I' for Inactive)
REMARK    1  A    between atoms: C_2  and  C_3 
REMARK    2  A    between atoms: C_3  and  O_6 
REMARK    3  A    between atoms: C_3  and  C_4 
REMARK    4  A    between atoms: C_7  and  O_6 
REMARK    5  A    between atoms: C_9  and  C_10 
REMARK    6  A    between atoms: N_15  and  C_14 
REMARK    7  A    between atoms: N_20  and  C_19 
REMARK       I    between atoms: C_22  and  N_20 
ROOT
ATOM      1  C   LIG d   1      -6.788  77.747 117.531  0.00  0.00     0.161 C 
ATOM      2  C   LIG d   1      -6.682  76.845 116.459  0.00  0.00     0.016 C 
ATOM      3  C   LIG d   1      -5.492  76.651 115.721  0.00  0.00     0.038 C 
ATOM      4  C   LIG d   1      -4.277  77.240 116.103  0.00  0.00     0.028 C 
ATOM      5  C   LIG d   1      -4.453  78.546 116.870  0.00  0.00    -0.047 C 
ATOM      6  C   LIG d   1      -5.445  78.316 118.033  0.00  0.00     0.091 C 
ENDROOT
BRANCH   1   7
ATOM      7  O   LIG d   1      -7.509  77.132 118.617  0.00  0.00    -0.368 OA
BRANCH   7   8
ATOM      8  C   LIG d   1      -8.660  76.334 118.247  0.00  0.00     0.119 C 
BRANCH   8   9
ATOM      9  C   LIG d   1      -9.913  77.047 118.791  0.00  0.00     0.028 C 
ATOM     10  C   LIG d   1      -9.783  78.579 118.745  0.00  0.00     0.006 C 
ENDBRANCH   8   9
BRANCH   8  11
ATOM     11  C   LIG d   1      -8.638  74.968 118.940  0.00  0.00     0.028 C 
ATOM     12  C   LIG d   1      -9.381  73.883 118.144  0.00  0.00     0.006 C 
ENDBRANCH   8  11
ENDBRANCH   7   8
ENDBRANCH   1   7
BRANCH   6  13
ATOM     13  N   LIG d   1      -5.738  79.564 118.784  0.00  0.00    -0.311 N 
ATOM     14  C   LIG d   1      -6.233  80.663 118.216  0.00  0.00     0.210 C 
ATOM     15  C   LIG d   1      -6.442  81.845 119.168  0.00  0.00     0.109 C 
ATOM     16  O   LIG d   1      -6.549  80.759 117.021  0.00  0.00    -0.276 OA
ATOM     17  H   LIG d   1      -5.541  79.563 119.766  0.00  0.00     0.149 HD
ENDBRANCH   6  13
BRANCH   5  18
ATOM     18  N   LIG d   1      -3.118  78.979 117.326  0.00  0.00     0.381 N 
ATOM     19  H   LIG d   1      -2.472  78.219 117.250  0.00  0.00    -0.090 HD
ATOM     20  H   LIG d   1      -3.176  79.248 118.292  0.00  0.00    -0.090 HD
ATOM     21  H   LIG d   1      -2.803  79.748 116.777  0.00  0.00    -0.090 HD
ENDBRANCH   5  18
BRANCH   3  22
ATOM     22  C   LIG d   1      -5.519  75.891 114.561  0.00  0.00     0.382 C 
ATOM     23  O   LIG d   1      -4.967  74.765 114.537  0.00  0.00    -0.241 OA
ATOM     24  O   LIG d   1      -6.048  76.337 113.526  0.00  0.00    -0.241 OA
ENDBRANCH   3  22
TORSDOF 7
ENDMDL
