MODEL 1
REMARK VINA RESULT:      -4.9      0.000      0.000
REMARK  7 active torsions:
REMARK  status: ('A' for Active; 'I' for Inactive)
REMARK    1  A    between atoms: C_2  and  C_3 
REMARK    2  A    between atoms: C_3  and  O_6 
REMARK    3  A    between atoms: C_3  and  C_4 
REMARK    4  A    between atoms: C_7  and  O_6 
REMARK    5  A    between atoms: C_9  and  C_10 
REMARK    6  A    between atoms: N_15  and  C_14 
REMARK    7  A    between atoms: N_20  and  C_19 
REMARK       I    between atoms: C_22  and  N_20 
ROOT
ATOM      1  C   LIG d   1      -5.571  79.121 117.722  0.00  0.00     0.161 C 
ATOM      2  C   LIG d   1      -6.838  78.518 117.784  0.00  0.00     0.016 C 
ATOM      3  C   LIG d   1      -8.034  79.241 117.996  0.00  0.00     0.038 C 
ATOM      4  C   LIG d   1      -8.061  80.644 118.008  0.00  0.00     0.028 C 
ATOM      5  C   LIG d   1      -6.744  81.271 118.453  0.00  0.00    -0.047 C 
ATOM      6  C   LIG d   1      -5.592  80.661 117.622  0.00  0.00     0.091 C 
ENDROOT
BRANCH   1   7
ATOM      7  O   LIG d   1      -4.815  78.559 116.631  0.00  0.00    -0.368 OA
BRANCH   7   8
ATOM      8  C   LIG d   1      -3.937  77.456 116.965  0.00  0.00     0.119 C 
BRANCH   8   9
ATOM      9  C   LIG d   1      -2.528  78.038 117.188  0.00  0.00     0.028 C 
ATOM     10  C   LIG d   1      -2.161  78.133 118.679  0.00  0.00     0.006 C 
ENDBRANCH   8   9
BRANCH   8  11
ATOM     11  C   LIG d   1      -3.793  76.483 115.792  0.00  0.00     0.028 C 
ATOM     12  C   LIG d   1      -2.410  75.815 115.738  0.00  0.00     0.006 C 
ENDBRANCH   8  11
ENDBRANCH   7   8
ENDBRANCH   1   7
BRANCH   6  13
ATOM     13  N   LIG d   1      -4.258  81.158 118.051  0.00  0.00    -0.311 N 
ATOM     14  C   LIG d   1      -3.324  81.578 117.200  0.00  0.00     0.210 C 
ATOM     15  C   LIG d   1      -2.013  82.030 117.852  0.00  0.00     0.109 C 
ATOM     16  O   LIG d   1      -3.468  81.650 115.971  0.00  0.00    -0.276 OA
ATOM     17  H   LIG d   1      -4.069  81.163 119.034  0.00  0.00     0.149 HD
ENDBRANCH   6  13
BRANCH   5  18
ATOM     18  N   LIG d   1      -6.866  82.731 118.287  0.00  0.00     0.381 N 
ATOM     19  H   LIG d   1      -6.343  83.027 117.488  0.00  0.00    -0.090 HD
ATOM     20  H   LIG d   1      -6.485  83.184 119.099  0.00  0.00    -0.090 HD
ATOM     21  H   LIG d   1      -7.824  82.983 118.177  0.00  0.00    -0.090 HD
ENDBRANCH   5  18
BRANCH   3  22
ATOM     22  C   LIG d   1      -9.217  78.558 118.237  0.00  0.00     0.382 C 
ATOM     23  O   LIG d   1      -9.277  77.321 118.042  0.00  0.00    -0.241 OA
ATOM     24  O   LIG d   1     -10.237  79.172 118.606  0.00  0.00    -0.241 OA
ENDBRANCH   3  22
TORSDOF 7
ENDMDL
MODEL 2
REMARK VINA RESULT:      -4.9      9.588     11.898
REMARK  7 active torsions:
REMARK  status: ('A' for Active; 'I' for Inactive)
REMARK    1  A    between atoms: C_2  and  C_3 
REMARK    2  A    between atoms: C_3  and  O_6 
REMARK    3  A    between atoms: C_3  and  C_4 
REMARK    4  A    between atoms: C_7  and  O_6 
REMARK    5  A    between atoms: C_9  and  C_10 
REMARK    6  A    between atoms: N_15  and  C_14 
REMARK    7  A    between atoms: N_20  and  C_19 
REMARK       I    between atoms: C_22  and  N_20 
ROOT
ATOM      1  C   LIG d   1       0.888  88.834 116.530  0.00  0.00     0.161 C 
ATOM      2  C   LIG d   1      -0.489  88.937 116.788  0.00  0.00     0.016 C 
ATOM      3  C   LIG d   1      -1.104  90.113 117.276  0.00  0.00     0.038 C 
ATOM      4  C   LIG d   1      -0.401  91.321 117.396  0.00  0.00     0.028 C 
ATOM      5  C   LIG d   1       1.094  91.132 117.628  0.00  0.00    -0.047 C 
ATOM      6  C   LIG d   1       1.652  90.175 116.550  0.00  0.00     0.091 C 
ENDROOT
BRANCH   1   7
ATOM      7  O   LIG d   1       1.102  88.155 115.277  0.00  0.00    -0.368 OA
BRANCH   7   8
ATOM      8  C   LIG d   1       1.516  86.769 115.366  0.00  0.00     0.119 C 
BRANCH   8   9
ATOM      9  C   LIG d   1       2.817  86.623 114.553  0.00  0.00     0.028 C 
ATOM     10  C   LIG d   1       2.686  87.189 113.129  0.00  0.00     0.006 C 
ENDBRANCH   8   9
BRANCH   8  11
ATOM     11  C   LIG d   1       0.506  85.841 114.685  0.00  0.00     0.028 C 
ATOM     12  C   LIG d   1       0.683  84.369 115.090  0.00  0.00     0.006 C 
ENDBRANCH   8  11
ENDBRANCH   7   8
ENDBRANCH   1   7
BRANCH   6  13
ATOM     13  N   LIG d   1       3.092  89.869 116.754  0.00  0.00    -0.311 N 
ATOM     14  C   LIG d   1       3.993  89.899 115.774  0.00  0.00     0.210 C 
ATOM     15  C   LIG d   1       5.419  89.531 116.196  0.00  0.00     0.109 C 
ATOM     16  O   LIG d   1       3.754  90.225 114.602  0.00  0.00    -0.276 OA
ATOM     17  H   LIG d   1       3.380  89.624 117.681  0.00  0.00     0.149 HD
ENDBRANCH   6  13
BRANCH   5  18
ATOM     18  N   LIG d   1       1.722  92.466 117.597  0.00  0.00     0.381 N 
ATOM     19  H   LIG d   1       1.829  92.812 118.530  0.00  0.00    -0.090 HD
ATOM     20  H   LIG d   1       1.123  93.096 117.094  0.00  0.00    -0.090 HD
ATOM     21  H   LIG d   1       2.611  92.414 117.151  0.00  0.00    -0.090 HD
ENDBRANCH   5  18
BRANCH   3  22
ATOM     22  C   LIG d   1      -2.427  90.077 117.687  0.00  0.00     0.382 C 
ATOM     23  O   LIG d   1      -3.026  88.978 117.778  0.00  0.00    -0.241 OA
ATOM     24  O   LIG d   1      -3.044  91.132 117.924  0.00  0.00    -0.241 OA
ENDBRANCH   3  22
TORSDOF 7
ENDMDL
MODEL 3
REMARK VINA RESULT:      -4.6      2.060      2.850
REMARK  7 active torsions:
REMARK  status: ('A' for Active; 'I' for Inactive)
REMARK    1  A    between atoms: C_2  and  C_3 
REMARK    2  A    between atoms: C_3  and  O_6 
REMARK    3  A    between atoms: C_3  and  C_4 
REMARK    4  A    between atoms: C_7  and  O_6 
REMARK    5  A    between atoms: C_9  and  C_10 
REMARK    6  A    between atoms: N_15  and  C_14 
REMARK    7  A    between atoms: N_20  and  C_19 
REMARK       I    between atoms: C_22  and  N_20 
ROOT
ATOM      1  C   LIG d   1      -6.799  77.603 117.447  0.00  0.00     0.161 C 
ATOM      2  C   LIG d   1      -8.171  77.680 117.738  0.00  0.00     0.016 C 
ATOM      3  C   LIG d   1      -8.763  78.772 118.415  0.00  0.00     0.038 C 
ATOM      4  C   LIG d   1      -8.042  79.938 118.714  0.00  0.00     0.028 C 
ATOM      5  C   LIG d   1      -6.547  79.697 118.890  0.00  0.00    -0.047 C 
ATOM      6  C   LIG d   1      -6.017  78.915 117.666  0.00  0.00     0.091 C 
ENDROOT
BRANCH   1   7
ATOM      7  O   LIG d   1      -6.613  77.128 116.099  0.00  0.00    -0.368 OA
BRANCH   7   8
ATOM      8  C   LIG d   1      -6.330  75.714 115.955  0.00  0.00     0.119 C 
BRANCH   8   9
ATOM      9  C   LIG d   1      -5.293  75.562 114.825  0.00  0.00     0.028 C 
ATOM     10  C   LIG d   1      -3.848  75.706 115.331  0.00  0.00     0.006 C 
ENDBRANCH   8   9
BRANCH   8  11
ATOM     11  C   LIG d   1      -7.565  74.945 115.478  0.00  0.00     0.028 C 
ATOM     12  C   LIG d   1      -8.205  74.098 116.590  0.00  0.00     0.006 C 
ENDBRANCH   8  11
ENDBRANCH   7   8
ENDBRANCH   1   7
BRANCH   6  13
ATOM     13  N   LIG d   1      -4.579  78.564 117.797  0.00  0.00    -0.311 N 
ATOM     14  C   LIG d   1      -3.639  79.000 116.959  0.00  0.00     0.210 C 
ATOM     15  C   LIG d   1      -2.222  78.503 117.263  0.00  0.00     0.109 C 
ATOM     16  O   LIG d   1      -3.839  79.776 116.013  0.00  0.00    -0.276 OA
ATOM     17  H   LIG d   1      -4.323  77.964 118.556  0.00  0.00     0.149 HD
ENDBRANCH   6  13
BRANCH   5  18
ATOM     18  N   LIG d   1      -5.901  81.012 119.060  0.00  0.00     0.381 N 
ATOM     19  H   LIG d   1      -5.156  80.940 119.724  0.00  0.00    -0.090 HD
ATOM     20  H   LIG d   1      -6.578  81.663 119.415  0.00  0.00    -0.090 HD
ATOM     21  H   LIG d   1      -5.546  81.333 118.186  0.00  0.00    -0.090 HD
ENDBRANCH   5  18
BRANCH   3  22
ATOM     22  C   LIG d   1     -10.082  78.687 118.835  0.00  0.00     0.382 C 
ATOM     23  O   LIG d   1     -10.801  77.732 118.454  0.00  0.00    -0.241 OA
ATOM     24  O   LIG d   1     -10.574  79.576 119.555  0.00  0.00    -0.241 OA
ENDBRANCH   3  22
TORSDOF 7
ENDMDL
MODEL 4
REMARK VINA RESULT:      -4.6     12.106     14.541
REMARK  7 active torsions:
REMARK  status: ('A' for Active; 'I' for Inactive)
REMARK    1  A    between atoms: C_2  and  C_3 
REMARK    2  A    between atoms: C_3  and  O_6 
REMARK    3  A    between atoms: C_3  and  C_4 
REMARK    4  A    between atoms: C_7  and  O_6 
REMARK    5  A    between atoms: C_9  and  C_10 
REMARK    6  A    between atoms: N_15  and  C_14 
REMARK    7  A    between atoms: N_20  and  C_19 
REMARK       I    between atoms: C_22  and  N_20 
ROOT
ATOM      1  C   LIG d   1       2.523  89.997 117.051  0.00  0.00     0.161 C 
ATOM      2  C   LIG d   1       2.425  89.325 115.822  0.00  0.00     0.016 C 
ATOM      3  C   LIG d   1       3.547  88.956 115.045  0.00  0.00     0.038 C 
ATOM      4  C   LIG d   1       4.858  89.101 115.521  0.00  0.00     0.028 C 
ATOM      5  C   LIG d   1       5.014  90.232 116.532  0.00  0.00    -0.047 C 
ATOM      6  C   LIG d   1       3.948  90.065 117.639  0.00  0.00     0.091 C 
ENDROOT
BRANCH   1   7
ATOM      7  O   LIG d   1       1.615  89.408 118.004  0.00  0.00    -0.368 OA
BRANCH   7   8
ATOM      8  C   LIG d   1       0.626  90.299 118.576  0.00  0.00     0.119 C 
BRANCH   8   9
ATOM      9  C   LIG d   1      -0.714  89.538 118.615  0.00  0.00     0.028 C 
ATOM     10  C   LIG d   1      -1.365  89.424 117.227  0.00  0.00     0.006 C 
ENDBRANCH   8   9
BRANCH   8  11
ATOM     11  C   LIG d   1       0.378  91.510 117.672  0.00  0.00     0.028 C 
ATOM     12  C   LIG d   1       0.117  92.801 118.464  0.00  0.00     0.006 C 
ENDBRANCH   8  11
ENDBRANCH   7   8
ENDBRANCH   1   7
BRANCH   6  13
ATOM     13  N   LIG d   1       3.975  91.177 118.625  0.00  0.00    -0.311 N 
ATOM     14  C   LIG d   1       3.804  92.455 118.292  0.00  0.00     0.210 C 
ATOM     15  C   LIG d   1       3.890  93.444 119.460  0.00  0.00     0.109 C 
ATOM     16  O   LIG d   1       3.558  92.861 117.147  0.00  0.00    -0.276 OA
ATOM     17  H   LIG d   1       4.138  90.934 119.582  0.00  0.00     0.149 HD
ENDBRANCH   6  13
BRANCH   5  18
ATOM     18  N   LIG d   1       6.395  90.182 117.047  0.00  0.00     0.381 N 
ATOM     19  H   LIG d   1       6.414  90.495 117.998  0.00  0.00    -0.090 HD
ATOM     20  H   LIG d   1       6.968  90.800 116.501  0.00  0.00    -0.090 HD
ATOM     21  H   LIG d   1       6.748  89.252 116.989  0.00  0.00    -0.090 HD
ENDBRANCH   5  18
BRANCH   3  22
ATOM     22  C   LIG d   1       3.363  88.471 113.759  0.00  0.00     0.382 C 
ATOM     23  O   LIG d   1       4.313  87.915 113.156  0.00  0.00    -0.241 OA
ATOM     24  O   LIG d   1       2.272  88.621 113.177  0.00  0.00    -0.241 OA
ENDBRANCH   3  22
TORSDOF 7
ENDMDL
MODEL 5
REMARK VINA RESULT:      -4.5      8.846     11.957
REMARK  7 active torsions:
REMARK  status: ('A' for Active; 'I' for Inactive)
REMARK    1  A    between atoms: C_2  and  C_3 
REMARK    2  A    between atoms: C_3  and  O_6 
REMARK    3  A    between atoms: C_3  and  C_4 
REMARK    4  A    between atoms: C_7  and  O_6 
REMARK    5  A    between atoms: C_9  and  C_10 
REMARK    6  A    between atoms: N_15  and  C_14 
REMARK    7  A    between atoms: N_20  and  C_19 
REMARK       I    between atoms: C_22  and  N_20 
ROOT
ATOM      1  C   LIG d   1       2.511  85.994 114.497  0.00  0.00     0.161 C 
ATOM      2  C   LIG d   1       3.067  87.114 113.857  0.00  0.00     0.016 C 
ATOM      3  C   LIG d   1       4.202  87.804 114.341  0.00  0.00     0.038 C 
ATOM      4  C   LIG d   1       4.954  87.325 115.425  0.00  0.00     0.028 C 
ATOM      5  C   LIG d   1       4.139  86.487 116.404  0.00  0.00    -0.047 C 
ATOM      6  C   LIG d   1       3.383  85.391 115.618  0.00  0.00     0.091 C 
ENDROOT
BRANCH   1   7
ATOM      7  O   LIG d   1       2.182  84.986 113.521  0.00  0.00    -0.368 OA
BRANCH   7   8
ATOM      8  C   LIG d   1       0.771  84.771 113.277  0.00  0.00     0.119 C 
BRANCH   8   9
ATOM      9  C   LIG d   1      -0.010  85.598 114.316  0.00  0.00     0.028 C 
ATOM     10  C   LIG d   1      -1.525  85.598 114.049  0.00  0.00     0.006 C 
ENDBRANCH   8   9
BRANCH   8  11
ATOM     11  C   LIG d   1       0.375  83.315 113.538  0.00  0.00     0.028 C 
ATOM     12  C   LIG d   1       1.458  82.316 113.099  0.00  0.00     0.006 C 
ENDBRANCH   8  11
ENDBRANCH   7   8
ENDBRANCH   1   7
BRANCH   6  13
ATOM     13  N   LIG d   1       2.496  84.578 116.490  0.00  0.00    -0.311 N 
ATOM     14  C   LIG d   1       2.592  83.255 116.604  0.00  0.00     0.210 C 
ATOM     15  C   LIG d   1       1.567  82.610 117.542  0.00  0.00     0.109 C 
ATOM     16  O   LIG d   1       3.451  82.557 116.043  0.00  0.00    -0.276 OA
ATOM     17  H   LIG d   1       1.790  85.067 117.006  0.00  0.00     0.149 HD
ENDBRANCH   6  13
BRANCH   5  18
ATOM     18  N   LIG d   1       5.073  85.939 117.406  0.00  0.00     0.381 N 
ATOM     19  H   LIG d   1       6.016  86.074 117.100  0.00  0.00    -0.090 HD
ATOM     20  H   LIG d   1       4.909  84.952 117.498  0.00  0.00    -0.090 HD
ATOM     21  H   LIG d   1       4.933  86.389 118.284  0.00  0.00    -0.090 HD
ENDBRANCH   5  18
BRANCH   3  22
ATOM     22  C   LIG d   1       4.572  89.009 113.764  0.00  0.00     0.382 C 
ATOM     23  O   LIG d   1       3.797  89.994 113.816  0.00  0.00    -0.241 OA
ATOM     24  O   LIG d   1       5.653  89.111 113.153  0.00  0.00    -0.241 OA
ENDBRANCH   3  22
TORSDOF 7
ENDMDL
MODEL 6
REMARK VINA RESULT:      -4.5      4.323      6.540
REMARK  7 active torsions:
REMARK  status: ('A' for Active; 'I' for Inactive)
REMARK    1  A    between atoms: C_2  and  C_3 
REMARK    2  A    between atoms: C_3  and  O_6 
REMARK    3  A    between atoms: C_3  and  C_4 
REMARK    4  A    between atoms: C_7  and  O_6 
REMARK    5  A    between atoms: C_9  and  C_10 
REMARK    6  A    between atoms: N_15  and  C_14 
REMARK    7  A    between atoms: N_20  and  C_19 
REMARK       I    between atoms: C_22  and  N_20 
ROOT
ATOM      1  C   LIG d   1      -1.182  79.344 116.187  0.00  0.00     0.161 C 
ATOM      2  C   LIG d   1      -1.589  80.394 115.347  0.00  0.00     0.016 C 
ATOM      3  C   LIG d   1      -2.162  80.192 114.070  0.00  0.00     0.038 C 
ATOM      4  C   LIG d   1      -2.508  78.914 113.607  0.00  0.00     0.028 C 
ATOM      5  C   LIG d   1      -1.655  77.801 114.206  0.00  0.00    -0.047 C 
ATOM      6  C   LIG d   1      -1.654  77.943 115.745  0.00  0.00     0.091 C 
ENDROOT
BRANCH   1   7
ATOM      7  O   LIG d   1      -1.601  79.611 117.540  0.00  0.00    -0.368 OA
BRANCH   7   8
ATOM      8  C   LIG d   1      -2.858  80.315 117.691  0.00  0.00     0.119 C 
BRANCH   8   9
ATOM      9  C   LIG d   1      -2.668  81.369 118.799  0.00  0.00     0.028 C 
ATOM     10  C   LIG d   1      -1.368  82.174 118.627  0.00  0.00     0.006 C 
ENDBRANCH   8   9
BRANCH   8  11
ATOM     11  C   LIG d   1      -3.961  79.384 118.202  0.00  0.00     0.028 C 
ATOM     12  C   LIG d   1      -3.418  78.240 119.074  0.00  0.00     0.006 C 
ENDBRANCH   8  11
ENDBRANCH   7   8
ENDBRANCH   1   7
BRANCH   6  13
ATOM     13  N   LIG d   1      -0.775  76.944 116.406  0.00  0.00    -0.311 N 
ATOM     14  C   LIG d   1      -1.179  75.720 116.743  0.00  0.00     0.210 C 
ATOM     15  C   LIG d   1      -0.119  74.855 117.432  0.00  0.00     0.109 C 
ATOM     16  O   LIG d   1      -2.306  75.258 116.507  0.00  0.00    -0.276 OA
ATOM     17  H   LIG d   1       0.165  77.224 116.606  0.00  0.00     0.149 HD
ENDBRANCH   6  13
BRANCH   5  18
ATOM     18  N   LIG d   1      -2.212  76.516 113.744  0.00  0.00     0.381 N 
ATOM     19  H   LIG d   1      -2.327  75.897 114.523  0.00  0.00    -0.090 HD
ATOM     20  H   LIG d   1      -1.567  76.094 113.100  0.00  0.00    -0.090 HD
ATOM     21  H   LIG d   1      -3.090  76.665 113.297  0.00  0.00    -0.090 HD
ENDBRANCH   5  18
BRANCH   3  22
ATOM     22  C   LIG d   1      -2.357  81.274 113.226  0.00  0.00     0.382 C 
ATOM     23  O   LIG d   1      -1.390  82.011 112.916  0.00  0.00    -0.241 OA
ATOM     24  O   LIG d   1      -3.497  81.550 112.805  0.00  0.00    -0.241 OA
ENDBRANCH   3  22
TORSDOF 7
ENDMDL
MODEL 7
REMARK VINA RESULT:      -4.5      4.285      5.308
REMARK  7 active torsions:
REMARK  status: ('A' for Active; 'I' for Inactive)
REMARK    1  A    between atoms: C_2  and  C_3 
REMARK    2  A    between atoms: C_3  and  O_6 
REMARK    3  A    between atoms: C_3  and  C_4 
REMARK    4  A    between atoms: C_7  and  O_6 
REMARK    5  A    between atoms: C_9  and  C_10 
REMARK    6  A    between atoms: N_15  and  C_14 
REMARK    7  A    between atoms: N_20  and  C_19 
REMARK       I    between atoms: C_22  and  N_20 
ROOT
ATOM      1  C   LIG d   1      -2.767  77.702 117.006  0.00  0.00     0.161 C 
ATOM      2  C   LIG d   1      -2.898  76.764 115.969  0.00  0.00     0.016 C 
ATOM      3  C   LIG d   1      -2.671  77.072 114.608  0.00  0.00     0.038 C 
ATOM      4  C   LIG d   1      -2.147  78.310 114.205  0.00  0.00     0.028 C 
ATOM      5  C   LIG d   1      -2.479  79.449 115.163  0.00  0.00    -0.047 C 
ATOM      6  C   LIG d   1      -2.089  79.027 116.598  0.00  0.00     0.091 C 
ENDROOT
BRANCH   1   7
ATOM      7  O   LIG d   1      -2.072  77.106 118.119  0.00  0.00    -0.368 OA
BRANCH   7   8
ATOM      8  C   LIG d   1      -1.326  75.898 117.831  0.00  0.00     0.119 C 
BRANCH   8   9
ATOM      9  C   LIG d   1      -1.489  74.954 119.039  0.00  0.00     0.028 C 
ATOM     10  C   LIG d   1      -0.887  73.562 118.781  0.00  0.00     0.006 C 
ENDBRANCH   8   9
BRANCH   8  11
ATOM     11  C   LIG d   1       0.177  76.180 117.738  0.00  0.00     0.028 C 
ATOM     12  C   LIG d   1       0.602  77.417 118.545  0.00  0.00     0.006 C 
ENDBRANCH   8  11
ENDBRANCH   7   8
ENDBRANCH   1   7
BRANCH   6  13
ATOM     13  N   LIG d   1      -2.458  80.051 117.610  0.00  0.00    -0.311 N 
ATOM     14  C   LIG d   1      -1.621  80.996 118.036  0.00  0.00     0.210 C 
ATOM     15  C   LIG d   1      -2.196  81.939 119.097  0.00  0.00     0.109 C 
ATOM     16  O   LIG d   1      -0.467  81.162 117.612  0.00  0.00    -0.276 OA
ATOM     17  H   LIG d   1      -3.385  80.009 117.985  0.00  0.00     0.149 HD
ENDBRANCH   6  13
BRANCH   5  18
ATOM     18  N   LIG d   1      -1.758  80.648 114.697  0.00  0.00     0.381 N 
ATOM     19  H   LIG d   1      -2.408  81.388 114.523  0.00  0.00    -0.090 HD
ATOM     20  H   LIG d   1      -1.289  80.431 113.835  0.00  0.00    -0.090 HD
ATOM     21  H   LIG d   1      -1.093  80.934 115.382  0.00  0.00    -0.090 HD
ENDBRANCH   5  18
BRANCH   3  22
ATOM     22  C   LIG d   1      -3.006  76.149 113.629  0.00  0.00     0.382 C 
ATOM     23  O   LIG d   1      -2.121  75.412 113.132  0.00  0.00    -0.241 OA
ATOM     24  O   LIG d   1      -4.175  76.076 113.204  0.00  0.00    -0.241 OA
ENDBRANCH   3  22
TORSDOF 7
ENDMDL
MODEL 8
REMARK VINA RESULT:      -4.4      3.643      6.132
REMARK  7 active torsions:
REMARK  status: ('A' for Active; 'I' for Inactive)
REMARK    1  A    between atoms: C_2  and  C_3 
REMARK    2  A    between atoms: C_3  and  O_6 
REMARK    3  A    between atoms: C_3  and  C_4 
REMARK    4  A    between atoms: C_7  and  O_6 
REMARK    5  A    between atoms: C_9  and  C_10 
REMARK    6  A    between atoms: N_15  and  C_14 
REMARK    7  A    between atoms: N_20  and  C_19 
REMARK       I    between atoms: C_22  and  N_20 
ROOT
ATOM      1  C   LIG d   1      -1.722  78.277 116.074  0.00  0.00     0.161 C 
ATOM      2  C   LIG d   1      -2.880  77.801 115.437  0.00  0.00     0.016 C 
ATOM      3  C   LIG d   1      -3.146  76.428 115.230  0.00  0.00     0.038 C 
ATOM      4  C   LIG d   1      -2.338  75.424 115.786  0.00  0.00     0.028 C 
ATOM      5  C   LIG d   1      -0.893  75.861 116.003  0.00  0.00    -0.047 C 
ATOM      6  C   LIG d   1      -0.884  77.194 116.785  0.00  0.00     0.091 C 
ENDROOT
BRANCH   1   7
ATOM      7  O   LIG d   1      -2.070  79.328 116.997  0.00  0.00    -0.368 OA
BRANCH   7   8
ATOM      8  C   LIG d   1      -3.427  79.827 116.912  0.00  0.00     0.119 C 
BRANCH   8   9
ATOM      9  C   LIG d   1      -3.361  81.365 116.987  0.00  0.00     0.028 C 
ATOM     10  C   LIG d   1      -1.947  81.876 117.311  0.00  0.00     0.006 C 
ENDBRANCH   8   9
BRANCH   8  11
ATOM     11  C   LIG d   1      -4.256  79.398 118.127  0.00  0.00     0.028 C 
ATOM     12  C   LIG d   1      -5.620  78.805 117.739  0.00  0.00     0.006 C 
ENDBRANCH   8  11
ENDBRANCH   7   8
ENDBRANCH   1   7
BRANCH   6  13
ATOM     13  N   LIG d   1       0.488  77.736 116.967  0.00  0.00    -0.311 N 
ATOM     14  C   LIG d   1       1.241  77.482 118.037  0.00  0.00     0.210 C 
ATOM     15  C   LIG d   1       2.617  78.155 118.034  0.00  0.00     0.109 C 
ATOM     16  O   LIG d   1       0.911  76.738 118.973  0.00  0.00    -0.276 OA
ATOM     17  H   LIG d   1       0.847  78.324 116.241  0.00  0.00     0.149 HD
ENDBRANCH   6  13
BRANCH   5  18
ATOM     18  N   LIG d   1      -0.199  74.770 116.713  0.00  0.00     0.381 N 
ATOM     19  H   LIG d   1       0.428  75.152 117.392  0.00  0.00    -0.090 HD
ATOM     20  H   LIG d   1       0.339  74.241 116.049  0.00  0.00    -0.090 HD
ATOM     21  H   LIG d   1      -0.864  74.177 117.160  0.00  0.00    -0.090 HD
ENDBRANCH   5  18
BRANCH   3  22
ATOM     22  C   LIG d   1      -4.209  76.047 114.426  0.00  0.00     0.382 C 
ATOM     23  O   LIG d   1      -5.296  75.700 114.948  0.00  0.00    -0.241 OA
ATOM     24  O   LIG d   1      -4.081  76.003 113.188  0.00  0.00    -0.241 OA
ENDBRANCH   3  22
TORSDOF 7
ENDMDL
MODEL 9
REMARK VINA RESULT:      -4.3     14.617     17.523
REMARK  7 active torsions:
REMARK  status: ('A' for Active; 'I' for Inactive)
REMARK    1  A    between atoms: C_2  and  C_3 
REMARK    2  A    between atoms: C_3  and  O_6 
REMARK    3  A    between atoms: C_3  and  C_4 
REMARK    4  A    between atoms: C_7  and  O_6 
REMARK    5  A    between atoms: C_9  and  C_10 
REMARK    6  A    between atoms: N_15  and  C_14 
REMARK    7  A    between atoms: N_20  and  C_19 
REMARK       I    between atoms: C_22  and  N_20 
ROOT
ATOM      1  C   LIG d   1      11.007  80.140 113.866  0.00  0.00     0.161 C 
ATOM      2  C   LIG d   1       9.737  79.814 114.370  0.00  0.00     0.016 C 
ATOM      3  C   LIG d   1       9.488  78.679 115.176  0.00  0.00     0.038 C 
ATOM      4  C   LIG d   1      10.528  77.871 115.660  0.00  0.00     0.028 C 
ATOM      5  C   LIG d   1      11.762  77.870 114.764  0.00  0.00    -0.047 C 
ATOM      6  C   LIG d   1      12.172  79.333 114.475  0.00  0.00     0.091 C 
ENDROOT
BRANCH   1   7
ATOM      7  O   LIG d   1      11.244  81.554 114.018  0.00  0.00    -0.368 OA
BRANCH   7   8
ATOM      8  C   LIG d   1      10.808  82.143 115.268  0.00  0.00     0.119 C 
BRANCH   8   9
ATOM      9  C   LIG d   1       9.817  83.272 114.927  0.00  0.00     0.028 C 
ATOM     10  C   LIG d   1      10.066  84.542 115.759  0.00  0.00     0.006 C 
ENDBRANCH   8   9
BRANCH   8  11
ATOM     11  C   LIG d   1      11.969  82.827 115.995  0.00  0.00     0.028 C 
ATOM     12  C   LIG d   1      13.291  82.748 115.216  0.00  0.00     0.006 C 
ENDBRANCH   8  11
ENDBRANCH   7   8
ENDBRANCH   1   7
BRANCH   6  13
ATOM     13  N   LIG d   1      13.321  79.424 113.537  0.00  0.00    -0.311 N 
ATOM     14  C   LIG d   1      14.589  79.511 113.936  0.00  0.00     0.210 C 
ATOM     15  C   LIG d   1      15.617  79.616 112.806  0.00  0.00     0.109 C 
ATOM     16  O   LIG d   1      14.961  79.478 115.119  0.00  0.00    -0.276 OA
ATOM     17  H   LIG d   1      13.112  79.425 112.558  0.00  0.00     0.149 HD
ENDBRANCH   6  13
BRANCH   5  18
ATOM     18  N   LIG d   1      12.814  77.101 115.455  0.00  0.00     0.381 N 
ATOM     19  H   LIG d   1      13.351  76.585 114.786  0.00  0.00    -0.090 HD
ATOM     20  H   LIG d   1      12.379  76.447 116.082  0.00  0.00    -0.090 HD
ATOM     21  H   LIG d   1      13.408  77.717 115.965  0.00  0.00    -0.090 HD
ENDBRANCH   5  18
BRANCH   3  22
ATOM     22  C   LIG d   1       8.182  78.319 115.472  0.00  0.00     0.382 C 
ATOM     23  O   LIG d   1       7.640  77.367 114.862  0.00  0.00    -0.241 OA
ATOM     24  O   LIG d   1       7.524  78.964 116.311  0.00  0.00    -0.241 OA
ENDBRANCH   3  22
TORSDOF 7
ENDMDL
