MODEL 1
REMARK VINA RESULT:      -5.4      0.000      0.000
REMARK  7 active torsions:
REMARK  status: ('A' for Active; 'I' for Inactive)
REMARK    1  A    between atoms: C_2  and  C_3 
REMARK    2  A    between atoms: C_3  and  O_6 
REMARK    3  A    between atoms: C_3  and  C_4 
REMARK    4  A    between atoms: C_7  and  O_6 
REMARK    5  A    between atoms: C_9  and  C_10 
REMARK    6  A    between atoms: N_15  and  C_14 
REMARK    7  A    between atoms: N_20  and  C_19 
REMARK       I    between atoms: C_22  and  N_20 
ROOT
ATOM      1  C   LIG d   1      -7.603  74.473 118.620  0.00  0.00     0.161 C 
ATOM      2  C   LIG d   1      -7.751  73.112 118.307  0.00  0.00     0.016 C 
ATOM      3  C   LIG d   1      -8.866  72.590 117.612  0.00  0.00     0.038 C 
ATOM      4  C   LIG d   1      -9.844  73.422 117.047  0.00  0.00     0.028 C 
ATOM      5  C   LIG d   1      -9.997  74.755 117.772  0.00  0.00    -0.047 C 
ATOM      6  C   LIG d   1      -8.605  75.412 117.914  0.00  0.00     0.091 C 
ENDROOT
BRANCH   1   7
ATOM      7  O   LIG d   1      -6.250  74.892 118.351  0.00  0.00    -0.368 OA
BRANCH   7   8
ATOM      8  C   LIG d   1      -5.582  74.223 117.254  0.00  0.00     0.119 C 
BRANCH   8   9
ATOM      9  C   LIG d   1      -4.120  73.983 117.679  0.00  0.00     0.028 C 
ATOM     10  C   LIG d   1      -3.615  75.047 118.669  0.00  0.00     0.006 C 
ENDBRANCH   8   9
BRANCH   8  11
ATOM     11  C   LIG d   1      -5.502  75.124 116.018  0.00  0.00     0.028 C 
ATOM     12  C   LIG d   1      -5.322  74.331 114.714  0.00  0.00     0.006 C 
ENDBRANCH   8  11
ENDBRANCH   7   8
ENDBRANCH   1   7
BRANCH   6  13
ATOM     13  N   LIG d   1      -8.653  76.681 118.686  0.00  0.00    -0.311 N 
ATOM     14  C   LIG d   1      -7.983  77.777 118.336  0.00  0.00     0.210 C 
ATOM     15  C   LIG d   1      -8.156  78.970 119.282  0.00  0.00     0.109 C 
ATOM     16  O   LIG d   1      -7.288  77.886 117.315  0.00  0.00    -0.276 OA
ATOM     17  H   LIG d   1      -9.218  76.690 119.513  0.00  0.00     0.149 HD
ENDBRANCH   6  13
BRANCH   5  18
ATOM     18  N   LIG d   1     -10.947  75.577 116.998  0.00  0.00     0.381 N 
ATOM     19  H   LIG d   1     -11.880  75.247 117.148  0.00  0.00    -0.090 HD
ATOM     20  H   LIG d   1     -10.734  75.486 116.020  0.00  0.00    -0.090 HD
ATOM     21  H   LIG d   1     -10.876  76.531 117.274  0.00  0.00    -0.090 HD
ENDBRANCH   5  18
BRANCH   3  22
ATOM     22  C   LIG d   1      -9.032  71.217 117.512  0.00  0.00     0.382 C 
ATOM     23  O   LIG d   1      -9.944  70.647 118.158  0.00  0.00    -0.241 OA
ATOM     24  O   LIG d   1      -8.254  70.535 116.819  0.00  0.00    -0.241 OA
ENDBRANCH   3  22
TORSDOF 7
ENDMDL
MODEL 2
REMARK VINA RESULT:      -5.3      2.365      5.049
REMARK  7 active torsions:
REMARK  status: ('A' for Active; 'I' for Inactive)
REMARK    1  A    between atoms: C_2  and  C_3 
REMARK    2  A    between atoms: C_3  and  O_6 
REMARK    3  A    between atoms: C_3  and  C_4 
REMARK    4  A    between atoms: C_7  and  O_6 
REMARK    5  A    between atoms: C_9  and  C_10 
REMARK    6  A    between atoms: N_15  and  C_14 
REMARK    7  A    between atoms: N_20  and  C_19 
REMARK       I    between atoms: C_22  and  N_20 
ROOT
ATOM      1  C   LIG d   1      -7.848  74.765 117.975  0.00  0.00     0.161 C 
ATOM      2  C   LIG d   1      -9.071  75.456 117.995  0.00  0.00     0.016 C 
ATOM      3  C   LIG d   1      -9.173  76.861 117.870  0.00  0.00     0.038 C 
ATOM      4  C   LIG d   1      -8.062  77.661 117.564  0.00  0.00     0.028 C 
ATOM      5  C   LIG d   1      -6.740  77.066 118.036  0.00  0.00    -0.047 C 
ATOM      6  C   LIG d   1      -6.636  75.609 117.531  0.00  0.00     0.091 C 
ENDROOT
BRANCH   1   7
ATOM      7  O   LIG d   1      -7.966  73.586 117.154  0.00  0.00    -0.368 OA
BRANCH   7   8
ATOM      8  C   LIG d   1      -8.071  72.326 117.860  0.00  0.00     0.119 C 
BRANCH   8   9
ATOM      9  C   LIG d   1      -7.186  71.305 117.119  0.00  0.00     0.028 C 
ATOM     10  C   LIG d   1      -6.995  71.662 115.635  0.00  0.00     0.006 C 
ENDBRANCH   8   9
BRANCH   8  11
ATOM     11  C   LIG d   1      -9.492  71.760 117.783  0.00  0.00     0.028 C 
ATOM     12  C   LIG d   1      -9.527  70.225 117.841  0.00  0.00     0.006 C 
ENDBRANCH   8  11
ENDBRANCH   7   8
ENDBRANCH   1   7
BRANCH   6  13
ATOM     13  N   LIG d   1      -5.409  74.926 118.019  0.00  0.00    -0.311 N 
ATOM     14  C   LIG d   1      -4.494  74.396 117.209  0.00  0.00     0.210 C 
ATOM     15  C   LIG d   1      -3.316  73.721 117.919  0.00  0.00     0.109 C 
ATOM     16  O   LIG d   1      -4.529  74.449 115.971  0.00  0.00    -0.276 OA
ATOM     17  H   LIG d   1      -5.285  74.866 119.010  0.00  0.00     0.149 HD
ENDBRANCH   6  13
BRANCH   5  18
ATOM     18  N   LIG d   1      -5.657  77.932 117.531  0.00  0.00     0.381 N 
ATOM     19  H   LIG d   1      -6.003  78.860 117.391  0.00  0.00    -0.090 HD
ATOM     20  H   LIG d   1      -5.342  77.576 116.646  0.00  0.00    -0.090 HD
ATOM     21  H   LIG d   1      -4.901  77.946 118.180  0.00  0.00    -0.090 HD
ENDBRANCH   5  18
BRANCH   3  22
ATOM     22  C   LIG d   1     -10.392  77.484 118.092  0.00  0.00     0.382 C 
ATOM     23  O   LIG d   1     -11.446  76.804 118.129  0.00  0.00    -0.241 OA
ATOM     24  O   LIG d   1     -10.456  78.722 118.212  0.00  0.00    -0.241 OA
ENDBRANCH   3  22
TORSDOF 7
ENDMDL
MODEL 3
REMARK VINA RESULT:      -4.9      2.703      5.584
REMARK  7 active torsions:
REMARK  status: ('A' for Active; 'I' for Inactive)
REMARK    1  A    between atoms: C_2  and  C_3 
REMARK    2  A    between atoms: C_3  and  O_6 
REMARK    3  A    between atoms: C_3  and  C_4 
REMARK    4  A    between atoms: C_7  and  O_6 
REMARK    5  A    between atoms: C_9  and  C_10 
REMARK    6  A    between atoms: N_15  and  C_14 
REMARK    7  A    between atoms: N_20  and  C_19 
REMARK       I    between atoms: C_22  and  N_20 
ROOT
ATOM      1  C   LIG d   1      -7.511  76.886 117.937  0.00  0.00     0.161 C 
ATOM      2  C   LIG d   1      -8.726  77.553 118.168  0.00  0.00     0.016 C 
ATOM      3  C   LIG d   1      -8.871  78.957 118.087  0.00  0.00     0.038 C 
ATOM      4  C   LIG d   1      -7.839  79.783 117.618  0.00  0.00     0.028 C 
ATOM      5  C   LIG d   1      -6.447  79.208 117.857  0.00  0.00    -0.047 C 
ATOM      6  C   LIG d   1      -6.402  77.761 117.316  0.00  0.00     0.091 C 
ENDROOT
BRANCH   1   7
ATOM      7  O   LIG d   1      -7.742  75.718 117.124  0.00  0.00    -0.368 OA
BRANCH   7   8
ATOM      8  C   LIG d   1      -8.019  74.489 117.840  0.00  0.00     0.119 C 
BRANCH   8   9
ATOM      9  C   LIG d   1      -7.059  73.412 117.299  0.00  0.00     0.028 C 
ATOM     10  C   LIG d   1      -6.143  73.948 116.186  0.00  0.00     0.006 C 
ENDBRANCH   8   9
BRANCH   8  11
ATOM     11  C   LIG d   1      -9.427  73.970 117.531  0.00  0.00     0.028 C 
ATOM     12  C   LIG d   1      -9.499  72.436 117.486  0.00  0.00     0.006 C 
ENDBRANCH   8  11
ENDBRANCH   7   8
ENDBRANCH   1   7
BRANCH   6  13
ATOM     13  N   LIG d   1      -5.101  77.095 117.585  0.00  0.00    -0.311 N 
ATOM     14  C   LIG d   1      -4.098  77.063 116.709  0.00  0.00     0.210 C 
ATOM     15  C   LIG d   1      -2.852  76.307 117.179  0.00  0.00     0.109 C 
ATOM     16  O   LIG d   1      -4.111  77.617 115.599  0.00  0.00    -0.276 OA
ATOM     17  H   LIG d   1      -4.993  76.647 118.474  0.00  0.00     0.149 HD
ENDBRANCH   6  13
BRANCH   5  18
ATOM     18  N   LIG d   1      -5.476  80.102 117.199  0.00  0.00     0.381 N 
ATOM     19  H   LIG d   1      -4.878  80.517 117.885  0.00  0.00    -0.090 HD
ATOM     20  H   LIG d   1      -5.976  80.837 116.731  0.00  0.00    -0.090 HD
ATOM     21  H   LIG d   1      -4.932  79.589 116.541  0.00  0.00    -0.090 HD
ENDBRANCH   5  18
BRANCH   3  22
ATOM     22  C   LIG d   1     -10.048  79.552 118.516  0.00  0.00     0.382 C 
ATOM     23  O   LIG d   1     -10.642  79.108 119.528  0.00  0.00    -0.241 OA
ATOM     24  O   LIG d   1     -10.546  80.499 117.878  0.00  0.00    -0.241 OA
ENDBRANCH   3  22
TORSDOF 7
ENDMDL
MODEL 4
REMARK VINA RESULT:      -4.8      2.728      6.434
REMARK  7 active torsions:
REMARK  status: ('A' for Active; 'I' for Inactive)
REMARK    1  A    between atoms: C_2  and  C_3 
REMARK    2  A    between atoms: C_3  and  O_6 
REMARK    3  A    between atoms: C_3  and  C_4 
REMARK    4  A    between atoms: C_7  and  O_6 
REMARK    5  A    between atoms: C_9  and  C_10 
REMARK    6  A    between atoms: N_15  and  C_14 
REMARK    7  A    between atoms: N_20  and  C_19 
REMARK       I    between atoms: C_22  and  N_20 
ROOT
ATOM      1  C   LIG d   1      -7.263  77.127 117.849  0.00  0.00     0.161 C 
ATOM      2  C   LIG d   1      -7.963  78.344 117.870  0.00  0.00     0.016 C 
ATOM      3  C   LIG d   1      -7.350  79.599 117.651  0.00  0.00     0.038 C 
ATOM      4  C   LIG d   1      -6.012  79.709 117.243  0.00  0.00     0.028 C 
ATOM      5  C   LIG d   1      -5.142  78.544 117.701  0.00  0.00    -0.047 C 
ATOM      6  C   LIG d   1      -5.825  77.218 117.296  0.00  0.00     0.091 C 
ENDROOT
BRANCH   1   7
ATOM      7  O   LIG d   1      -8.019  76.140 117.119  0.00  0.00    -0.368 OA
BRANCH   7   8
ATOM      8  C   LIG d   1      -8.916  75.316 117.904  0.00  0.00     0.119 C 
BRANCH   8   9
ATOM      9  C   LIG d   1      -8.453  73.854 117.751  0.00  0.00     0.028 C 
ATOM     10  C   LIG d   1      -9.621  72.897 117.457  0.00  0.00     0.006 C 
ENDBRANCH   8   9
BRANCH   8  11
ATOM     11  C   LIG d   1     -10.340  75.352 117.342  0.00  0.00     0.028 C 
ATOM     12  C   LIG d   1     -11.208  76.443 117.988  0.00  0.00     0.006 C 
ENDBRANCH   8  11
ENDBRANCH   7   8
ENDBRANCH   1   7
BRANCH   6  13
ATOM     13  N   LIG d   1      -5.081  76.026 117.781  0.00  0.00    -0.311 N 
ATOM     14  C   LIG d   1      -4.616  75.074 116.973  0.00  0.00     0.210 C 
ATOM     15  C   LIG d   1      -3.895  73.922 117.680  0.00  0.00     0.109 C 
ATOM     16  O   LIG d   1      -4.705  75.090 115.736  0.00  0.00    -0.276 OA
ATOM     17  H   LIG d   1      -4.936  75.949 118.768  0.00  0.00     0.149 HD
ENDBRANCH   6  13
BRANCH   5  18
ATOM     18  N   LIG d   1      -3.809  78.717 117.092  0.00  0.00     0.381 N 
ATOM     19  H   LIG d   1      -3.503  79.662 117.209  0.00  0.00    -0.090 HD
ATOM     20  H   LIG d   1      -3.875  78.527 116.107  0.00  0.00    -0.090 HD
ATOM     21  H   LIG d   1      -3.157  78.094 117.515  0.00  0.00    -0.090 HD
ENDBRANCH   5  18
BRANCH   3  22
ATOM     22  C   LIG d   1      -8.067  80.764 117.878  0.00  0.00     0.382 C 
ATOM     23  O   LIG d   1      -8.365  81.097 119.050  0.00  0.00    -0.241 OA
ATOM     24  O   LIG d   1      -8.458  81.461 116.923  0.00  0.00    -0.241 OA
ENDBRANCH   3  22
TORSDOF 7
ENDMDL
MODEL 5
REMARK VINA RESULT:      -4.7     17.066     19.366
REMARK  7 active torsions:
REMARK  status: ('A' for Active; 'I' for Inactive)
REMARK    1  A    between atoms: C_2  and  C_3 
REMARK    2  A    between atoms: C_3  and  O_6 
REMARK    3  A    between atoms: C_3  and  C_4 
REMARK    4  A    between atoms: C_7  and  O_6 
REMARK    5  A    between atoms: C_9  and  C_10 
REMARK    6  A    between atoms: N_15  and  C_14 
REMARK    7  A    between atoms: N_20  and  C_19 
REMARK       I    between atoms: C_22  and  N_20 
ROOT
ATOM      1  C   LIG d   1       2.956  89.430 115.873  0.00  0.00     0.161 C 
ATOM      2  C   LIG d   1       1.827  90.207 116.181  0.00  0.00     0.016 C 
ATOM      3  C   LIG d   1       1.780  91.116 117.263  0.00  0.00     0.038 C 
ATOM      4  C   LIG d   1       2.917  91.422 118.024  0.00  0.00     0.028 C 
ATOM      5  C   LIG d   1       3.940  90.292 118.068  0.00  0.00    -0.047 C 
ATOM      6  C   LIG d   1       4.243  89.833 116.623  0.00  0.00     0.091 C 
ENDROOT
BRANCH   1   7
ATOM      7  O   LIG d   1       3.182  89.440 114.449  0.00  0.00    -0.368 OA
BRANCH   7   8
ATOM      8  C   LIG d   1       2.827  88.229 113.739  0.00  0.00     0.119 C 
BRANCH   8   9
ATOM      9  C   LIG d   1       2.689  87.104 114.782  0.00  0.00     0.028 C 
ATOM     10  C   LIG d   1       2.861  85.706 114.164  0.00  0.00     0.006 C 
ENDBRANCH   8   9
BRANCH   8  11
ATOM     11  C   LIG d   1       3.955  87.780 112.805  0.00  0.00     0.028 C 
ATOM     12  C   LIG d   1       5.196  88.683 112.892  0.00  0.00     0.006 C 
ENDBRANCH   8  11
ENDBRANCH   7   8
ENDBRANCH   1   7
BRANCH   6  13
ATOM     13  N   LIG d   1       5.171  88.672 116.580  0.00  0.00    -0.311 N 
ATOM     14  C   LIG d   1       6.497  88.795 116.559  0.00  0.00     0.210 C 
ATOM     15  C   LIG d   1       7.267  87.472 116.494  0.00  0.00     0.109 C 
ATOM     16  O   LIG d   1       7.109  89.872 116.620  0.00  0.00    -0.276 OA
ATOM     17  H   LIG d   1       4.759  87.760 116.560  0.00  0.00     0.149 HD
ENDBRANCH   6  13
BRANCH   5  18
ATOM     18  N   LIG d   1       5.131  90.795 118.777  0.00  0.00     0.381 N 
ATOM     19  H   LIG d   1       4.850  91.336 119.570  0.00  0.00    -0.090 HD
ATOM     20  H   LIG d   1       5.650  91.392 118.157  0.00  0.00    -0.090 HD
ATOM     21  H   LIG d   1       5.702  90.033 119.070  0.00  0.00    -0.090 HD
ENDBRANCH   5  18
BRANCH   3  22
ATOM     22  C   LIG d   1       0.573  91.699 117.619  0.00  0.00     0.382 C 
ATOM     23  O   LIG d   1      -0.101  92.318 116.760  0.00  0.00    -0.241 OA
ATOM     24  O   LIG d   1       0.171  91.652 118.797  0.00  0.00    -0.241 OA
ENDBRANCH   3  22
TORSDOF 7
ENDMDL
MODEL 6
REMARK VINA RESULT:      -4.6     17.118     19.388
REMARK  7 active torsions:
REMARK  status: ('A' for Active; 'I' for Inactive)
REMARK    1  A    between atoms: C_2  and  C_3 
REMARK    2  A    between atoms: C_3  and  O_6 
REMARK    3  A    between atoms: C_3  and  C_4 
REMARK    4  A    between atoms: C_7  and  O_6 
REMARK    5  A    between atoms: C_9  and  C_10 
REMARK    6  A    between atoms: N_15  and  C_14 
REMARK    7  A    between atoms: N_20  and  C_19 
REMARK       I    between atoms: C_22  and  N_20 
ROOT
ATOM      1  C   LIG d   1       4.208  89.785 115.061  0.00  0.00     0.161 C 
ATOM      2  C   LIG d   1       3.284  89.038 114.312  0.00  0.00     0.016 C 
ATOM      3  C   LIG d   1       3.356  87.634 114.163  0.00  0.00     0.038 C 
ATOM      4  C   LIG d   1       4.277  86.859 114.884  0.00  0.00     0.028 C 
ATOM      5  C   LIG d   1       5.546  87.618 115.257  0.00  0.00    -0.047 C 
ATOM      6  C   LIG d   1       5.154  88.945 115.945  0.00  0.00     0.091 C 
ENDROOT
BRANCH   1   7
ATOM      7  O   LIG d   1       3.512  90.762 115.861  0.00  0.00    -0.368 OA
BRANCH   7   8
ATOM      8  C   LIG d   1       2.924  90.276 117.093  0.00  0.00     0.119 C 
BRANCH   8   9
ATOM      9  C   LIG d   1       1.403  90.168 116.869  0.00  0.00     0.028 C 
ATOM     10  C   LIG d   1       0.690  91.523 117.020  0.00  0.00     0.006 C 
ENDBRANCH   8   9
BRANCH   8  11
ATOM     11  C   LIG d   1       3.096  91.289 118.229  0.00  0.00     0.028 C 
ATOM     12  C   LIG d   1       4.274  92.248 118.000  0.00  0.00     0.006 C 
ENDBRANCH   8  11
ENDBRANCH   7   8
ENDBRANCH   1   7
BRANCH   6  13
ATOM     13  N   LIG d   1       6.335  89.788 116.267  0.00  0.00    -0.311 N 
ATOM     14  C   LIG d   1       6.931  89.790 117.458  0.00  0.00     0.210 C 
ATOM     15  C   LIG d   1       8.120  90.747 117.584  0.00  0.00     0.109 C 
ATOM     16  O   LIG d   1       6.607  89.066 118.412  0.00  0.00    -0.276 OA
ATOM     17  H   LIG d   1       6.682  90.383 115.541  0.00  0.00     0.149 HD
ENDBRANCH   6  13
BRANCH   5  18
ATOM     18  N   LIG d   1       6.355  86.736 116.120  0.00  0.00     0.381 N 
ATOM     19  H   LIG d   1       6.940  87.288 116.715  0.00  0.00    -0.090 HD
ATOM     20  H   LIG d   1       6.944  86.165 115.540  0.00  0.00    -0.090 HD
ATOM     21  H   LIG d   1       5.759  86.159 116.671  0.00  0.00    -0.090 HD
ENDBRANCH   5  18
BRANCH   3  22
ATOM     22  C   LIG d   1       2.526  86.996 113.255  0.00  0.00     0.382 C 
ATOM     23  O   LIG d   1       2.822  85.853 112.831  0.00  0.00    -0.241 OA
ATOM     24  O   LIG d   1       1.507  87.566 112.821  0.00  0.00    -0.241 OA
ENDBRANCH   3  22
TORSDOF 7
ENDMDL
MODEL 7
REMARK VINA RESULT:      -4.5     17.558     20.199
REMARK  7 active torsions:
REMARK  status: ('A' for Active; 'I' for Inactive)
REMARK    1  A    between atoms: C_2  and  C_3 
REMARK    2  A    between atoms: C_3  and  O_6 
REMARK    3  A    between atoms: C_3  and  C_4 
REMARK    4  A    between atoms: C_7  and  O_6 
REMARK    5  A    between atoms: C_9  and  C_10 
REMARK    6  A    between atoms: N_15  and  C_14 
REMARK    7  A    between atoms: N_20  and  C_19 
REMARK       I    between atoms: C_22  and  N_20 
ROOT
ATOM      1  C   LIG d   1       4.493  89.892 116.171  0.00  0.00     0.161 C 
ATOM      2  C   LIG d   1       5.880  89.745 116.340  0.00  0.00     0.016 C 
ATOM      3  C   LIG d   1       6.614  90.400 117.355  0.00  0.00     0.038 C 
ATOM      4  C   LIG d   1       5.983  91.134 118.370  0.00  0.00     0.028 C 
ATOM      5  C   LIG d   1       4.641  91.722 117.948  0.00  0.00    -0.047 C 
ATOM      6  C   LIG d   1       3.772  90.600 117.336  0.00  0.00     0.091 C 
ENDROOT
BRANCH   1   7
ATOM      7  O   LIG d   1       3.893  88.607 115.917  0.00  0.00    -0.368 OA
BRANCH   7   8
ATOM      8  C   LIG d   1       3.421  88.379 114.566  0.00  0.00     0.119 C 
BRANCH   8   9
ATOM      9  C   LIG d   1       3.771  86.926 114.192  0.00  0.00     0.028 C 
ATOM     10  C   LIG d   1       4.176  86.086 115.415  0.00  0.00     0.006 C 
ENDBRANCH   8   9
BRANCH   8  11
ATOM     11  C   LIG d   1       4.177  89.250 113.558  0.00  0.00     0.028 C 
ATOM     12  C   LIG d   1       5.272  88.478 112.806  0.00  0.00     0.006 C 
ENDBRANCH   8  11
ENDBRANCH   7   8
ENDBRANCH   1   7
BRANCH   6  13
ATOM     13  N   LIG d   1       2.474  91.107 116.819  0.00  0.00    -0.311 N 
ATOM     14  C   LIG d   1       1.354  91.127 117.541  0.00  0.00     0.210 C 
ATOM     15  C   LIG d   1       0.123  91.672 116.811  0.00  0.00     0.109 C 
ATOM     16  O   LIG d   1       1.272  90.776 118.728  0.00  0.00    -0.276 OA
ATOM     17  H   LIG d   1       2.457  91.441 115.876  0.00  0.00     0.149 HD
ENDBRANCH   6  13
BRANCH   5  18
ATOM     18  N   LIG d   1       4.031  92.343 119.139  0.00  0.00     0.381 N 
ATOM     19  H   LIG d   1       4.039  93.339 119.044  0.00  0.00    -0.090 HD
ATOM     20  H   LIG d   1       4.576  92.099 119.947  0.00  0.00    -0.090 HD
ATOM     21  H   LIG d   1       3.096  92.020 119.250  0.00  0.00    -0.090 HD
ENDBRANCH   5  18
BRANCH   3  22
ATOM     22  C   LIG d   1       8.000  90.357 117.338  0.00  0.00     0.382 C 
ATOM     23  O   LIG d   1       8.594  89.253 117.391  0.00  0.00    -0.241 OA
ATOM     24  O   LIG d   1       8.665  91.410 117.315  0.00  0.00    -0.241 OA
ENDBRANCH   3  22
TORSDOF 7
ENDMDL
MODEL 8
REMARK VINA RESULT:      -4.5      2.591      4.661
REMARK  7 active torsions:
REMARK  status: ('A' for Active; 'I' for Inactive)
REMARK    1  A    between atoms: C_2  and  C_3 
REMARK    2  A    between atoms: C_3  and  O_6 
REMARK    3  A    between atoms: C_3  and  C_4 
REMARK    4  A    between atoms: C_7  and  O_6 
REMARK    5  A    between atoms: C_9  and  C_10 
REMARK    6  A    between atoms: N_15  and  C_14 
REMARK    7  A    between atoms: N_20  and  C_19 
REMARK       I    between atoms: C_22  and  N_20 
ROOT
ATOM      1  C   LIG d   1      -7.235  75.844 119.241  0.00  0.00     0.161 C 
ATOM      2  C   LIG d   1      -8.610  76.121 119.160  0.00  0.00     0.016 C 
ATOM      3  C   LIG d   1      -9.139  77.244 118.483  0.00  0.00     0.038 C 
ATOM      4  C   LIG d   1      -8.332  78.090 117.707  0.00  0.00     0.028 C 
ATOM      5  C   LIG d   1      -6.881  78.139 118.174  0.00  0.00    -0.047 C 
ATOM      6  C   LIG d   1      -6.348  76.694 118.307  0.00  0.00     0.091 C 
ENDROOT
BRANCH   1   7
ATOM      7  O   LIG d   1      -7.005  74.440 119.009  0.00  0.00    -0.368 OA
BRANCH   7   8
ATOM      8  C   LIG d   1      -7.329  73.951 117.684  0.00  0.00     0.119 C 
BRANCH   8   9
ATOM      9  C   LIG d   1      -8.214  72.701 117.856  0.00  0.00     0.028 C 
ATOM     10  C   LIG d   1      -9.671  72.951 117.431  0.00  0.00     0.006 C 
ENDBRANCH   8   9
BRANCH   8  11
ATOM     11  C   LIG d   1      -6.077  73.464 116.949  0.00  0.00     0.028 C 
ATOM     12  C   LIG d   1      -5.910  74.110 115.564  0.00  0.00     0.006 C 
ENDBRANCH   8  11
ENDBRANCH   7   8
ENDBRANCH   1   7
BRANCH   6  13
ATOM     13  N   LIG d   1      -4.961  76.649 118.840  0.00  0.00    -0.311 N 
ATOM     14  C   LIG d   1      -3.880  76.590 118.065  0.00  0.00     0.210 C 
ATOM     15  C   LIG d   1      -2.547  76.531 118.818  0.00  0.00     0.109 C 
ATOM     16  O   LIG d   1      -3.896  76.615 116.825  0.00  0.00    -0.276 OA
ATOM     17  H   LIG d   1      -4.855  76.656 119.835  0.00  0.00     0.149 HD
ENDBRANCH   6  13
BRANCH   5  18
ATOM     18  N   LIG d   1      -6.126  78.946 117.197  0.00  0.00     0.381 N 
ATOM     19  H   LIG d   1      -5.457  79.516 117.675  0.00  0.00    -0.090 HD
ATOM     20  H   LIG d   1      -6.765  79.550 116.711  0.00  0.00    -0.090 HD
ATOM     21  H   LIG d   1      -5.662  78.350 116.548  0.00  0.00    -0.090 HD
ENDBRANCH   5  18
BRANCH   3  22
ATOM     22  C   LIG d   1     -10.485  77.552 118.611  0.00  0.00     0.382 C 
ATOM     23  O   LIG d   1     -10.854  78.408 119.452  0.00  0.00    -0.241 OA
ATOM     24  O   LIG d   1     -11.338  76.954 117.929  0.00  0.00    -0.241 OA
ENDBRANCH   3  22
TORSDOF 7
ENDMDL
MODEL 9
REMARK VINA RESULT:      -4.5      3.491      6.280
REMARK  7 active torsions:
REMARK  status: ('A' for Active; 'I' for Inactive)
REMARK    1  A    between atoms: C_2  and  C_3 
REMARK    2  A    between atoms: C_3  and  O_6 
REMARK    3  A    between atoms: C_3  and  C_4 
REMARK    4  A    between atoms: C_7  and  O_6 
REMARK    5  A    between atoms: C_9  and  C_10 
REMARK    6  A    between atoms: N_15  and  C_14 
REMARK    7  A    between atoms: N_20  and  C_19 
REMARK       I    between atoms: C_22  and  N_20 
ROOT
ATOM      1  C   LIG d   1      -4.490  75.224 117.758  0.00  0.00     0.161 C 
ATOM      2  C   LIG d   1      -5.560  76.128 117.860  0.00  0.00     0.016 C 
ATOM      3  C   LIG d   1      -5.460  77.495 117.512  0.00  0.00     0.038 C 
ATOM      4  C   LIG d   1      -4.316  78.020 116.892  0.00  0.00     0.028 C 
ATOM      5  C   LIG d   1      -3.039  77.261 117.234  0.00  0.00    -0.047 C 
ATOM      6  C   LIG d   1      -3.268  75.753 116.979  0.00  0.00     0.091 C 
ENDROOT
BRANCH   1   7
ATOM      7  O   LIG d   1      -4.950  73.984 117.184  0.00  0.00    -0.368 OA
BRANCH   7   8
ATOM      8  C   LIG d   1      -6.023  74.089 116.216  0.00  0.00     0.119 C 
BRANCH   8   9
ATOM      9  C   LIG d   1      -6.873  72.809 116.326  0.00  0.00     0.028 C 
ATOM     10  C   LIG d   1      -7.505  72.643 117.718  0.00  0.00     0.006 C 
ENDBRANCH   8   9
BRANCH   8  11
ATOM     11  C   LIG d   1      -5.481  74.094 114.783  0.00  0.00     0.028 C 
ATOM     12  C   LIG d   1      -5.512  75.489 114.139  0.00  0.00     0.006 C 
ENDBRANCH   8  11
ENDBRANCH   7   8
ENDBRANCH   1   7
BRANCH   6  13
ATOM     13  N   LIG d   1      -2.094  74.928 117.368  0.00  0.00    -0.311 N 
ATOM     14  C   LIG d   1      -1.496  74.070 116.544  0.00  0.00     0.210 C 
ATOM     15  C   LIG d   1      -0.316  73.305 117.152  0.00  0.00     0.109 C 
ATOM     16  O   LIG d   1      -1.811  73.892 115.357  0.00  0.00    -0.276 OA
ATOM     17  H   LIG d   1      -1.754  75.032 118.304  0.00  0.00     0.149 HD
ENDBRANCH   6  13
BRANCH   5  18
ATOM     18  N   LIG d   1      -1.951  77.827 116.414  0.00  0.00     0.381 N 
ATOM     19  H   LIG d   1      -1.926  77.373 115.523  0.00  0.00    -0.090 HD
ATOM     20  H   LIG d   1      -1.075  77.661 116.877  0.00  0.00    -0.090 HD
ATOM     21  H   LIG d   1      -2.090  78.806 116.292  0.00  0.00    -0.090 HD
ENDBRANCH   5  18
BRANCH   3  22
ATOM     22  C   LIG d   1      -6.498  78.361 117.821  0.00  0.00     0.382 C 
ATOM     23  O   LIG d   1      -6.558  79.488 117.274  0.00  0.00    -0.241 OA
ATOM     24  O   LIG d   1      -7.350  78.046 118.674  0.00  0.00    -0.241 OA
ENDBRANCH   3  22
TORSDOF 7
ENDMDL
