MODEL 1
REMARK VINA RESULT:      -4.5      0.000      0.000
REMARK  7 active torsions:
REMARK  status: ('A' for Active; 'I' for Inactive)
REMARK    1  A    between atoms: C_2  and  C_3 
REMARK    2  A    between atoms: C_3  and  O_6 
REMARK    3  A    between atoms: C_3  and  C_4 
REMARK    4  A    between atoms: C_7  and  O_6 
REMARK    5  A    between atoms: C_9  and  C_10 
REMARK    6  A    between atoms: N_15  and  C_14 
REMARK    7  A    between atoms: N_20  and  C_19 
REMARK       I    between atoms: C_22  and  N_20 
ROOT
ATOM      1  C   LIG d   1     -22.773  83.926 115.840  0.00  0.00     0.161 C 
ATOM      2  C   LIG d   1     -22.012  83.111 116.695  0.00  0.00     0.016 C 
ATOM      3  C   LIG d   1     -21.970  83.281 118.098  0.00  0.00     0.038 C 
ATOM      4  C   LIG d   1     -22.810  84.188 118.761  0.00  0.00     0.028 C 
ATOM      5  C   LIG d   1     -23.220  85.375 117.897  0.00  0.00    -0.047 C 
ATOM      6  C   LIG d   1     -23.781  84.850 116.555  0.00  0.00     0.091 C 
ENDROOT
BRANCH   1   7
ATOM      7  O   LIG d   1     -23.447  83.111 114.861  0.00  0.00    -0.368 OA
BRANCH   7   8
ATOM      8  C   LIG d   1     -24.405  82.155 115.377  0.00  0.00     0.119 C 
BRANCH   8   9
ATOM      9  C   LIG d   1     -23.899  80.747 115.009  0.00  0.00     0.028 C 
ATOM     10  C   LIG d   1     -24.898  79.644 115.396  0.00  0.00     0.006 C 
ENDBRANCH   8   9
BRANCH   8  11
ATOM     11  C   LIG d   1     -25.762  82.294 114.680  0.00  0.00     0.028 C 
ATOM     12  C   LIG d   1     -25.652  82.929 113.284  0.00  0.00     0.006 C 
ENDBRANCH   8  11
ENDBRANCH   7   8
ENDBRANCH   1   7
BRANCH   6  13
ATOM     13  N   LIG d   1     -24.128  85.948 115.617  0.00  0.00    -0.311 N 
ATOM     14  C   LIG d   1     -25.371  86.195 115.204  0.00  0.00     0.210 C 
ATOM     15  C   LIG d   1     -25.506  87.362 114.221  0.00  0.00     0.109 C 
ATOM     16  O   LIG d   1     -26.377  85.578 115.585  0.00  0.00    -0.276 OA
ATOM     17  H   LIG d   1     -23.376  86.518 115.282  0.00  0.00     0.149 HD
ENDBRANCH   6  13
BRANCH   5  18
ATOM     18  N   LIG d   1     -24.201  86.166 118.663  0.00  0.00     0.381 N 
ATOM     19  H   LIG d   1     -23.845  87.088 118.820  0.00  0.00    -0.090 HD
ATOM     20  H   LIG d   1     -24.346  85.728 119.556  0.00  0.00    -0.090 HD
ATOM     21  H   LIG d   1     -25.063  86.216 118.165  0.00  0.00    -0.090 HD
ENDBRANCH   5  18
BRANCH   3  22
ATOM     22  C   LIG d   1     -21.051  82.564 118.850  0.00  0.00     0.382 C 
ATOM     23  O   LIG d   1     -19.845  82.912 118.863  0.00  0.00    -0.241 OA
ATOM     24  O   LIG d   1     -21.403  81.549 119.479  0.00  0.00    -0.241 OA
ENDBRANCH   3  22
TORSDOF 7
ENDMDL
MODEL 2
REMARK VINA RESULT:      -4.3     33.839     36.385
REMARK  7 active torsions:
REMARK  status: ('A' for Active; 'I' for Inactive)
REMARK    1  A    between atoms: C_2  and  C_3 
REMARK    2  A    between atoms: C_3  and  O_6 
REMARK    3  A    between atoms: C_3  and  C_4 
REMARK    4  A    between atoms: C_7  and  O_6 
REMARK    5  A    between atoms: C_9  and  C_10 
REMARK    6  A    between atoms: N_15  and  C_14 
REMARK    7  A    between atoms: N_20  and  C_19 
REMARK       I    between atoms: C_22  and  N_20 
ROOT
ATOM      1  C   LIG d   1      11.322  75.943 115.156  0.00  0.00     0.161 C 
ATOM      2  C   LIG d   1      10.015  76.455 115.126  0.00  0.00     0.016 C 
ATOM      3  C   LIG d   1       9.709  77.787 114.763  0.00  0.00     0.038 C 
ATOM      4  C   LIG d   1      10.684  78.660 114.257  0.00  0.00     0.028 C 
ATOM      5  C   LIG d   1      12.093  78.344 114.747  0.00  0.00    -0.047 C 
ATOM      6  C   LIG d   1      12.387  76.847 114.500  0.00  0.00     0.091 C 
ENDROOT
BRANCH   1   7
ATOM      7  O   LIG d   1      11.346  74.629 114.562  0.00  0.00    -0.368 OA
BRANCH   7   8
ATOM      8  C   LIG d   1      11.108  73.519 115.462  0.00  0.00     0.119 C 
BRANCH   8   9
ATOM      9  C   LIG d   1      12.446  73.186 116.149  0.00  0.00     0.028 C 
ATOM     10  C   LIG d   1      13.547  72.813 115.142  0.00  0.00     0.006 C 
ENDBRANCH   8   9
BRANCH   8  11
ATOM     11  C   LIG d   1      10.721  72.252 114.693  0.00  0.00     0.028 C 
ATOM     12  C   LIG d   1       9.796  71.326 115.499  0.00  0.00     0.006 C 
ENDBRANCH   8  11
ENDBRANCH   7   8
ENDBRANCH   1   7
BRANCH   6  13
ATOM     13  N   LIG d   1      13.714  76.435 115.027  0.00  0.00    -0.311 N 
ATOM     14  C   LIG d   1      14.841  76.519 114.323  0.00  0.00     0.210 C 
ATOM     15  C   LIG d   1      16.095  76.022 115.048  0.00  0.00     0.109 C 
ATOM     16  O   LIG d   1      14.926  76.988 113.178  0.00  0.00    -0.276 OA
ATOM     17  H   LIG d   1      13.741  76.072 115.960  0.00  0.00     0.149 HD
ENDBRANCH   6  13
BRANCH   5  18
ATOM     18  N   LIG d   1      13.024  79.241 114.036  0.00  0.00     0.381 N 
ATOM     19  H   LIG d   1      13.874  79.329 114.556  0.00  0.00    -0.090 HD
ATOM     20  H   LIG d   1      12.604  80.151 113.961  0.00  0.00    -0.090 HD
ATOM     21  H   LIG d   1      13.218  78.880 113.128  0.00  0.00    -0.090 HD
ENDBRANCH   5  18
BRANCH   3  22
ATOM     22  C   LIG d   1       8.422  78.271 114.943  0.00  0.00     0.382 C 
ATOM     23  O   LIG d   1       7.437  77.523 114.734  0.00  0.00    -0.241 OA
ATOM     24  O   LIG d   1       8.233  79.458 115.270  0.00  0.00    -0.241 OA
ENDBRANCH   3  22
TORSDOF 7
ENDMDL
MODEL 3
REMARK VINA RESULT:      -4.3     27.026     29.324
REMARK  7 active torsions:
REMARK  status: ('A' for Active; 'I' for Inactive)
REMARK    1  A    between atoms: C_2  and  C_3 
REMARK    2  A    between atoms: C_3  and  O_6 
REMARK    3  A    between atoms: C_3  and  C_4 
REMARK    4  A    between atoms: C_7  and  O_6 
REMARK    5  A    between atoms: C_9  and  C_10 
REMARK    6  A    between atoms: N_15  and  C_14 
REMARK    7  A    between atoms: N_20  and  C_19 
REMARK       I    between atoms: C_22  and  N_20 
ROOT
ATOM      1  C   LIG d   1       4.574  87.346 116.259  0.00  0.00     0.161 C 
ATOM      2  C   LIG d   1       3.593  88.347 116.165  0.00  0.00     0.016 C 
ATOM      3  C   LIG d   1       3.863  89.721 116.361  0.00  0.00     0.038 C 
ATOM      4  C   LIG d   1       5.170  90.205 116.516  0.00  0.00     0.028 C 
ATOM      5  C   LIG d   1       6.128  89.183 117.119  0.00  0.00    -0.047 C 
ATOM      6  C   LIG d   1       6.026  87.866 116.317  0.00  0.00     0.091 C 
ENDROOT
BRANCH   1   7
ATOM      7  O   LIG d   1       4.420  86.408 115.175  0.00  0.00    -0.368 OA
BRANCH   7   8
ATOM      8  C   LIG d   1       3.760  86.910 113.987  0.00  0.00     0.119 C 
BRANCH   8   9
ATOM      9  C   LIG d   1       2.746  85.842 113.535  0.00  0.00     0.028 C 
ATOM     10  C   LIG d   1       1.704  85.524 114.621  0.00  0.00     0.006 C 
ENDBRANCH   8   9
BRANCH   8  11
ATOM     11  C   LIG d   1       4.743  87.056 112.822  0.00  0.00     0.028 C 
ATOM     12  C   LIG d   1       5.572  88.348 112.899  0.00  0.00     0.006 C 
ENDBRANCH   8  11
ENDBRANCH   7   8
ENDBRANCH   1   7
BRANCH   6  13
ATOM     13  N   LIG d   1       6.868  86.785 116.893  0.00  0.00    -0.311 N 
ATOM     14  C   LIG d   1       8.125  86.556 116.518  0.00  0.00     0.210 C 
ATOM     15  C   LIG d   1       8.807  85.380 117.223  0.00  0.00     0.109 C 
ATOM     16  O   LIG d   1       8.751  87.236 115.691  0.00  0.00    -0.276 OA
ATOM     17  H   LIG d   1       6.449  86.204 117.593  0.00  0.00     0.149 HD
ENDBRANCH   6  13
BRANCH   5  18
ATOM     18  N   LIG d   1       7.480  89.771 117.096  0.00  0.00     0.381 N 
ATOM     19  H   LIG d   1       8.107  89.201 117.629  0.00  0.00    -0.090 HD
ATOM     20  H   LIG d   1       7.446  90.682 117.519  0.00  0.00    -0.090 HD
ATOM     21  H   LIG d   1       7.804  89.845 116.157  0.00  0.00    -0.090 HD
ENDBRANCH   5  18
BRANCH   3  22
ATOM     22  C   LIG d   1       2.813  90.623 116.443  0.00  0.00     0.382 C 
ATOM     23  O   LIG d   1       3.021  91.793 116.845  0.00  0.00    -0.241 OA
ATOM     24  O   LIG d   1       1.652  90.268 116.162  0.00  0.00    -0.241 OA
ENDBRANCH   3  22
TORSDOF 7
ENDMDL
MODEL 4
REMARK VINA RESULT:      -4.1     34.013     36.656
REMARK  7 active torsions:
REMARK  status: ('A' for Active; 'I' for Inactive)
REMARK    1  A    between atoms: C_2  and  C_3 
REMARK    2  A    between atoms: C_3  and  O_6 
REMARK    3  A    between atoms: C_3  and  C_4 
REMARK    4  A    between atoms: C_7  and  O_6 
REMARK    5  A    between atoms: C_9  and  C_10 
REMARK    6  A    between atoms: N_15  and  C_14 
REMARK    7  A    between atoms: N_20  and  C_19 
REMARK       I    between atoms: C_22  and  N_20 
ROOT
ATOM      1  C   LIG d   1      11.603  76.687 113.997  0.00  0.00     0.161 C 
ATOM      2  C   LIG d   1      10.481  77.529 114.067  0.00  0.00     0.016 C 
ATOM      3  C   LIG d   1       9.652  77.627 115.208  0.00  0.00     0.038 C 
ATOM      4  C   LIG d   1       9.979  76.999 116.419  0.00  0.00     0.028 C 
ATOM      5  C   LIG d   1      10.824  75.742 116.240  0.00  0.00    -0.047 C 
ATOM      6  C   LIG d   1      12.040  76.078 115.346  0.00  0.00     0.091 C 
ENDROOT
BRANCH   1   7
ATOM      7  O   LIG d   1      12.703  77.388 113.385  0.00  0.00    -0.368 OA
BRANCH   7   8
ATOM      8  C   LIG d   1      13.358  78.387 114.205  0.00  0.00     0.119 C 
BRANCH   8   9
ATOM      9  C   LIG d   1      13.311  79.721 113.437  0.00  0.00     0.028 C 
ATOM     10  C   LIG d   1      13.356  80.940 114.374  0.00  0.00     0.006 C 
ENDBRANCH   8   9
BRANCH   8  11
ATOM     11  C   LIG d   1      14.847  78.073 114.382  0.00  0.00     0.028 C 
ATOM     12  C   LIG d   1      15.401  77.166 113.272  0.00  0.00     0.006 C 
ENDBRANCH   8  11
ENDBRANCH   7   8
ENDBRANCH   1   7
BRANCH   6  13
ATOM     13  N   LIG d   1      12.873  74.883 115.051  0.00  0.00    -0.311 N 
ATOM     14  C   LIG d   1      13.992  74.589 115.711  0.00  0.00     0.210 C 
ATOM     15  C   LIG d   1      14.710  73.323 115.235  0.00  0.00     0.109 C 
ATOM     16  O   LIG d   1      14.441  75.239 116.667  0.00  0.00    -0.276 OA
ATOM     17  H   LIG d   1      12.566  74.284 114.310  0.00  0.00     0.149 HD
ENDBRANCH   6  13
BRANCH   5  18
ATOM     18  N   LIG d   1      11.207  75.268 117.583  0.00  0.00     0.381 N 
ATOM     19  H   LIG d   1      12.173  75.468 117.750  0.00  0.00    -0.090 HD
ATOM     20  H   LIG d   1      11.080  74.272 117.624  0.00  0.00    -0.090 HD
ATOM     21  H   LIG d   1      10.644  75.711 118.275  0.00  0.00    -0.090 HD
ENDBRANCH   5  18
BRANCH   3  22
ATOM     22  C   LIG d   1       8.459  78.330 115.132  0.00  0.00     0.382 C 
ATOM     23  O   LIG d   1       8.411  79.526 115.507  0.00  0.00    -0.241 OA
ATOM     24  O   LIG d   1       7.420  77.770 114.735  0.00  0.00    -0.241 OA
ENDBRANCH   3  22
TORSDOF 7
ENDMDL
MODEL 5
REMARK VINA RESULT:      -4.0     19.282     21.922
REMARK  7 active torsions:
REMARK  status: ('A' for Active; 'I' for Inactive)
REMARK    1  A    between atoms: C_2  and  C_3 
REMARK    2  A    between atoms: C_3  and  O_6 
REMARK    3  A    between atoms: C_3  and  C_4 
REMARK    4  A    between atoms: C_7  and  O_6 
REMARK    5  A    between atoms: C_9  and  C_10 
REMARK    6  A    between atoms: N_15  and  C_14 
REMARK    7  A    between atoms: N_20  and  C_19 
REMARK       I    between atoms: C_22  and  N_20 
ROOT
ATOM      1  C   LIG d   1     -16.302  63.694 115.999  0.00  0.00     0.161 C 
ATOM      2  C   LIG d   1     -16.208  65.084 116.184  0.00  0.00     0.016 C 
ATOM      3  C   LIG d   1     -15.767  65.680 117.388  0.00  0.00     0.038 C 
ATOM      4  C   LIG d   1     -15.243  64.919 118.444  0.00  0.00     0.028 C 
ATOM      5  C   LIG d   1     -15.789  63.496 118.494  0.00  0.00    -0.047 C 
ATOM      6  C   LIG d   1     -15.629  62.848 117.100  0.00  0.00     0.091 C 
ENDROOT
BRANCH   1   7
ATOM      7  O   LIG d   1     -15.779  63.338 114.704  0.00  0.00    -0.368 OA
BRANCH   7   8
ATOM      8  C   LIG d   1     -16.758  62.981 113.697  0.00  0.00     0.119 C 
BRANCH   8   9
ATOM      9  C   LIG d   1     -17.084  64.256 112.896  0.00  0.00     0.028 C 
ATOM     10  C   LIG d   1     -18.516  64.758 113.149  0.00  0.00     0.006 C 
ENDBRANCH   8   9
BRANCH   8  11
ATOM     11  C   LIG d   1     -18.083  62.553 114.336  0.00  0.00     0.028 C 
ATOM     12  C   LIG d   1     -18.364  61.051 114.175  0.00  0.00     0.006 C 
ENDBRANCH   8  11
ENDBRANCH   7   8
ENDBRANCH   1   7
BRANCH   6  13
ATOM     13  N   LIG d   1     -16.215  61.483 117.038  0.00  0.00    -0.311 N 
ATOM     14  C   LIG d   1     -15.517  60.375 117.279  0.00  0.00     0.210 C 
ATOM     15  C   LIG d   1     -16.308  59.070 117.142  0.00  0.00     0.109 C 
ATOM     16  O   LIG d   1     -14.326  60.349 117.624  0.00  0.00    -0.276 OA
ATOM     17  H   LIG d   1     -17.184  61.413 116.796  0.00  0.00     0.149 HD
ENDBRANCH   6  13
BRANCH   5  18
ATOM     18  N   LIG d   1     -15.058  62.775 119.554  0.00  0.00     0.381 N 
ATOM     19  H   LIG d   1     -15.707  62.389 120.210  0.00  0.00    -0.090 HD
ATOM     20  H   LIG d   1     -14.466  63.425 120.040  0.00  0.00    -0.090 HD
ATOM     21  H   LIG d   1     -14.507  62.048 119.154  0.00  0.00    -0.090 HD
ENDBRANCH   5  18
BRANCH   3  22
ATOM     22  C   LIG d   1     -15.886  67.051 117.560  0.00  0.00     0.382 C 
ATOM     23  O   LIG d   1     -15.594  67.572 118.664  0.00  0.00    -0.241 OA
ATOM     24  O   LIG d   1     -16.323  67.767 116.640  0.00  0.00    -0.241 OA
ENDBRANCH   3  22
TORSDOF 7
ENDMDL
MODEL 6
REMARK VINA RESULT:      -4.0     26.452     28.770
REMARK  7 active torsions:
REMARK  status: ('A' for Active; 'I' for Inactive)
REMARK    1  A    between atoms: C_2  and  C_3 
REMARK    2  A    between atoms: C_3  and  O_6 
REMARK    3  A    between atoms: C_3  and  C_4 
REMARK    4  A    between atoms: C_7  and  O_6 
REMARK    5  A    between atoms: C_9  and  C_10 
REMARK    6  A    between atoms: N_15  and  C_14 
REMARK    7  A    between atoms: N_20  and  C_19 
REMARK       I    between atoms: C_22  and  N_20 
ROOT
ATOM      1  C   LIG d   1       4.250  85.618 115.041  0.00  0.00     0.161 C 
ATOM      2  C   LIG d   1       3.746  86.644 114.225  0.00  0.00     0.016 C 
ATOM      3  C   LIG d   1       4.396  87.887 114.047  0.00  0.00     0.038 C 
ATOM      4  C   LIG d   1       5.679  88.132 114.558  0.00  0.00     0.028 C 
ATOM      5  C   LIG d   1       6.002  87.314 115.804  0.00  0.00    -0.047 C 
ATOM      6  C   LIG d   1       5.703  85.825 115.517  0.00  0.00     0.091 C 
ENDROOT
BRANCH   1   7
ATOM      7  O   LIG d   1       4.119  84.350 114.368  0.00  0.00    -0.368 OA
BRANCH   7   8
ATOM      8  C   LIG d   1       2.821  83.712 114.456  0.00  0.00     0.119 C 
BRANCH   8   9
ATOM      9  C   LIG d   1       3.059  82.217 114.744  0.00  0.00     0.028 C 
ATOM     10  C   LIG d   1       4.056  81.581 113.761  0.00  0.00     0.006 C 
ENDBRANCH   8   9
BRANCH   8  11
ATOM     11  C   LIG d   1       2.087  83.755 113.113  0.00  0.00     0.028 C 
ATOM     12  C   LIG d   1       0.592  84.079 113.261  0.00  0.00     0.006 C 
ENDBRANCH   8  11
ENDBRANCH   7   8
ENDBRANCH   1   7
BRANCH   6  13
ATOM     13  N   LIG d   1       5.912  84.965 116.712  0.00  0.00    -0.311 N 
ATOM     14  C   LIG d   1       7.041  84.299 116.947  0.00  0.00     0.210 C 
ATOM     15  C   LIG d   1       7.039  83.455 118.226  0.00  0.00     0.109 C 
ATOM     16  O   LIG d   1       8.055  84.353 116.236  0.00  0.00    -0.276 OA
ATOM     17  H   LIG d   1       5.151  84.890 117.358  0.00  0.00     0.149 HD
ENDBRANCH   6  13
BRANCH   5  18
ATOM     18  N   LIG d   1       7.414  87.565 116.148  0.00  0.00     0.381 N 
ATOM     19  H   LIG d   1       7.821  88.187 115.478  0.00  0.00    -0.090 HD
ATOM     20  H   LIG d   1       7.916  86.695 116.115  0.00  0.00    -0.090 HD
ATOM     21  H   LIG d   1       7.478  87.959 117.060  0.00  0.00    -0.090 HD
ENDBRANCH   5  18
BRANCH   3  22
ATOM     22  C   LIG d   1       3.743  88.915 113.384  0.00  0.00     0.382 C 
ATOM     23  O   LIG d   1       2.549  88.773 113.029  0.00  0.00    -0.241 OA
ATOM     24  O   LIG d   1       4.348  89.966 113.098  0.00  0.00    -0.241 OA
ENDBRANCH   3  22
TORSDOF 7
ENDMDL
MODEL 7
REMARK VINA RESULT:      -3.9     32.477     35.053
REMARK  7 active torsions:
REMARK  status: ('A' for Active; 'I' for Inactive)
REMARK    1  A    between atoms: C_2  and  C_3 
REMARK    2  A    between atoms: C_3  and  O_6 
REMARK    3  A    between atoms: C_3  and  C_4 
REMARK    4  A    between atoms: C_7  and  O_6 
REMARK    5  A    between atoms: C_9  and  C_10 
REMARK    6  A    between atoms: N_15  and  C_14 
REMARK    7  A    between atoms: N_20  and  C_19 
REMARK       I    between atoms: C_22  and  N_20 
ROOT
ATOM      1  C   LIG d   1      10.506  78.661 115.123  0.00  0.00     0.161 C 
ATOM      2  C   LIG d   1       9.132  78.608 114.833  0.00  0.00     0.016 C 
ATOM      3  C   LIG d   1       8.123  78.771 115.810  0.00  0.00     0.038 C 
ATOM      4  C   LIG d   1       8.422  79.150 117.127  0.00  0.00     0.028 C 
ATOM      5  C   LIG d   1       9.812  78.720 117.581  0.00  0.00    -0.047 C 
ATOM      6  C   LIG d   1      10.849  79.185 116.533  0.00  0.00     0.091 C 
ENDROOT
BRANCH   1   7
ATOM      7  O   LIG d   1      11.187  79.440 114.120  0.00  0.00    -0.368 OA
BRANCH   7   8
ATOM      8  C   LIG d   1      12.090  78.712 113.251  0.00  0.00     0.119 C 
BRANCH   8   9
ATOM      9  C   LIG d   1      12.107  77.246 113.726  0.00  0.00     0.028 C 
ATOM     10  C   LIG d   1      13.519  76.766 114.099  0.00  0.00     0.006 C 
ENDBRANCH   8   9
BRANCH   8  11
ATOM     11  C   LIG d   1      13.531  79.205 113.407  0.00  0.00     0.028 C 
ATOM     12  C   LIG d   1      13.621  80.581 114.087  0.00  0.00     0.006 C 
ENDBRANCH   8  11
ENDBRANCH   7   8
ENDBRANCH   1   7
BRANCH   6  13
ATOM     13  N   LIG d   1      12.226  78.731 116.858  0.00  0.00    -0.311 N 
ATOM     14  C   LIG d   1      13.104  79.476 117.528  0.00  0.00     0.210 C 
ATOM     15  C   LIG d   1      14.475  78.826 117.739  0.00  0.00     0.109 C 
ATOM     16  O   LIG d   1      12.867  80.599 117.996  0.00  0.00    -0.276 OA
ATOM     17  H   LIG d   1      12.492  77.819 116.543  0.00  0.00     0.149 HD
ENDBRANCH   6  13
BRANCH   5  18
ATOM     18  N   LIG d   1      10.043  79.298 118.919  0.00  0.00     0.381 N 
ATOM     19  H   LIG d   1      10.654  80.087 118.846  0.00  0.00    -0.090 HD
ATOM     20  H   LIG d   1      10.487  78.608 119.499  0.00  0.00    -0.090 HD
ATOM     21  H   LIG d   1       9.177  79.576 119.324  0.00  0.00    -0.090 HD
ENDBRANCH   5  18
BRANCH   3  22
ATOM     22  C   LIG d   1       6.801  78.514 115.482  0.00  0.00     0.382 C 
ATOM     23  O   LIG d   1       6.276  79.088 114.498  0.00  0.00    -0.241 OA
ATOM     24  O   LIG d   1       6.113  77.749 116.185  0.00  0.00    -0.241 OA
ENDBRANCH   3  22
TORSDOF 7
ENDMDL
MODEL 8
REMARK VINA RESULT:      -3.9     19.050     21.773
REMARK  7 active torsions:
REMARK  status: ('A' for Active; 'I' for Inactive)
REMARK    1  A    between atoms: C_2  and  C_3 
REMARK    2  A    between atoms: C_3  and  O_6 
REMARK    3  A    between atoms: C_3  and  C_4 
REMARK    4  A    between atoms: C_7  and  O_6 
REMARK    5  A    between atoms: C_9  and  C_10 
REMARK    6  A    between atoms: N_15  and  C_14 
REMARK    7  A    between atoms: N_20  and  C_19 
REMARK       I    between atoms: C_22  and  N_20 
ROOT
ATOM      1  C   LIG d   1     -17.800  63.560 115.983  0.00  0.00     0.161 C 
ATOM      2  C   LIG d   1     -18.176  62.417 115.259  0.00  0.00     0.016 C 
ATOM      3  C   LIG d   1     -17.972  62.275 113.867  0.00  0.00     0.038 C 
ATOM      4  C   LIG d   1     -17.236  63.212 113.127  0.00  0.00     0.028 C 
ATOM      5  C   LIG d   1     -17.277  64.618 113.717  0.00  0.00    -0.047 C 
ATOM      6  C   LIG d   1     -16.896  64.546 115.213  0.00  0.00     0.091 C 
ENDROOT
BRANCH   1   7
ATOM      7  O   LIG d   1     -17.174  63.170 117.222  0.00  0.00    -0.368 OA
BRANCH   7   8
ATOM      8  C   LIG d   1     -15.736  62.999 117.183  0.00  0.00     0.119 C 
BRANCH   8   9
ATOM      9  C   LIG d   1     -15.449  61.485 117.224  0.00  0.00     0.028 C 
ATOM     10  C   LIG d   1     -14.326  61.127 118.212  0.00  0.00     0.006 C 
ENDBRANCH   8   9
BRANCH   8  11
ATOM     11  C   LIG d   1     -15.072  63.571 118.439  0.00  0.00     0.028 C 
ATOM     12  C   LIG d   1     -15.964  64.584 119.175  0.00  0.00     0.006 C 
ENDBRANCH   8  11
ENDBRANCH   7   8
ENDBRANCH   1   7
BRANCH   6  13
ATOM     13  N   LIG d   1     -16.993  65.866 115.887  0.00  0.00    -0.311 N 
ATOM     14  C   LIG d   1     -15.941  66.648 116.122  0.00  0.00     0.210 C 
ATOM     15  C   LIG d   1     -16.259  67.960 116.848  0.00  0.00     0.109 C 
ATOM     16  O   LIG d   1     -14.779  66.395 115.771  0.00  0.00    -0.276 OA
ATOM     17  H   LIG d   1     -17.904  66.164 116.178  0.00  0.00     0.149 HD
ENDBRANCH   6  13
BRANCH   5  18
ATOM     18  N   LIG d   1     -16.360  65.460 112.926  0.00  0.00     0.381 N 
ATOM     19  H   LIG d   1     -15.435  65.081 112.964  0.00  0.00    -0.090 HD
ATOM     20  H   LIG d   1     -16.340  66.382 113.325  0.00  0.00    -0.090 HD
ATOM     21  H   LIG d   1     -16.670  65.507 111.980  0.00  0.00    -0.090 HD
ENDBRANCH   5  18
BRANCH   3  22
ATOM     22  C   LIG d   1     -18.542  61.205 113.195  0.00  0.00     0.382 C 
ATOM     23  O   LIG d   1     -19.733  61.272 112.805  0.00  0.00    -0.241 OA
ATOM     24  O   LIG d   1     -17.895  60.157 113.011  0.00  0.00    -0.241 OA
ENDBRANCH   3  22
TORSDOF 7
ENDMDL
MODEL 9
REMARK VINA RESULT:      -3.9      2.808      4.868
REMARK  7 active torsions:
REMARK  status: ('A' for Active; 'I' for Inactive)
REMARK    1  A    between atoms: C_2  and  C_3 
REMARK    2  A    between atoms: C_3  and  O_6 
REMARK    3  A    between atoms: C_3  and  C_4 
REMARK    4  A    between atoms: C_7  and  O_6 
REMARK    5  A    between atoms: C_9  and  C_10 
REMARK    6  A    between atoms: N_15  and  C_14 
REMARK    7  A    between atoms: N_20  and  C_19 
REMARK       I    between atoms: C_22  and  N_20 
ROOT
ATOM      1  C   LIG d   1     -24.642  84.422 116.204  0.00  0.00     0.161 C 
ATOM      2  C   LIG d   1     -23.486  84.659 115.441  0.00  0.00     0.016 C 
ATOM      3  C   LIG d   1     -23.412  85.638 114.424  0.00  0.00     0.038 C 
ATOM      4  C   LIG d   1     -24.450  86.555 114.200  0.00  0.00     0.028 C 
ATOM      5  C   LIG d   1     -25.822  86.027 114.603  0.00  0.00    -0.047 C 
ATOM      6  C   LIG d   1     -25.747  85.488 116.050  0.00  0.00     0.091 C 
ENDROOT
BRANCH   1   7
ATOM      7  O   LIG d   1     -24.288  84.264 117.592  0.00  0.00    -0.368 OA
BRANCH   7   8
ATOM      8  C   LIG d   1     -22.877  84.094 117.875  0.00  0.00     0.119 C 
BRANCH   8   9
ATOM      9  C   LIG d   1     -22.657  82.618 118.261  0.00  0.00     0.028 C 
ATOM     10  C   LIG d   1     -21.177  82.294 118.520  0.00  0.00     0.006 C 
ENDBRANCH   8   9
BRANCH   8  11
ATOM     11  C   LIG d   1     -22.453  84.902 119.104  0.00  0.00     0.028 C 
ATOM     12  C   LIG d   1     -22.555  86.420 118.883  0.00  0.00     0.006 C 
ENDBRANCH   8  11
ENDBRANCH   7   8
ENDBRANCH   1   7
BRANCH   6  13
ATOM     13  N   LIG d   1     -27.027  84.875 116.493  0.00  0.00    -0.311 N 
ATOM     14  C   LIG d   1     -27.777  85.374 117.474  0.00  0.00     0.210 C 
ATOM     15  C   LIG d   1     -29.047  84.576 117.786  0.00  0.00     0.109 C 
ATOM     16  O   LIG d   1     -27.528  86.419 118.094  0.00  0.00    -0.276 OA
ATOM     17  H   LIG d   1     -27.321  84.041 116.023  0.00  0.00     0.149 HD
ENDBRANCH   6  13
BRANCH   5  18
ATOM     18  N   LIG d   1     -26.788  87.130 114.447  0.00  0.00     0.381 N 
ATOM     19  H   LIG d   1     -26.943  87.573 115.331  0.00  0.00    -0.090 HD
ATOM     20  H   LIG d   1     -27.662  86.754 114.124  0.00  0.00    -0.090 HD
ATOM     21  H   LIG d   1     -26.442  87.796 113.790  0.00  0.00    -0.090 HD
ENDBRANCH   5  18
BRANCH   3  22
ATOM     22  C   LIG d   1     -22.305  85.680 113.590  0.00  0.00     0.382 C 
ATOM     23  O   LIG d   1     -22.017  84.686 112.879  0.00  0.00    -0.241 OA
ATOM     24  O   LIG d   1     -21.565  86.682 113.572  0.00  0.00    -0.241 OA
ENDBRANCH   3  22
TORSDOF 7
ENDMDL
