MODEL 1
REMARK VINA RESULT:      -5.3      0.000      0.000
REMARK  7 active torsions:
REMARK  status: ('A' for Active; 'I' for Inactive)
REMARK    1  A    between atoms: C_2  and  C_3 
REMARK    2  A    between atoms: C_3  and  O_6 
REMARK    3  A    between atoms: C_3  and  C_4 
REMARK    4  A    between atoms: C_7  and  O_6 
REMARK    5  A    between atoms: C_9  and  C_10 
REMARK    6  A    between atoms: N_15  and  C_14 
REMARK    7  A    between atoms: N_20  and  C_19 
REMARK       I    between atoms: C_22  and  N_20 
ROOT
ATOM      1  C   LIG d   1      -6.164  77.327 116.864  0.00  0.00     0.161 C 
ATOM      2  C   LIG d   1      -7.486  76.862 116.971  0.00  0.00     0.016 C 
ATOM      3  C   LIG d   1      -8.457  77.463 117.805  0.00  0.00     0.038 C 
ATOM      4  C   LIG d   1      -8.212  78.670 118.477  0.00  0.00     0.028 C 
ATOM      5  C   LIG d   1      -6.738  78.897 118.796  0.00  0.00    -0.047 C 
ATOM      6  C   LIG d   1      -5.910  78.707 117.505  0.00  0.00     0.091 C 
ENDROOT
BRANCH   1   7
ATOM      7  O   LIG d   1      -5.760  77.334 115.480  0.00  0.00    -0.368 OA
BRANCH   7   8
ATOM      8  C   LIG d   1      -4.786  76.333 115.096  0.00  0.00     0.119 C 
BRANCH   8   9
ATOM      9  C   LIG d   1      -5.518  75.278 114.243  0.00  0.00     0.028 C 
ATOM     10  C   LIG d   1      -6.046  74.106 115.087  0.00  0.00     0.006 C 
ENDBRANCH   8   9
BRANCH   8  11
ATOM     11  C   LIG d   1      -4.256  75.573 116.315  0.00  0.00     0.028 C 
ATOM     12  C   LIG d   1      -2.735  75.706 116.487  0.00  0.00     0.006 C 
ENDBRANCH   8  11
ENDBRANCH   7   8
ENDBRANCH   1   7
BRANCH   6  13
ATOM     13  N   LIG d   1      -4.449  78.829 117.745  0.00  0.00    -0.311 N 
ATOM     14  C   LIG d   1      -3.626  79.499 116.940  0.00  0.00     0.210 C 
ATOM     15  C   LIG d   1      -2.154  79.483 117.361  0.00  0.00     0.109 C 
ATOM     16  O   LIG d   1      -3.982  80.132 115.934  0.00  0.00    -0.276 OA
ATOM     17  H   LIG d   1      -4.080  78.372 118.556  0.00  0.00     0.149 HD
ENDBRANCH   6  13
BRANCH   5  18
ATOM     18  N   LIG d   1      -6.610  80.249 119.371  0.00  0.00     0.381 N 
ATOM     19  H   LIG d   1      -6.724  80.936 118.652  0.00  0.00    -0.090 HD
ATOM     20  H   LIG d   1      -5.689  80.351 119.761  0.00  0.00    -0.090 HD
ATOM     21  H   LIG d   1      -7.295  80.384 120.082  0.00  0.00    -0.090 HD
ENDBRANCH   5  18
BRANCH   3  22
ATOM     22  C   LIG d   1      -9.677  76.835 118.003  0.00  0.00     0.382 C 
ATOM     23  O   LIG d   1     -10.592  77.425 118.625  0.00  0.00    -0.241 OA
ATOM     24  O   LIG d   1      -9.858  75.668 117.606  0.00  0.00    -0.241 OA
ENDBRANCH   3  22
TORSDOF 7
ENDMDL
MODEL 2
REMARK VINA RESULT:      -5.2      1.515      2.604
REMARK  7 active torsions:
REMARK  status: ('A' for Active; 'I' for Inactive)
REMARK    1  A    between atoms: C_2  and  C_3 
REMARK    2  A    between atoms: C_3  and  O_6 
REMARK    3  A    between atoms: C_3  and  C_4 
REMARK    4  A    between atoms: C_7  and  O_6 
REMARK    5  A    between atoms: C_9  and  C_10 
REMARK    6  A    between atoms: N_15  and  C_14 
REMARK    7  A    between atoms: N_20  and  C_19 
REMARK       I    between atoms: C_22  and  N_20 
ROOT
ATOM      1  C   LIG d   1      -6.448  77.450 117.284  0.00  0.00     0.161 C 
ATOM      2  C   LIG d   1      -7.363  76.404 117.082  0.00  0.00     0.016 C 
ATOM      3  C   LIG d   1      -8.679  76.410 117.599  0.00  0.00     0.038 C 
ATOM      4  C   LIG d   1      -9.222  77.538 118.231  0.00  0.00     0.028 C 
ATOM      5  C   LIG d   1      -8.174  78.422 118.899  0.00  0.00    -0.047 C 
ATOM      6  C   LIG d   1      -7.059  78.738 117.877  0.00  0.00     0.091 C 
ENDROOT
BRANCH   1   7
ATOM      7  O   LIG d   1      -5.760  77.743 116.052  0.00  0.00    -0.368 OA
BRANCH   7   8
ATOM      8  C   LIG d   1      -4.397  77.262 115.953  0.00  0.00     0.119 C 
BRANCH   8   9
ATOM      9  C   LIG d   1      -3.468  78.490 115.995  0.00  0.00     0.028 C 
ATOM     10  C   LIG d   1      -2.584  78.515 117.253  0.00  0.00     0.006 C 
ENDBRANCH   8   9
BRANCH   8  11
ATOM     11  C   LIG d   1      -4.137  76.602 114.596  0.00  0.00     0.028 C 
ATOM     12  C   LIG d   1      -5.399  75.972 113.987  0.00  0.00     0.006 C 
ENDBRANCH   8  11
ENDBRANCH   7   8
ENDBRANCH   1   7
BRANCH   6  13
ATOM     13  N   LIG d   1      -5.950  79.528 118.473  0.00  0.00    -0.311 N 
ATOM     14  C   LIG d   1      -5.662  80.777 118.109  0.00  0.00     0.210 C 
ATOM     15  C   LIG d   1      -4.467  81.402 118.836  0.00  0.00     0.109 C 
ATOM     16  O   LIG d   1      -6.303  81.437 117.278  0.00  0.00    -0.276 OA
ATOM     17  H   LIG d   1      -5.399  79.080 119.178  0.00  0.00     0.149 HD
ENDBRANCH   6  13
BRANCH   5  18
ATOM     18  N   LIG d   1      -8.860  79.628 119.398  0.00  0.00     0.381 N 
ATOM     19  H   LIG d   1      -8.379  79.985 120.200  0.00  0.00    -0.090 HD
ATOM     20  H   LIG d   1      -9.794  79.380 119.675  0.00  0.00    -0.090 HD
ATOM     21  H   LIG d   1      -8.891  80.323 118.684  0.00  0.00    -0.090 HD
ENDBRANCH   5  18
BRANCH   3  22
ATOM     22  C   LIG d   1      -9.453  75.262 117.521  0.00  0.00     0.382 C 
ATOM     23  O   LIG d   1      -8.909  74.133 117.583  0.00  0.00    -0.241 OA
ATOM     24  O   LIG d   1     -10.684  75.341 117.346  0.00  0.00    -0.241 OA
ENDBRANCH   3  22
TORSDOF 7
ENDMDL
MODEL 3
REMARK VINA RESULT:      -5.1     14.562     17.187
REMARK  7 active torsions:
REMARK  status: ('A' for Active; 'I' for Inactive)
REMARK    1  A    between atoms: C_2  and  C_3 
REMARK    2  A    between atoms: C_3  and  O_6 
REMARK    3  A    between atoms: C_3  and  C_4 
REMARK    4  A    between atoms: C_7  and  O_6 
REMARK    5  A    between atoms: C_9  and  C_10 
REMARK    6  A    between atoms: N_15  and  C_14 
REMARK    7  A    between atoms: N_20  and  C_19 
REMARK       I    between atoms: C_22  and  N_20 
ROOT
ATOM      1  C   LIG d   1     -17.105  65.711 116.130  0.00  0.00     0.161 C 
ATOM      2  C   LIG d   1     -16.061  65.042 116.791  0.00  0.00     0.016 C 
ATOM      3  C   LIG d   1     -15.917  63.636 116.793  0.00  0.00     0.038 C 
ATOM      4  C   LIG d   1     -16.726  62.806 116.004  0.00  0.00     0.028 C 
ATOM      5  C   LIG d   1     -18.104  63.395 115.722  0.00  0.00    -0.047 C 
ATOM      6  C   LIG d   1     -17.934  64.830 115.172  0.00  0.00     0.091 C 
ENDROOT
BRANCH   1   7
ATOM      7  O   LIG d   1     -16.585  66.859 115.431  0.00  0.00    -0.368 OA
BRANCH   7   8
ATOM      8  C   LIG d   1     -15.242  66.730 114.904  0.00  0.00     0.119 C 
BRANCH   8   9
ATOM      9  C   LIG d   1     -14.451  67.979 115.339  0.00  0.00     0.028 C 
ATOM     10  C   LIG d   1     -15.159  68.762 116.457  0.00  0.00     0.006 C 
ENDBRANCH   8   9
BRANCH   8  11
ATOM     11  C   LIG d   1     -15.239  66.761 113.373  0.00  0.00     0.028 C 
ATOM     12  C   LIG d   1     -14.811  68.123 112.805  0.00  0.00     0.006 C 
ENDBRANCH   8  11
ENDBRANCH   7   8
ENDBRANCH   1   7
BRANCH   6  13
ATOM     13  N   LIG d   1     -19.236  65.510 114.949  0.00  0.00    -0.311 N 
ATOM     14  C   LIG d   1     -19.908  65.448 113.800  0.00  0.00     0.210 C 
ATOM     15  C   LIG d   1     -21.220  66.238 113.775  0.00  0.00     0.109 C 
ATOM     16  O   LIG d   1     -19.558  64.787 112.811  0.00  0.00    -0.276 OA
ATOM     17  H   LIG d   1     -19.609  66.043 115.710  0.00  0.00     0.149 HD
ENDBRANCH   6  13
BRANCH   5  18
ATOM     18  N   LIG d   1     -18.790  62.492 114.778  0.00  0.00     0.381 N 
ATOM     19  H   LIG d   1     -19.204  63.025 114.039  0.00  0.00    -0.090 HD
ATOM     20  H   LIG d   1     -19.523  62.008 115.266  0.00  0.00    -0.090 HD
ATOM     21  H   LIG d   1     -18.142  61.836 114.402  0.00  0.00    -0.090 HD
ENDBRANCH   5  18
BRANCH   3  22
ATOM     22  C   LIG d   1     -14.978  63.043 117.624  0.00  0.00     0.382 C 
ATOM     23  O   LIG d   1     -15.347  62.242 118.516  0.00  0.00    -0.241 OA
ATOM     24  O   LIG d   1     -13.771  63.334 117.521  0.00  0.00    -0.241 OA
ENDBRANCH   3  22
TORSDOF 7
ENDMDL
MODEL 4
REMARK VINA RESULT:      -5.0     14.555     17.074
REMARK  7 active torsions:
REMARK  status: ('A' for Active; 'I' for Inactive)
REMARK    1  A    between atoms: C_2  and  C_3 
REMARK    2  A    between atoms: C_3  and  O_6 
REMARK    3  A    between atoms: C_3  and  C_4 
REMARK    4  A    between atoms: C_7  and  O_6 
REMARK    5  A    between atoms: C_9  and  C_10 
REMARK    6  A    between atoms: N_15  and  C_14 
REMARK    7  A    between atoms: N_20  and  C_19 
REMARK       I    between atoms: C_22  and  N_20 
ROOT
ATOM      1  C   LIG d   1     -16.248  65.243 115.539  0.00  0.00     0.161 C 
ATOM      2  C   LIG d   1     -15.366  64.736 116.507  0.00  0.00     0.016 C 
ATOM      3  C   LIG d   1     -15.554  63.494 117.156  0.00  0.00     0.038 C 
ATOM      4  C   LIG d   1     -16.563  62.600 116.769  0.00  0.00     0.028 C 
ATOM      5  C   LIG d   1     -17.775  63.287 116.149  0.00  0.00    -0.047 C 
ATOM      6  C   LIG d   1     -17.295  64.233 115.024  0.00  0.00     0.091 C 
ENDROOT
BRANCH   1   7
ATOM      7  O   LIG d   1     -15.500  65.795 114.438  0.00  0.00    -0.368 OA
BRANCH   7   8
ATOM      8  C   LIG d   1     -15.528  67.238 114.308  0.00  0.00     0.119 C 
BRANCH   8   9
ATOM      9  C   LIG d   1     -15.076  67.583 112.876  0.00  0.00     0.028 C 
ATOM     10  C   LIG d   1     -14.318  68.919 112.805  0.00  0.00     0.006 C 
ENDBRANCH   8   9
BRANCH   8  11
ATOM     11  C   LIG d   1     -14.499  67.900 115.228  0.00  0.00     0.028 C 
ATOM     12  C   LIG d   1     -15.130  68.496 116.497  0.00  0.00     0.006 C 
ENDBRANCH   8  11
ENDBRANCH   7   8
ENDBRANCH   1   7
BRANCH   6  13
ATOM     13  N   LIG d   1     -18.409  65.008 114.420  0.00  0.00    -0.311 N 
ATOM     14  C   LIG d   1     -19.116  64.583 113.374  0.00  0.00     0.210 C 
ATOM     15  C   LIG d   1     -20.208  65.545 112.897  0.00  0.00     0.109 C 
ATOM     16  O   LIG d   1     -18.963  63.485 112.817  0.00  0.00    -0.276 OA
ATOM     17  H   LIG d   1     -18.622  65.896 114.830  0.00  0.00     0.149 HD
ENDBRANCH   6  13
BRANCH   5  18
ATOM     18  N   LIG d   1     -18.687  62.233 115.667  0.00  0.00     0.381 N 
ATOM     19  H   LIG d   1     -18.717  62.242 114.667  0.00  0.00    -0.090 HD
ATOM     20  H   LIG d   1     -19.612  62.420 116.012  0.00  0.00    -0.090 HD
ATOM     21  H   LIG d   1     -18.379  61.342 115.989  0.00  0.00    -0.090 HD
ENDBRANCH   5  18
BRANCH   3  22
ATOM     22  C   LIG d   1     -14.749  63.153 118.233  0.00  0.00     0.382 C 
ATOM     23  O   LIG d   1     -15.267  62.722 119.291  0.00  0.00    -0.241 OA
ATOM     24  O   LIG d   1     -13.515  63.311 118.175  0.00  0.00    -0.241 OA
ENDBRANCH   3  22
TORSDOF 7
ENDMDL
MODEL 5
REMARK VINA RESULT:      -4.9     14.623     17.475
REMARK  7 active torsions:
REMARK  status: ('A' for Active; 'I' for Inactive)
REMARK    1  A    between atoms: C_2  and  C_3 
REMARK    2  A    between atoms: C_3  and  O_6 
REMARK    3  A    between atoms: C_3  and  C_4 
REMARK    4  A    between atoms: C_7  and  O_6 
REMARK    5  A    between atoms: C_9  and  C_10 
REMARK    6  A    between atoms: N_15  and  C_14 
REMARK    7  A    between atoms: N_20  and  C_19 
REMARK       I    between atoms: C_22  and  N_20 
ROOT
ATOM      1  C   LIG d   1     -16.096  64.214 116.511  0.00  0.00     0.161 C 
ATOM      2  C   LIG d   1     -15.339  65.296 116.990  0.00  0.00     0.016 C 
ATOM      3  C   LIG d   1     -14.952  66.392 116.184  0.00  0.00     0.038 C 
ATOM      4  C   LIG d   1     -15.427  66.553 114.875  0.00  0.00     0.028 C 
ATOM      5  C   LIG d   1     -15.780  65.236 114.191  0.00  0.00    -0.047 C 
ATOM      6  C   LIG d   1     -16.718  64.426 115.115  0.00  0.00     0.091 C 
ENDROOT
BRANCH   1   7
ATOM      7  O   LIG d   1     -17.118  63.871 117.468  0.00  0.00    -0.368 OA
BRANCH   7   8
ATOM      8  C   LIG d   1     -18.377  64.576 117.335  0.00  0.00     0.119 C 
BRANCH   8   9
ATOM      9  C   LIG d   1     -18.550  65.456 118.589  0.00  0.00     0.028 C 
ATOM     10  C   LIG d   1     -18.396  66.955 118.279  0.00  0.00     0.006 C 
ENDBRANCH   8   9
BRANCH   8  11
ATOM     11  C   LIG d   1     -19.563  63.607 117.354  0.00  0.00     0.028 C 
ATOM     12  C   LIG d   1     -19.128  62.135 117.439  0.00  0.00     0.006 C 
ENDBRANCH   8  11
ENDBRANCH   7   8
ENDBRANCH   1   7
BRANCH   6  13
ATOM     13  N   LIG d   1     -17.043  63.087 114.559  0.00  0.00    -0.311 N 
ATOM     14  C   LIG d   1     -18.166  62.824 113.893  0.00  0.00     0.210 C 
ATOM     15  C   LIG d   1     -18.313  61.373 113.423  0.00  0.00     0.109 C 
ATOM     16  O   LIG d   1     -19.039  63.661 113.619  0.00  0.00    -0.276 OA
ATOM     17  H   LIG d   1     -16.375  62.356 114.709  0.00  0.00     0.149 HD
ENDBRANCH   6  13
BRANCH   5  18
ATOM     18  N   LIG d   1     -16.390  65.560 112.888  0.00  0.00     0.381 N 
ATOM     19  H   LIG d   1     -16.260  66.531 112.685  0.00  0.00    -0.090 HD
ATOM     20  H   LIG d   1     -17.377  65.378 112.937  0.00  0.00    -0.090 HD
ATOM     21  H   LIG d   1     -15.978  65.005 112.171  0.00  0.00    -0.090 HD
ENDBRANCH   5  18
BRANCH   3  22
ATOM     22  C   LIG d   1     -14.047  67.320 116.676  0.00  0.00     0.382 C 
ATOM     23  O   LIG d   1     -13.930  67.487 117.914  0.00  0.00    -0.241 OA
ATOM     24  O   LIG d   1     -13.378  68.025 115.896  0.00  0.00    -0.241 OA
ENDBRANCH   3  22
TORSDOF 7
ENDMDL
MODEL 6
REMARK VINA RESULT:      -4.9     14.420     16.960
REMARK  7 active torsions:
REMARK  status: ('A' for Active; 'I' for Inactive)
REMARK    1  A    between atoms: C_2  and  C_3 
REMARK    2  A    between atoms: C_3  and  O_6 
REMARK    3  A    between atoms: C_3  and  C_4 
REMARK    4  A    between atoms: C_7  and  O_6 
REMARK    5  A    between atoms: C_9  and  C_10 
REMARK    6  A    between atoms: N_15  and  C_14 
REMARK    7  A    between atoms: N_20  and  C_19 
REMARK       I    between atoms: C_22  and  N_20 
ROOT
ATOM      1  C   LIG d   1     -16.443  64.956 114.965  0.00  0.00     0.161 C 
ATOM      2  C   LIG d   1     -16.002  66.076 114.240  0.00  0.00     0.016 C 
ATOM      3  C   LIG d   1     -15.056  67.002 114.737  0.00  0.00     0.038 C 
ATOM      4  C   LIG d   1     -14.369  66.785 115.941  0.00  0.00     0.028 C 
ATOM      5  C   LIG d   1     -15.147  65.934 116.938  0.00  0.00    -0.047 C 
ATOM      6  C   LIG d   1     -15.622  64.643 116.233  0.00  0.00     0.091 C 
ENDROOT
BRANCH   1   7
ATOM      7  O   LIG d   1     -16.490  63.803 114.101  0.00  0.00    -0.368 OA
BRANCH   7   8
ATOM      8  C   LIG d   1     -17.784  63.485 113.533  0.00  0.00     0.119 C 
BRANCH   8   9
ATOM      9  C   LIG d   1     -18.848  64.240 114.353  0.00  0.00     0.028 C 
ATOM     10  C   LIG d   1     -19.883  64.948 113.462  0.00  0.00     0.006 C 
ENDBRANCH   8   9
BRANCH   8  11
ATOM     11  C   LIG d   1     -18.118  62.000 113.704  0.00  0.00     0.028 C 
ATOM     12  C   LIG d   1     -18.718  61.679 115.082  0.00  0.00     0.006 C 
ENDBRANCH   8  11
ENDBRANCH   7   8
ENDBRANCH   1   7
BRANCH   6  13
ATOM     13  N   LIG d   1     -16.464  63.793 117.115  0.00  0.00    -0.311 N 
ATOM     14  C   LIG d   1     -15.974  62.815 117.875  0.00  0.00     0.210 C 
ATOM     15  C   LIG d   1     -17.018  62.047 118.693  0.00  0.00     0.109 C 
ATOM     16  O   LIG d   1     -14.771  62.531 117.975  0.00  0.00    -0.276 OA
ATOM     17  H   LIG d   1     -17.448  63.975 117.120  0.00  0.00     0.149 HD
ENDBRANCH   6  13
BRANCH   5  18
ATOM     18  N   LIG d   1     -14.262  65.673 118.089  0.00  0.00     0.381 N 
ATOM     19  H   LIG d   1     -14.065  66.530 118.566  0.00  0.00    -0.090 HD
ATOM     20  H   LIG d   1     -13.395  65.293 117.751  0.00  0.00    -0.090 HD
ATOM     21  H   LIG d   1     -14.695  65.029 118.713  0.00  0.00    -0.090 HD
ENDBRANCH   5  18
BRANCH   3  22
ATOM     22  C   LIG d   1     -14.818  68.180 114.046  0.00  0.00     0.382 C 
ATOM     23  O   LIG d   1     -15.003  68.227 112.806  0.00  0.00    -0.241 OA
ATOM     24  O   LIG d   1     -14.377  69.182 114.639  0.00  0.00    -0.241 OA
ENDBRANCH   3  22
TORSDOF 7
ENDMDL
MODEL 7
REMARK VINA RESULT:      -4.8     14.547     16.907
REMARK  7 active torsions:
REMARK  status: ('A' for Active; 'I' for Inactive)
REMARK    1  A    between atoms: C_2  and  C_3 
REMARK    2  A    between atoms: C_3  and  O_6 
REMARK    3  A    between atoms: C_3  and  C_4 
REMARK    4  A    between atoms: C_7  and  O_6 
REMARK    5  A    between atoms: C_9  and  C_10 
REMARK    6  A    between atoms: N_15  and  C_14 
REMARK    7  A    between atoms: N_20  and  C_19 
REMARK       I    between atoms: C_22  and  N_20 
ROOT
ATOM      1  C   LIG d   1     -16.034  64.713 116.016  0.00  0.00     0.161 C 
ATOM      2  C   LIG d   1     -16.670  64.120 114.913  0.00  0.00     0.016 C 
ATOM      3  C   LIG d   1     -17.552  63.020 115.022  0.00  0.00     0.038 C 
ATOM      4  C   LIG d   1     -17.978  62.532 116.266  0.00  0.00     0.028 C 
ATOM      5  C   LIG d   1     -16.974  62.772 117.388  0.00  0.00    -0.047 C 
ATOM      6  C   LIG d   1     -16.573  64.266 117.391  0.00  0.00     0.091 C 
ENDROOT
BRANCH   1   7
ATOM      7  O   LIG d   1     -16.091  66.149 115.899  0.00  0.00    -0.368 OA
BRANCH   7   8
ATOM      8  C   LIG d   1     -14.883  66.799 115.434  0.00  0.00     0.119 C 
BRANCH   8   9
ATOM      9  C   LIG d   1     -14.153  67.359 116.670  0.00  0.00     0.028 C 
ATOM     10  C   LIG d   1     -15.110  68.058 117.650  0.00  0.00     0.006 C 
ENDBRANCH   8   9
BRANCH   8  11
ATOM     11  C   LIG d   1     -15.205  68.019 114.566  0.00  0.00     0.028 C 
ATOM     12  C   LIG d   1     -14.882  67.795 113.080  0.00  0.00     0.006 C 
ENDBRANCH   8  11
ENDBRANCH   7   8
ENDBRANCH   1   7
BRANCH   6  13
ATOM     13  N   LIG d   1     -15.530  64.570 118.404  0.00  0.00    -0.311 N 
ATOM     14  C   LIG d   1     -14.325  64.002 118.410  0.00  0.00     0.210 C 
ATOM     15  C   LIG d   1     -13.408  64.443 119.555  0.00  0.00     0.109 C 
ATOM     16  O   LIG d   1     -13.918  63.199 117.557  0.00  0.00    -0.276 OA
ATOM     17  H   LIG d   1     -15.765  65.235 119.115  0.00  0.00     0.149 HD
ENDBRANCH   6  13
BRANCH   5  18
ATOM     18  N   LIG d   1     -17.603  62.340 118.650  0.00  0.00     0.381 N 
ATOM     19  H   LIG d   1     -18.597  62.322 118.544  0.00  0.00    -0.090 HD
ATOM     20  H   LIG d   1     -17.374  63.001 119.371  0.00  0.00    -0.090 HD
ATOM     21  H   LIG d   1     -17.272  61.434 118.902  0.00  0.00    -0.090 HD
ENDBRANCH   5  18
BRANCH   3  22
ATOM     22  C   LIG d   1     -17.985  62.371 113.876  0.00  0.00     0.382 C 
ATOM     23  O   LIG d   1     -17.719  61.157 113.704  0.00  0.00    -0.241 OA
ATOM     24  O   LIG d   1     -18.601  62.995 112.991  0.00  0.00    -0.241 OA
ENDBRANCH   3  22
TORSDOF 7
ENDMDL
MODEL 8
REMARK VINA RESULT:      -4.8     14.083     16.489
REMARK  7 active torsions:
REMARK  status: ('A' for Active; 'I' for Inactive)
REMARK    1  A    between atoms: C_2  and  C_3 
REMARK    2  A    between atoms: C_3  and  O_6 
REMARK    3  A    between atoms: C_3  and  C_4 
REMARK    4  A    between atoms: C_7  and  O_6 
REMARK    5  A    between atoms: C_9  and  C_10 
REMARK    6  A    between atoms: N_15  and  C_14 
REMARK    7  A    between atoms: N_20  and  C_19 
REMARK       I    between atoms: C_22  and  N_20 
ROOT
ATOM      1  C   LIG d   1     -16.460  64.966 114.966  0.00  0.00     0.161 C 
ATOM      2  C   LIG d   1     -16.679  63.942 115.903  0.00  0.00     0.016 C 
ATOM      3  C   LIG d   1     -16.040  63.890 117.163  0.00  0.00     0.038 C 
ATOM      4  C   LIG d   1     -15.249  64.947 117.637  0.00  0.00     0.028 C 
ATOM      5  C   LIG d   1     -14.598  65.763 116.525  0.00  0.00    -0.047 C 
ATOM      6  C   LIG d   1     -15.685  66.185 115.510  0.00  0.00     0.091 C 
ENDROOT
BRANCH   1   7
ATOM      7  O   LIG d   1     -17.716  65.385 114.397  0.00  0.00    -0.368 OA
BRANCH   7   8
ATOM      8  C   LIG d   1     -18.907  64.802 114.983  0.00  0.00     0.119 C 
BRANCH   8   9
ATOM      9  C   LIG d   1     -19.636  64.023 113.871  0.00  0.00     0.028 C 
ATOM     10  C   LIG d   1     -20.242  64.952 112.805  0.00  0.00     0.006 C 
ENDBRANCH   8   9
BRANCH   8  11
ATOM     11  C   LIG d   1     -19.893  65.884 115.433  0.00  0.00     0.028 C 
ATOM     12  C   LIG d   1     -19.228  66.980 116.282  0.00  0.00     0.006 C 
ENDBRANCH   8  11
ENDBRANCH   7   8
ENDBRANCH   1   7
BRANCH   6  13
ATOM     13  N   LIG d   1     -15.120  66.915 114.346  0.00  0.00    -0.311 N 
ATOM     14  C   LIG d   1     -14.908  68.230 114.338  0.00  0.00     0.210 C 
ATOM     15  C   LIG d   1     -14.338  68.785 113.029  0.00  0.00     0.109 C 
ATOM     16  O   LIG d   1     -15.107  68.984 115.302  0.00  0.00    -0.276 OA
ATOM     17  H   LIG d   1     -14.901  66.376 113.531  0.00  0.00     0.149 HD
ENDBRANCH   6  13
BRANCH   5  18
ATOM     18  N   LIG d   1     -13.917  66.910 117.153  0.00  0.00     0.381 N 
ATOM     19  H   LIG d   1     -13.737  67.615 116.467  0.00  0.00    -0.090 HD
ATOM     20  H   LIG d   1     -13.036  66.601 117.526  0.00  0.00    -0.090 HD
ATOM     21  H   LIG d   1     -14.482  67.283 117.884  0.00  0.00    -0.090 HD
ENDBRANCH   5  18
BRANCH   3  22
ATOM     22  C   LIG d   1     -16.159  62.753 117.948  0.00  0.00     0.382 C 
ATOM     23  O   LIG d   1     -15.135  62.220 118.438  0.00  0.00    -0.241 OA
ATOM     24  O   LIG d   1     -17.274  62.229 118.135  0.00  0.00    -0.241 OA
ENDBRANCH   3  22
TORSDOF 7
ENDMDL
MODEL 9
REMARK VINA RESULT:      -4.7      3.554      6.583
REMARK  7 active torsions:
REMARK  status: ('A' for Active; 'I' for Inactive)
REMARK    1  A    between atoms: C_2  and  C_3 
REMARK    2  A    between atoms: C_3  and  O_6 
REMARK    3  A    between atoms: C_3  and  C_4 
REMARK    4  A    between atoms: C_7  and  O_6 
REMARK    5  A    between atoms: C_9  and  C_10 
REMARK    6  A    between atoms: N_15  and  C_14 
REMARK    7  A    between atoms: N_20  and  C_19 
REMARK       I    between atoms: C_22  and  N_20 
ROOT
ATOM      1  C   LIG d   1      -2.269  78.180 116.400  0.00  0.00     0.161 C 
ATOM      2  C   LIG d   1      -2.560  79.203 115.482  0.00  0.00     0.016 C 
ATOM      3  C   LIG d   1      -2.022  79.252 114.176  0.00  0.00     0.038 C 
ATOM      4  C   LIG d   1      -1.269  78.195 113.644  0.00  0.00     0.028 C 
ATOM      5  C   LIG d   1      -0.534  77.381 114.703  0.00  0.00    -0.047 C 
ATOM      6  C   LIG d   1      -1.539  76.961 115.800  0.00  0.00     0.091 C 
ENDROOT
BRANCH   1   7
ATOM      7  O   LIG d   1      -3.477  77.763 117.066  0.00  0.00    -0.368 OA
BRANCH   7   8
ATOM      8  C   LIG d   1      -4.699  77.866 116.294  0.00  0.00     0.119 C 
BRANCH   8   9
ATOM      9  C   LIG d   1      -5.793  78.415 117.230  0.00  0.00     0.028 C 
ATOM     10  C   LIG d   1      -5.633  79.921 117.500  0.00  0.00     0.006 C 
ENDBRANCH   8   9
BRANCH   8  11
ATOM     11  C   LIG d   1      -5.197  76.487 115.852  0.00  0.00     0.028 C 
ATOM     12  C   LIG d   1      -4.841  76.164 114.393  0.00  0.00     0.006 C 
ENDBRANCH   8  11
ENDBRANCH   7   8
ENDBRANCH   1   7
BRANCH   6  13
ATOM     13  N   LIG d   1      -0.885  76.232 116.919  0.00  0.00    -0.311 N 
ATOM     14  C   LIG d   1      -0.798  74.905 116.977  0.00  0.00     0.210 C 
ATOM     15  C   LIG d   1      -0.102  74.357 118.227  0.00  0.00     0.109 C 
ATOM     16  O   LIG d   1      -1.203  74.130 116.098  0.00  0.00    -0.276 OA
ATOM     17  H   LIG d   1      -0.502  76.785 117.660  0.00  0.00     0.149 HD
ENDBRANCH   6  13
BRANCH   5  18
ATOM     18  N   LIG d   1       0.097  76.233 114.026  0.00  0.00     0.381 N 
ATOM     19  H   LIG d   1      -0.085  76.278 113.043  0.00  0.00    -0.090 HD
ATOM     20  H   LIG d   1      -0.306  75.384 114.382  0.00  0.00    -0.090 HD
ATOM     21  H   LIG d   1       1.080  76.237 114.190  0.00  0.00    -0.090 HD
ENDBRANCH   5  18
BRANCH   3  22
ATOM     22  C   LIG d   1      -2.202  80.388 113.401  0.00  0.00     0.382 C 
ATOM     23  O   LIG d   1      -1.206  81.024 112.980  0.00  0.00    -0.241 OA
ATOM     24  O   LIG d   1      -3.348  80.809 113.154  0.00  0.00    -0.241 OA
ENDBRANCH   3  22
TORSDOF 7
ENDMDL
