MODEL 1
REMARK VINA RESULT:      -5.9      0.000      0.000
REMARK  7 active torsions:
REMARK  status: ('A' for Active; 'I' for Inactive)
REMARK    1  A    between atoms: C_2  and  C_3 
REMARK    2  A    between atoms: C_3  and  O_6 
REMARK    3  A    between atoms: C_3  and  C_4 
REMARK    4  A    between atoms: C_7  and  O_6 
REMARK    5  A    between atoms: C_9  and  C_10 
REMARK    6  A    between atoms: N_15  and  C_14 
REMARK    7  A    between atoms: N_20  and  C_19 
REMARK       I    between atoms: C_22  and  N_20 
ROOT
ATOM      1  C   LIG d   1      -7.548  74.499 118.554  0.00  0.00     0.161 C 
ATOM      2  C   LIG d   1      -8.801  75.135 118.574  0.00  0.00     0.016 C 
ATOM      3  C   LIG d   1      -9.067  76.351 117.905  0.00  0.00     0.038 C 
ATOM      4  C   LIG d   1      -8.133  76.942 117.041  0.00  0.00     0.028 C 
ATOM      5  C   LIG d   1      -6.687  76.604 117.389  0.00  0.00    -0.047 C 
ATOM      6  C   LIG d   1      -6.549  75.070 117.526  0.00  0.00     0.091 C 
ENDROOT
BRANCH   1   7
ATOM      7  O   LIG d   1      -7.722  73.083 118.351  0.00  0.00    -0.368 OA
BRANCH   7   8
ATOM      8  C   LIG d   1      -7.931  72.656 116.982  0.00  0.00     0.119 C 
BRANCH   8   9
ATOM      9  C   LIG d   1      -9.270  71.896 116.934  0.00  0.00     0.028 C 
ATOM     10  C   LIG d   1      -9.095  70.383 117.145  0.00  0.00     0.006 C 
ENDBRANCH   8   9
BRANCH   8  11
ATOM     11  C   LIG d   1      -6.871  71.639 116.547  0.00  0.00     0.028 C 
ATOM     12  C   LIG d   1      -6.338  71.903 115.130  0.00  0.00     0.006 C 
ENDBRANCH   8  11
ENDBRANCH   7   8
ENDBRANCH   1   7
BRANCH   6  13
ATOM     13  N   LIG d   1      -5.185  74.659 117.948  0.00  0.00    -0.311 N 
ATOM     14  C   LIG d   1      -4.205  74.382 117.090  0.00  0.00     0.210 C 
ATOM     15  C   LIG d   1      -2.881  73.958 117.735  0.00  0.00     0.109 C 
ATOM     16  O   LIG d   1      -4.296  74.478 115.856  0.00  0.00    -0.276 OA
ATOM     17  H   LIG d   1      -5.014  74.586 118.932  0.00  0.00     0.149 HD
ENDBRANCH   6  13
BRANCH   5  18
ATOM     18  N   LIG d   1      -5.830  77.169 116.329  0.00  0.00     0.381 N 
ATOM     19  H   LIG d   1      -6.129  78.098 116.111  0.00  0.00    -0.090 HD
ATOM     20  H   LIG d   1      -5.922  76.605 115.502  0.00  0.00    -0.090 HD
ATOM     21  H   LIG d   1      -4.880  77.180 116.629  0.00  0.00    -0.090 HD
ENDBRANCH   5  18
BRANCH   3  22
ATOM     22  C   LIG d   1     -10.265  77.012 118.130  0.00  0.00     0.382 C 
ATOM     23  O   LIG d   1     -10.261  78.219 118.472  0.00  0.00    -0.241 OA
ATOM     24  O   LIG d   1     -11.348  76.403 118.039  0.00  0.00    -0.241 OA
ENDBRANCH   3  22
TORSDOF 7
ENDMDL
MODEL 2
REMARK VINA RESULT:      -5.7      0.946      1.165
REMARK  7 active torsions:
REMARK  status: ('A' for Active; 'I' for Inactive)
REMARK    1  A    between atoms: C_2  and  C_3 
REMARK    2  A    between atoms: C_3  and  O_6 
REMARK    3  A    between atoms: C_3  and  C_4 
REMARK    4  A    between atoms: C_7  and  O_6 
REMARK    5  A    between atoms: C_9  and  C_10 
REMARK    6  A    between atoms: N_15  and  C_14 
REMARK    7  A    between atoms: N_20  and  C_19 
REMARK       I    between atoms: C_22  and  N_20 
ROOT
ATOM      1  C   LIG d   1      -7.414  74.928 118.788  0.00  0.00     0.161 C 
ATOM      2  C   LIG d   1      -8.700  75.483 118.680  0.00  0.00     0.016 C 
ATOM      3  C   LIG d   1      -8.947  76.784 118.185  0.00  0.00     0.038 C 
ATOM      4  C   LIG d   1      -7.930  77.568 117.619  0.00  0.00     0.028 C 
ATOM      5  C   LIG d   1      -6.544  77.250 118.168  0.00  0.00    -0.047 C 
ATOM      6  C   LIG d   1      -6.303  75.726 118.072  0.00  0.00     0.091 C 
ENDROOT
BRANCH   1   7
ATOM      7  O   LIG d   1      -7.430  73.564 118.324  0.00  0.00    -0.368 OA
BRANCH   7   8
ATOM      8  C   LIG d   1      -7.843  73.363 116.950  0.00  0.00     0.119 C 
BRANCH   8   9
ATOM      9  C   LIG d   1      -9.097  72.467 116.970  0.00  0.00     0.028 C 
ATOM     10  C   LIG d   1      -8.756  70.977 116.803  0.00  0.00     0.006 C 
ENDBRANCH   8   9
BRANCH   8  11
ATOM     11  C   LIG d   1      -6.794  72.574 116.161  0.00  0.00     0.028 C 
ATOM     12  C   LIG d   1      -5.922  73.471 115.268  0.00  0.00     0.006 C 
ENDBRANCH   8  11
ENDBRANCH   7   8
ENDBRANCH   1   7
BRANCH   6  13
ATOM     13  N   LIG d   1      -5.003  75.318 118.666  0.00  0.00    -0.311 N 
ATOM     14  C   LIG d   1      -3.866  75.264 117.974  0.00  0.00     0.210 C 
ATOM     15  C   LIG d   1      -2.645  74.799 118.773  0.00  0.00     0.109 C 
ATOM     16  O   LIG d   1      -3.747  75.587 116.782  0.00  0.00    -0.276 OA
ATOM     17  H   LIG d   1      -5.002  75.069 119.636  0.00  0.00     0.149 HD
ENDBRANCH   6  13
BRANCH   5  18
ATOM     18  N   LIG d   1      -5.566  78.039 117.395  0.00  0.00     0.381 N 
ATOM     19  H   LIG d   1      -4.883  78.431 118.013  0.00  0.00    -0.090 HD
ATOM     20  H   LIG d   1      -6.047  78.793 116.938  0.00  0.00    -0.090 HD
ATOM     21  H   LIG d   1      -5.120  77.460 116.718  0.00  0.00    -0.090 HD
ENDBRANCH   5  18
BRANCH   3  22
ATOM     22  C   LIG d   1     -10.217  77.330 118.291  0.00  0.00     0.382 C 
ATOM     23  O   LIG d   1     -11.227  76.603 118.126  0.00  0.00    -0.241 OA
ATOM     24  O   LIG d   1     -10.366  78.548 118.504  0.00  0.00    -0.241 OA
ENDBRANCH   3  22
TORSDOF 7
ENDMDL
MODEL 3
REMARK VINA RESULT:      -5.2      2.583      4.322
REMARK  7 active torsions:
REMARK  status: ('A' for Active; 'I' for Inactive)
REMARK    1  A    between atoms: C_2  and  C_3 
REMARK    2  A    between atoms: C_3  and  O_6 
REMARK    3  A    between atoms: C_3  and  C_4 
REMARK    4  A    between atoms: C_7  and  O_6 
REMARK    5  A    between atoms: C_9  and  C_10 
REMARK    6  A    between atoms: N_15  and  C_14 
REMARK    7  A    between atoms: N_20  and  C_19 
REMARK       I    between atoms: C_22  and  N_20 
ROOT
ATOM      1  C   LIG d   1      -7.015  76.478 116.938  0.00  0.00     0.161 C 
ATOM      2  C   LIG d   1      -6.569  77.805 117.060  0.00  0.00     0.016 C 
ATOM      3  C   LIG d   1      -7.279  78.802 117.767  0.00  0.00     0.038 C 
ATOM      4  C   LIG d   1      -8.416  78.502 118.532  0.00  0.00     0.028 C 
ATOM      5  C   LIG d   1      -9.182  77.284 118.027  0.00  0.00    -0.047 C 
ATOM      6  C   LIG d   1      -8.196  76.106 117.859  0.00  0.00     0.091 C 
ENDROOT
BRANCH   1   7
ATOM      7  O   LIG d   1      -5.914  75.571 117.144  0.00  0.00    -0.368 OA
BRANCH   7   8
ATOM      8  C   LIG d   1      -4.998  75.418 116.031  0.00  0.00     0.119 C 
BRANCH   8   9
ATOM      9  C   LIG d   1      -5.694  74.535 114.977  0.00  0.00     0.028 C 
ATOM     10  C   LIG d   1      -5.956  73.108 115.488  0.00  0.00     0.006 C 
ENDBRANCH   8   9
BRANCH   8  11
ATOM     11  C   LIG d   1      -3.743  74.643 116.445  0.00  0.00     0.028 C 
ATOM     12  C   LIG d   1      -2.553  74.890 115.505  0.00  0.00     0.006 C 
ENDBRANCH   8  11
ENDBRANCH   7   8
ENDBRANCH   1   7
BRANCH   6  13
ATOM     13  N   LIG d   1      -8.848  74.898 117.288  0.00  0.00    -0.311 N 
ATOM     14  C   LIG d   1      -8.626  73.664 117.736  0.00  0.00     0.210 C 
ATOM     15  C   LIG d   1      -9.385  72.560 116.993  0.00  0.00     0.109 C 
ATOM     16  O   LIG d   1      -7.897  73.381 118.699  0.00  0.00    -0.276 OA
ATOM     17  H   LIG d   1      -9.478  75.039 116.523  0.00  0.00     0.149 HD
ENDBRANCH   6  13
BRANCH   5  18
ATOM     18  N   LIG d   1     -10.260  77.003 118.993  0.00  0.00     0.381 N 
ATOM     19  H   LIG d   1     -10.791  76.212 118.688  0.00  0.00    -0.090 HD
ATOM     20  H   LIG d   1     -10.873  77.798 119.036  0.00  0.00    -0.090 HD
ATOM     21  H   LIG d   1      -9.873  76.824 119.894  0.00  0.00    -0.090 HD
ENDBRANCH   5  18
BRANCH   3  22
ATOM     22  C   LIG d   1      -6.874  80.126 117.680  0.00  0.00     0.382 C 
ATOM     23  O   LIG d   1      -7.689  81.008 117.316  0.00  0.00    -0.241 OA
ATOM     24  O   LIG d   1      -5.693  80.442 117.919  0.00  0.00    -0.241 OA
ENDBRANCH   3  22
TORSDOF 7
ENDMDL
MODEL 4
REMARK VINA RESULT:      -5.2      2.308      4.718
REMARK  7 active torsions:
REMARK  status: ('A' for Active; 'I' for Inactive)
REMARK    1  A    between atoms: C_2  and  C_3 
REMARK    2  A    between atoms: C_3  and  O_6 
REMARK    3  A    between atoms: C_3  and  C_4 
REMARK    4  A    between atoms: C_7  and  O_6 
REMARK    5  A    between atoms: C_9  and  C_10 
REMARK    6  A    between atoms: N_15  and  C_14 
REMARK    7  A    between atoms: N_20  and  C_19 
REMARK       I    between atoms: C_22  and  N_20 
ROOT
ATOM      1  C   LIG d   1      -6.425  74.867 117.454  0.00  0.00     0.161 C 
ATOM      2  C   LIG d   1      -6.798  73.574 117.051  0.00  0.00     0.016 C 
ATOM      3  C   LIG d   1      -8.142  73.146 116.955  0.00  0.00     0.038 C 
ATOM      4  C   LIG d   1      -9.216  74.035 117.109  0.00  0.00     0.028 C 
ATOM      5  C   LIG d   1      -8.894  75.223 118.009  0.00  0.00    -0.047 C 
ATOM      6  C   LIG d   1      -7.585  75.883 117.519  0.00  0.00     0.091 C 
ENDROOT
BRANCH   1   7
ATOM      7  O   LIG d   1      -5.374  75.361 116.600  0.00  0.00    -0.368 OA
BRANCH   7   8
ATOM      8  C   LIG d   1      -4.527  74.358 115.987  0.00  0.00     0.119 C 
BRANCH   8   9
ATOM      9  C   LIG d   1      -3.098  74.567 116.525  0.00  0.00     0.028 C 
ATOM     10  C   LIG d   1      -2.741  73.574 117.643  0.00  0.00     0.006 C 
ENDBRANCH   8   9
BRANCH   8  11
ATOM     11  C   LIG d   1      -4.425  74.565 114.473  0.00  0.00     0.028 C 
ATOM     12  C   LIG d   1      -5.400  75.632 113.950  0.00  0.00     0.006 C 
ENDBRANCH   8  11
ENDBRANCH   7   8
ENDBRANCH   1   7
BRANCH   6  13
ATOM     13  N   LIG d   1      -7.152  77.003 118.395  0.00  0.00    -0.311 N 
ATOM     14  C   LIG d   1      -6.685  78.160 117.929  0.00  0.00     0.210 C 
ATOM     15  C   LIG d   1      -6.276  79.172 119.004  0.00  0.00     0.109 C 
ATOM     16  O   LIG d   1      -6.600  78.456 116.728  0.00  0.00    -0.276 OA
ATOM     17  H   LIG d   1      -7.217  76.860 119.384  0.00  0.00     0.149 HD
ENDBRANCH   6  13
BRANCH   5  18
ATOM     18  N   LIG d   1     -10.051  76.137 117.972  0.00  0.00     0.381 N 
ATOM     19  H   LIG d   1      -9.751  77.053 117.706  0.00  0.00    -0.090 HD
ATOM     20  H   LIG d   1     -10.452  76.191 118.892  0.00  0.00    -0.090 HD
ATOM     21  H   LIG d   1     -10.730  75.801 117.325  0.00  0.00    -0.090 HD
ENDBRANCH   5  18
BRANCH   3  22
ATOM     22  C   LIG d   1      -8.422  71.805 116.739  0.00  0.00     0.382 C 
ATOM     23  O   LIG d   1      -9.312  71.234 117.414  0.00  0.00    -0.241 OA
ATOM     24  O   LIG d   1      -7.766  71.148 115.909  0.00  0.00    -0.241 OA
ENDBRANCH   3  22
TORSDOF 7
ENDMDL
MODEL 5
REMARK VINA RESULT:      -5.1     17.167     18.937
REMARK  7 active torsions:
REMARK  status: ('A' for Active; 'I' for Inactive)
REMARK    1  A    between atoms: C_2  and  C_3 
REMARK    2  A    between atoms: C_3  and  O_6 
REMARK    3  A    between atoms: C_3  and  C_4 
REMARK    4  A    between atoms: C_7  and  O_6 
REMARK    5  A    between atoms: C_9  and  C_10 
REMARK    6  A    between atoms: N_15  and  C_14 
REMARK    7  A    between atoms: N_20  and  C_19 
REMARK       I    between atoms: C_22  and  N_20 
ROOT
ATOM      1  C   LIG d   1       3.083  89.740 115.723  0.00  0.00     0.161 C 
ATOM      2  C   LIG d   1       1.924  90.499 115.959  0.00  0.00     0.016 C 
ATOM      3  C   LIG d   1       1.750  91.320 117.097  0.00  0.00     0.038 C 
ATOM      4  C   LIG d   1       2.792  91.556 118.007  0.00  0.00     0.028 C 
ATOM      5  C   LIG d   1       3.804  90.418 118.078  0.00  0.00    -0.047 C 
ATOM      6  C   LIG d   1       4.273  90.072 116.647  0.00  0.00     0.091 C 
ENDROOT
BRANCH   1   7
ATOM      7  O   LIG d   1       3.472  89.862 114.340  0.00  0.00    -0.368 OA
BRANCH   7   8
ATOM      8  C   LIG d   1       3.315  88.673 113.527  0.00  0.00     0.119 C 
BRANCH   8   9
ATOM      9  C   LIG d   1       2.733  87.568 114.429  0.00  0.00     0.028 C 
ATOM     10  C   LIG d   1       3.616  86.309 114.459  0.00  0.00     0.006 C 
ENDBRANCH   8   9
BRANCH   8  11
ATOM     11  C   LIG d   1       4.671  88.139 113.054  0.00  0.00     0.028 C 
ATOM     12  C   LIG d   1       5.787  89.191 113.135  0.00  0.00     0.006 C 
ENDBRANCH   8  11
ENDBRANCH   7   8
ENDBRANCH   1   7
BRANCH   6  13
ATOM     13  N   LIG d   1       5.201  88.912 116.619  0.00  0.00    -0.311 N 
ATOM     14  C   LIG d   1       6.527  89.033 116.662  0.00  0.00     0.210 C 
ATOM     15  C   LIG d   1       7.299  87.711 116.602  0.00  0.00     0.109 C 
ATOM     16  O   LIG d   1       7.136  90.107 116.778  0.00  0.00    -0.276 OA
ATOM     17  H   LIG d   1       4.791  88.001 116.557  0.00  0.00     0.149 HD
ENDBRANCH   6  13
BRANCH   5  18
ATOM     18  N   LIG d   1       4.905  90.854 118.958  0.00  0.00     0.381 N 
ATOM     19  H   LIG d   1       5.775  90.789 118.469  0.00  0.00    -0.090 HD
ATOM     20  H   LIG d   1       4.945  90.245 119.756  0.00  0.00    -0.090 HD
ATOM     21  H   LIG d   1       4.752  91.793 119.255  0.00  0.00    -0.090 HD
ENDBRANCH   5  18
BRANCH   3  22
ATOM     22  C   LIG d   1       0.510  91.882 117.356  0.00  0.00     0.382 C 
ATOM     23  O   LIG d   1      -0.198  91.436 118.291  0.00  0.00    -0.241 OA
ATOM     24  O   LIG d   1       0.071  92.801 116.638  0.00  0.00    -0.241 OA
ENDBRANCH   3  22
TORSDOF 7
ENDMDL
MODEL 6
REMARK VINA RESULT:      -4.7      2.251      4.729
REMARK  7 active torsions:
REMARK  status: ('A' for Active; 'I' for Inactive)
REMARK    1  A    between atoms: C_2  and  C_3 
REMARK    2  A    between atoms: C_3  and  O_6 
REMARK    3  A    between atoms: C_3  and  C_4 
REMARK    4  A    between atoms: C_7  and  O_6 
REMARK    5  A    between atoms: C_9  and  C_10 
REMARK    6  A    between atoms: N_15  and  C_14 
REMARK    7  A    between atoms: N_20  and  C_19 
REMARK       I    between atoms: C_22  and  N_20 
ROOT
ATOM      1  C   LIG d   1      -6.558  76.170 116.858  0.00  0.00     0.161 C 
ATOM      2  C   LIG d   1      -7.935  76.276 117.110  0.00  0.00     0.016 C 
ATOM      3  C   LIG d   1      -8.780  75.159 117.301  0.00  0.00     0.038 C 
ATOM      4  C   LIG d   1      -8.272  73.855 117.403  0.00  0.00     0.028 C 
ATOM      5  C   LIG d   1      -6.960  73.655 116.653  0.00  0.00    -0.047 C 
ATOM      6  C   LIG d   1      -5.967  74.762 117.076  0.00  0.00     0.091 C 
ENDROOT
BRANCH   1   7
ATOM      7  O   LIG d   1      -5.841  77.142 117.645  0.00  0.00    -0.368 OA
BRANCH   7   8
ATOM      8  C   LIG d   1      -5.403  78.332 116.945  0.00  0.00     0.119 C 
BRANCH   8   9
ATOM      9  C   LIG d   1      -3.867  78.272 116.844  0.00  0.00     0.028 C 
ATOM     10  C   LIG d   1      -3.190  78.211 118.224  0.00  0.00     0.006 C 
ENDBRANCH   8   9
BRANCH   8  11
ATOM     11  C   LIG d   1      -5.707  79.597 117.753  0.00  0.00     0.028 C 
ATOM     12  C   LIG d   1      -7.213  79.880 117.874  0.00  0.00     0.006 C 
ENDBRANCH   8  11
ENDBRANCH   7   8
ENDBRANCH   1   7
BRANCH   6  13
ATOM     13  N   LIG d   1      -4.685  74.691 116.327  0.00  0.00    -0.311 N 
ATOM     14  C   LIG d   1      -3.493  74.632 116.917  0.00  0.00     0.210 C 
ATOM     15  C   LIG d   1      -2.299  74.584 115.959  0.00  0.00     0.109 C 
ATOM     16  O   LIG d   1      -3.312  74.582 118.143  0.00  0.00    -0.276 OA
ATOM     17  H   LIG d   1      -4.741  74.695 115.327  0.00  0.00     0.149 HD
ENDBRANCH   6  13
BRANCH   5  18
ATOM     18  N   LIG d   1      -6.475  72.296 116.957  0.00  0.00     0.381 N 
ATOM     19  H   LIG d   1      -5.726  72.343 117.619  0.00  0.00    -0.090 HD
ATOM     20  H   LIG d   1      -6.123  71.880 116.112  0.00  0.00    -0.090 HD
ATOM     21  H   LIG d   1      -7.218  71.743 117.324  0.00  0.00    -0.090 HD
ENDBRANCH   5  18
BRANCH   3  22
ATOM     22  C   LIG d   1     -10.154  75.336 117.352  0.00  0.00     0.382 C 
ATOM     23  O   LIG d   1     -10.631  76.430 117.740  0.00  0.00    -0.241 OA
ATOM     24  O   LIG d   1     -10.923  74.402 117.057  0.00  0.00    -0.241 OA
ENDBRANCH   3  22
TORSDOF 7
ENDMDL
MODEL 7
REMARK VINA RESULT:      -4.6      2.288      5.005
REMARK  7 active torsions:
REMARK  status: ('A' for Active; 'I' for Inactive)
REMARK    1  A    between atoms: C_2  and  C_3 
REMARK    2  A    between atoms: C_3  and  O_6 
REMARK    3  A    between atoms: C_3  and  C_4 
REMARK    4  A    between atoms: C_7  and  O_6 
REMARK    5  A    between atoms: C_9  and  C_10 
REMARK    6  A    between atoms: N_15  and  C_14 
REMARK    7  A    between atoms: N_20  and  C_19 
REMARK       I    between atoms: C_22  and  N_20 
ROOT
ATOM      1  C   LIG d   1      -6.002  74.728 117.028  0.00  0.00     0.161 C 
ATOM      2  C   LIG d   1      -6.555  73.498 116.635  0.00  0.00     0.016 C 
ATOM      3  C   LIG d   1      -7.909  73.150 116.845  0.00  0.00     0.038 C 
ATOM      4  C   LIG d   1      -8.845  74.075 117.331  0.00  0.00     0.028 C 
ATOM      5  C   LIG d   1      -8.227  75.158 118.209  0.00  0.00    -0.047 C 
ATOM      6  C   LIG d   1      -7.033  75.792 117.459  0.00  0.00     0.091 C 
ENDROOT
BRANCH   1   7
ATOM      7  O   LIG d   1      -5.159  75.243 115.979  0.00  0.00    -0.368 OA
BRANCH   7   8
ATOM      8  C   LIG d   1      -3.772  75.473 116.330  0.00  0.00     0.119 C 
BRANCH   8   9
ATOM      9  C   LIG d   1      -2.929  75.242 115.061  0.00  0.00     0.028 C 
ATOM     10  C   LIG d   1      -2.584  76.555 114.339  0.00  0.00     0.006 C 
ENDBRANCH   8   9
BRANCH   8  11
ATOM     11  C   LIG d   1      -3.274  74.437 117.342  0.00  0.00     0.028 C 
ATOM     12  C   LIG d   1      -1.830  73.986 117.072  0.00  0.00     0.006 C 
ENDBRANCH   8  11
ENDBRANCH   7   8
ENDBRANCH   1   7
BRANCH   6  13
ATOM     13  N   LIG d   1      -6.319  76.803 118.282  0.00  0.00    -0.311 N 
ATOM     14  C   LIG d   1      -6.034  78.030 117.850  0.00  0.00     0.210 C 
ATOM     15  C   LIG d   1      -5.274  78.907 118.850  0.00  0.00     0.109 C 
ATOM     16  O   LIG d   1      -6.366  78.487 116.746  0.00  0.00    -0.276 OA
ATOM     17  H   LIG d   1      -6.040  76.527 119.203  0.00  0.00     0.149 HD
ENDBRANCH   6  13
BRANCH   5  18
ATOM     18  N   LIG d   1      -9.288  76.130 118.532  0.00  0.00     0.381 N 
ATOM     19  H   LIG d   1      -9.877  75.762 119.253  0.00  0.00    -0.090 HD
ATOM     20  H   LIG d   1      -9.850  76.282 117.713  0.00  0.00    -0.090 HD
ATOM     21  H   LIG d   1      -8.884  76.990 118.832  0.00  0.00    -0.090 HD
ENDBRANCH   5  18
BRANCH   3  22
ATOM     22  C   LIG d   1      -8.331  71.851 116.605  0.00  0.00     0.382 C 
ATOM     23  O   LIG d   1      -9.374  71.420 117.152  0.00  0.00    -0.241 OA
ATOM     24  O   LIG d   1      -7.656  71.091 115.885  0.00  0.00    -0.241 OA
ENDBRANCH   3  22
TORSDOF 7
ENDMDL
MODEL 8
REMARK VINA RESULT:      -4.5      2.238      5.104
REMARK  7 active torsions:
REMARK  status: ('A' for Active; 'I' for Inactive)
REMARK    1  A    between atoms: C_2  and  C_3 
REMARK    2  A    between atoms: C_3  and  O_6 
REMARK    3  A    between atoms: C_3  and  C_4 
REMARK    4  A    between atoms: C_7  and  O_6 
REMARK    5  A    between atoms: C_9  and  C_10 
REMARK    6  A    between atoms: N_15  and  C_14 
REMARK    7  A    between atoms: N_20  and  C_19 
REMARK       I    between atoms: C_22  and  N_20 
ROOT
ATOM      1  C   LIG d   1      -6.993  75.825 116.952  0.00  0.00     0.161 C 
ATOM      2  C   LIG d   1      -7.621  74.571 116.880  0.00  0.00     0.016 C 
ATOM      3  C   LIG d   1      -6.930  73.368 116.606  0.00  0.00     0.038 C 
ATOM      4  C   LIG d   1      -5.530  73.318 116.533  0.00  0.00     0.028 C 
ATOM      5  C   LIG d   1      -4.898  74.636 116.098  0.00  0.00    -0.047 C 
ATOM      6  C   LIG d   1      -5.451  75.775 116.985  0.00  0.00     0.091 C 
ENDROOT
BRANCH   1   7
ATOM      7  O   LIG d   1      -7.495  76.559 118.086  0.00  0.00    -0.368 OA
BRANCH   7   8
ATOM      8  C   LIG d   1      -8.337  77.699 117.785  0.00  0.00     0.119 C 
BRANCH   8   9
ATOM      9  C   LIG d   1      -7.632  78.954 118.334  0.00  0.00     0.028 C 
ATOM     10  C   LIG d   1      -6.644  78.624 119.465  0.00  0.00     0.006 C 
ENDBRANCH   8   9
BRANCH   8  11
ATOM     11  C   LIG d   1      -9.670  77.621 118.536  0.00  0.00     0.028 C 
ATOM     12  C   LIG d   1     -10.577  76.490 118.024  0.00  0.00     0.006 C 
ENDBRANCH   8  11
ENDBRANCH   7   8
ENDBRANCH   1   7
BRANCH   6  13
ATOM     13  N   LIG d   1      -4.948  77.110 116.571  0.00  0.00    -0.311 N 
ATOM     14  C   LIG d   1      -3.892  77.701 117.128  0.00  0.00     0.210 C 
ATOM     15  C   LIG d   1      -3.555  79.086 116.566  0.00  0.00     0.109 C 
ATOM     16  O   LIG d   1      -3.183  77.196 118.011  0.00  0.00    -0.276 OA
ATOM     17  H   LIG d   1      -5.445  77.578 115.839  0.00  0.00     0.149 HD
ENDBRANCH   6  13
BRANCH   5  18
ATOM     18  N   LIG d   1      -3.434  74.483 116.198  0.00  0.00     0.381 N 
ATOM     19  H   LIG d   1      -3.132  73.731 115.612  0.00  0.00    -0.090 HD
ATOM     20  H   LIG d   1      -3.195  74.259 117.148  0.00  0.00    -0.090 HD
ATOM     21  H   LIG d   1      -2.984  75.329 115.924  0.00  0.00    -0.090 HD
ENDBRANCH   5  18
BRANCH   3  22
ATOM     22  C   LIG d   1      -7.644  72.205 116.362  0.00  0.00     0.382 C 
ATOM     23  O   LIG d   1      -8.808  72.078 116.813  0.00  0.00    -0.241 OA
ATOM     24  O   LIG d   1      -7.124  71.264 115.733  0.00  0.00    -0.241 OA
ENDBRANCH   3  22
TORSDOF 7
ENDMDL
MODEL 9
REMARK VINA RESULT:      -4.4     15.910     18.232
REMARK  7 active torsions:
REMARK  status: ('A' for Active; 'I' for Inactive)
REMARK    1  A    between atoms: C_2  and  C_3 
REMARK    2  A    between atoms: C_3  and  O_6 
REMARK    3  A    between atoms: C_3  and  C_4 
REMARK    4  A    between atoms: C_7  and  O_6 
REMARK    5  A    between atoms: C_9  and  C_10 
REMARK    6  A    between atoms: N_15  and  C_14 
REMARK    7  A    between atoms: N_20  and  C_19 
REMARK       I    between atoms: C_22  and  N_20 
ROOT
ATOM      1  C   LIG d   1       1.864  89.432 115.814  0.00  0.00     0.161 C 
ATOM      2  C   LIG d   1       2.855  89.167 114.853  0.00  0.00     0.016 C 
ATOM      3  C   LIG d   1       4.220  89.488 115.034  0.00  0.00     0.038 C 
ATOM      4  C   LIG d   1       4.714  89.962 116.259  0.00  0.00     0.028 C 
ATOM      5  C   LIG d   1       3.674  90.716 117.081  0.00  0.00    -0.047 C 
ATOM      6  C   LIG d   1       2.401  89.846 117.200  0.00  0.00     0.091 C 
ENDROOT
BRANCH   1   7
ATOM      7  O   LIG d   1       0.986  88.295 115.936  0.00  0.00    -0.368 OA
BRANCH   7   8
ATOM      8  C   LIG d   1       1.618  86.993 115.881  0.00  0.00     0.119 C 
BRANCH   8   9
ATOM      9  C   LIG d   1       0.689  86.061 115.079  0.00  0.00     0.028 C 
ATOM     10  C   LIG d   1       1.249  85.730 113.686  0.00  0.00     0.006 C 
ENDBRANCH   8   9
BRANCH   8  11
ATOM     11  C   LIG d   1       1.721  86.364 117.273  0.00  0.00     0.028 C 
ATOM     12  C   LIG d   1       0.853  85.104 117.423  0.00  0.00     0.006 C 
ENDBRANCH   8  11
ENDBRANCH   7   8
ENDBRANCH   1   7
BRANCH   6  13
ATOM     13  N   LIG d   1       1.303  90.544 117.917  0.00  0.00    -0.311 N 
ATOM     14  C   LIG d   1       0.845  91.744 117.568  0.00  0.00     0.210 C 
ATOM     15  C   LIG d   1      -0.279  92.292 118.454  0.00  0.00     0.109 C 
ATOM     16  O   LIG d   1       1.240  92.394 116.588  0.00  0.00    -0.276 OA
ATOM     17  H   LIG d   1       0.903  90.074 118.706  0.00  0.00     0.149 HD
ENDBRANCH   6  13
BRANCH   5  18
ATOM     18  N   LIG d   1       4.282  91.032 118.387  0.00  0.00     0.381 N 
ATOM     19  H   LIG d   1       4.621  90.193 118.815  0.00  0.00    -0.090 HD
ATOM     20  H   LIG d   1       3.579  91.429 118.985  0.00  0.00    -0.090 HD
ATOM     21  H   LIG d   1       5.030  91.678 118.267  0.00  0.00    -0.090 HD
ENDBRANCH   5  18
BRANCH   3  22
ATOM     22  C   LIG d   1       5.100  89.373 113.969  0.00  0.00     0.382 C 
ATOM     23  O   LIG d   1       4.658  89.217 112.805  0.00  0.00    -0.241 OA
ATOM     24  O   LIG d   1       6.330  89.380 114.163  0.00  0.00    -0.241 OA
ENDBRANCH   3  22
TORSDOF 7
ENDMDL
