MODEL 1
REMARK VINA RESULT:      -5.1      0.000      0.000
REMARK  7 active torsions:
REMARK  status: ('A' for Active; 'I' for Inactive)
REMARK    1  A    between atoms: C_2  and  C_3 
REMARK    2  A    between atoms: C_3  and  O_6 
REMARK    3  A    between atoms: C_3  and  C_4 
REMARK    4  A    between atoms: C_7  and  O_6 
REMARK    5  A    between atoms: C_9  and  C_10 
REMARK    6  A    between atoms: N_15  and  C_14 
REMARK    7  A    between atoms: N_20  and  C_19 
REMARK       I    between atoms: C_22  and  N_20 
ROOT
ATOM      1  C   LIG d   1      -6.073  76.677 116.719  0.00  0.00     0.161 C 
ATOM      2  C   LIG d   1      -7.428  76.356 116.901  0.00  0.00     0.016 C 
ATOM      3  C   LIG d   1      -8.320  77.146 117.662  0.00  0.00     0.038 C 
ATOM      4  C   LIG d   1      -7.949  78.400 118.171  0.00  0.00     0.028 C 
ATOM      5  C   LIG d   1      -6.454  78.526 118.440  0.00  0.00    -0.047 C 
ATOM      6  C   LIG d   1      -5.678  78.098 117.174  0.00  0.00     0.091 C 
ENDROOT
BRANCH   1   7
ATOM      7  O   LIG d   1      -5.703  76.472 115.341  0.00  0.00    -0.368 OA
BRANCH   7   8
ATOM      8  C   LIG d   1      -4.815  75.357 115.079  0.00  0.00     0.119 C 
BRANCH   8   9
ATOM      9  C   LIG d   1      -5.648  74.252 114.400  0.00  0.00     0.028 C 
ATOM     10  C   LIG d   1      -6.143  73.193 115.400  0.00  0.00     0.006 C 
ENDBRANCH   8   9
BRANCH   8  11
ATOM     11  C   LIG d   1      -4.301  74.736 116.381  0.00  0.00     0.028 C 
ATOM     12  C   LIG d   1      -2.768  74.750 116.483  0.00  0.00     0.006 C 
ENDBRANCH   8  11
ENDBRANCH   7   8
ENDBRANCH   1   7
BRANCH   6  13
ATOM     13  N   LIG d   1      -4.206  78.111 117.379  0.00  0.00    -0.311 N 
ATOM     14  C   LIG d   1      -3.354  78.695 116.538  0.00  0.00     0.210 C 
ATOM     15  C   LIG d   1      -1.877  78.575 116.926  0.00  0.00     0.109 C 
ATOM     16  O   LIG d   1      -3.684  79.328 115.523  0.00  0.00    -0.276 OA
ATOM     17  H   LIG d   1      -3.855  77.648 118.194  0.00  0.00     0.149 HD
ENDBRANCH   6  13
BRANCH   5  18
ATOM     18  N   LIG d   1      -6.189  79.923 118.836  0.00  0.00     0.381 N 
ATOM     19  H   LIG d   1      -5.277  79.993 119.241  0.00  0.00    -0.090 HD
ATOM     20  H   LIG d   1      -6.863  80.198 119.528  0.00  0.00    -0.090 HD
ATOM     21  H   LIG d   1      -6.254  80.520 118.041  0.00  0.00    -0.090 HD
ENDBRANCH   5  18
BRANCH   3  22
ATOM     22  C   LIG d   1      -9.587  76.665 117.954  0.00  0.00     0.382 C 
ATOM     23  O   LIG d   1      -9.926  75.519 117.570  0.00  0.00    -0.241 OA
ATOM     24  O   LIG d   1     -10.410  77.378 118.559  0.00  0.00    -0.241 OA
ENDBRANCH   3  22
TORSDOF 7
ENDMDL
MODEL 2
REMARK VINA RESULT:      -4.9      1.972      2.983
REMARK  7 active torsions:
REMARK  status: ('A' for Active; 'I' for Inactive)
REMARK    1  A    between atoms: C_2  and  C_3 
REMARK    2  A    between atoms: C_3  and  O_6 
REMARK    3  A    between atoms: C_3  and  C_4 
REMARK    4  A    between atoms: C_7  and  O_6 
REMARK    5  A    between atoms: C_9  and  C_10 
REMARK    6  A    between atoms: N_15  and  C_14 
REMARK    7  A    between atoms: N_20  and  C_19 
REMARK       I    between atoms: C_22  and  N_20 
ROOT
ATOM      1  C   LIG d   1      -6.638  76.996 117.408  0.00  0.00     0.161 C 
ATOM      2  C   LIG d   1      -7.313  75.764 117.407  0.00  0.00     0.016 C 
ATOM      3  C   LIG d   1      -8.668  75.620 117.785  0.00  0.00     0.038 C 
ATOM      4  C   LIG d   1      -9.487  76.728 118.045  0.00  0.00     0.028 C 
ATOM      5  C   LIG d   1      -8.718  77.945 118.547  0.00  0.00    -0.047 C 
ATOM      6  C   LIG d   1      -7.546  78.231 117.582  0.00  0.00     0.091 C 
ENDROOT
BRANCH   1   7
ATOM      7  O   LIG d   1      -5.847  77.120 116.209  0.00  0.00    -0.368 OA
BRANCH   7   8
ATOM      8  C   LIG d   1      -5.277  75.893 115.691  0.00  0.00     0.119 C 
BRANCH   8   9
ATOM      9  C   LIG d   1      -3.763  76.122 115.521  0.00  0.00     0.028 C 
ATOM     10  C   LIG d   1      -2.932  75.351 116.560  0.00  0.00     0.006 C 
ENDBRANCH   8   9
BRANCH   8  11
ATOM     11  C   LIG d   1      -5.802  75.584 114.286  0.00  0.00     0.028 C 
ATOM     12  C   LIG d   1      -5.212  74.291 113.701  0.00  0.00     0.006 C 
ENDBRANCH   8  11
ENDBRANCH   7   8
ENDBRANCH   1   7
BRANCH   6  13
ATOM     13  N   LIG d   1      -6.691  79.356 118.045  0.00  0.00    -0.311 N 
ATOM     14  C   LIG d   1      -6.890  80.623 117.688  0.00  0.00     0.210 C 
ATOM     15  C   LIG d   1      -5.882  81.623 118.262  0.00  0.00     0.109 C 
ATOM     16  O   LIG d   1      -7.825  81.019 116.975  0.00  0.00    -0.276 OA
ATOM     17  H   LIG d   1      -5.928  79.129 118.652  0.00  0.00     0.149 HD
ENDBRANCH   6  13
BRANCH   5  18
ATOM     18  N   LIG d   1      -9.673  79.066 118.646  0.00  0.00     0.381 N 
ATOM     19  H   LIG d   1      -9.946  79.359 117.729  0.00  0.00    -0.090 HD
ATOM     20  H   LIG d   1      -9.221  79.838 119.103  0.00  0.00    -0.090 HD
ATOM     21  H   LIG d   1     -10.475  78.786 119.166  0.00  0.00    -0.090 HD
ENDBRANCH   5  18
BRANCH   3  22
ATOM     22  C   LIG d   1      -9.205  74.351 117.943  0.00  0.00     0.382 C 
ATOM     23  O   LIG d   1      -8.469  73.397 118.293  0.00  0.00    -0.241 OA
ATOM     24  O   LIG d   1     -10.408  74.140 117.698  0.00  0.00    -0.241 OA
ENDBRANCH   3  22
TORSDOF 7
ENDMDL
MODEL 3
REMARK VINA RESULT:      -4.8      2.472      4.415
REMARK  7 active torsions:
REMARK  status: ('A' for Active; 'I' for Inactive)
REMARK    1  A    between atoms: C_2  and  C_3 
REMARK    2  A    between atoms: C_3  and  O_6 
REMARK    3  A    between atoms: C_3  and  C_4 
REMARK    4  A    between atoms: C_7  and  O_6 
REMARK    5  A    between atoms: C_9  and  C_10 
REMARK    6  A    between atoms: N_15  and  C_14 
REMARK    7  A    between atoms: N_20  and  C_19 
REMARK       I    between atoms: C_22  and  N_20 
ROOT
ATOM      1  C   LIG d   1      -6.753  76.844 117.075  0.00  0.00     0.161 C 
ATOM      2  C   LIG d   1      -6.277  78.164 117.136  0.00  0.00     0.016 C 
ATOM      3  C   LIG d   1      -6.953  79.205 117.812  0.00  0.00     0.038 C 
ATOM      4  C   LIG d   1      -8.083  78.961 118.607  0.00  0.00     0.028 C 
ATOM      5  C   LIG d   1      -8.884  77.741 118.164  0.00  0.00    -0.047 C 
ATOM      6  C   LIG d   1      -7.926  76.535 118.029  0.00  0.00     0.091 C 
ENDROOT
BRANCH   1   7
ATOM      7  O   LIG d   1      -5.668  75.922 117.300  0.00  0.00    -0.368 OA
BRANCH   7   8
ATOM      8  C   LIG d   1      -4.917  75.523 116.127  0.00  0.00     0.119 C 
BRANCH   8   9
ATOM      9  C   LIG d   1      -5.877  74.747 115.205  0.00  0.00     0.028 C 
ATOM     10  C   LIG d   1      -6.142  73.316 115.704  0.00  0.00     0.006 C 
ENDBRANCH   8   9
BRANCH   8  11
ATOM     11  C   LIG d   1      -3.808  74.529 116.487  0.00  0.00     0.028 C 
ATOM     12  C   LIG d   1      -2.525  74.747 115.670  0.00  0.00     0.006 C 
ENDBRANCH   8  11
ENDBRANCH   7   8
ENDBRANCH   1   7
BRANCH   6  13
ATOM     13  N   LIG d   1      -8.613  75.320 117.518  0.00  0.00    -0.311 N 
ATOM     14  C   LIG d   1      -8.792  74.219 118.245  0.00  0.00     0.210 C 
ATOM     15  C   LIG d   1      -9.507  73.074 117.520  0.00  0.00     0.109 C 
ATOM     16  O   LIG d   1      -8.455  74.092 119.432  0.00  0.00    -0.276 OA
ATOM     17  H   LIG d   1      -8.947  75.347 116.574  0.00  0.00     0.149 HD
ENDBRANCH   6  13
BRANCH   5  18
ATOM     18  N   LIG d   1      -9.951  77.523 119.158  0.00  0.00     0.381 N 
ATOM     19  H   LIG d   1     -10.821  77.360 118.691  0.00  0.00    -0.090 HD
ATOM     20  H   LIG d   1     -10.046  78.351 119.720  0.00  0.00    -0.090 HD
ATOM     21  H   LIG d   1      -9.725  76.744 119.736  0.00  0.00    -0.090 HD
ENDBRANCH   5  18
BRANCH   3  22
ATOM     22  C   LIG d   1      -6.522  80.514 117.665  0.00  0.00     0.382 C 
ATOM     23  O   LIG d   1      -5.448  80.884 118.197  0.00  0.00    -0.241 OA
ATOM     24  O   LIG d   1      -7.215  81.341 117.043  0.00  0.00    -0.241 OA
ENDBRANCH   3  22
TORSDOF 7
ENDMDL
MODEL 4
REMARK VINA RESULT:      -4.6     14.214     17.321
REMARK  7 active torsions:
REMARK  status: ('A' for Active; 'I' for Inactive)
REMARK    1  A    between atoms: C_2  and  C_3 
REMARK    2  A    between atoms: C_3  and  O_6 
REMARK    3  A    between atoms: C_3  and  C_4 
REMARK    4  A    between atoms: C_7  and  O_6 
REMARK    5  A    between atoms: C_9  and  C_10 
REMARK    6  A    between atoms: N_15  and  C_14 
REMARK    7  A    between atoms: N_20  and  C_19 
REMARK       I    between atoms: C_22  and  N_20 
ROOT
ATOM      1  C   LIG d   1      10.888  75.898 115.512  0.00  0.00     0.161 C 
ATOM      2  C   LIG d   1       9.498  75.876 115.710  0.00  0.00     0.016 C 
ATOM      3  C   LIG d   1       8.657  76.982 115.449  0.00  0.00     0.038 C 
ATOM      4  C   LIG d   1       9.134  78.145 114.826  0.00  0.00     0.028 C 
ATOM      5  C   LIG d   1      10.617  78.400 115.073  0.00  0.00    -0.047 C 
ATOM      6  C   LIG d   1      11.411  77.120 114.728  0.00  0.00     0.091 C 
ENDROOT
BRANCH   1   7
ATOM      7  O   LIG d   1      11.310  74.676 114.875  0.00  0.00    -0.368 OA
BRANCH   7   8
ATOM      8  C   LIG d   1      11.734  73.609 115.760  0.00  0.00     0.119 C 
BRANCH   8   9
ATOM      9  C   LIG d   1      13.014  74.081 116.475  0.00  0.00     0.028 C 
ATOM     10  C   LIG d   1      14.265  73.944 115.590  0.00  0.00     0.006 C 
ENDBRANCH   8   9
BRANCH   8  11
ATOM     11  C   LIG d   1      12.145  72.362 114.972  0.00  0.00     0.028 C 
ATOM     12  C   LIG d   1      11.430  71.090 115.454  0.00  0.00     0.006 C 
ENDBRANCH   8  11
ENDBRANCH   7   8
ENDBRANCH   1   7
BRANCH   6  13
ATOM     13  N   LIG d   1      12.861  77.256 115.021  0.00  0.00    -0.311 N 
ATOM     14  C   LIG d   1      13.758  77.651 114.119  0.00  0.00     0.210 C 
ATOM     15  C   LIG d   1      15.203  77.704 114.624  0.00  0.00     0.109 C 
ATOM     16  O   LIG d   1      13.489  77.994 112.958  0.00  0.00    -0.276 OA
ATOM     17  H   LIG d   1      13.162  77.028 115.948  0.00  0.00     0.149 HD
ENDBRANCH   6  13
BRANCH   5  18
ATOM     18  N   LIG d   1      11.011  79.563 114.255  0.00  0.00     0.381 N 
ATOM     19  H   LIG d   1      10.259  80.222 114.219  0.00  0.00    -0.090 HD
ATOM     20  H   LIG d   1      11.203  79.252 113.319  0.00  0.00    -0.090 HD
ATOM     21  H   LIG d   1      11.822  79.993 114.642  0.00  0.00    -0.090 HD
ENDBRANCH   5  18
BRANCH   3  22
ATOM     22  C   LIG d   1       7.330  76.947 115.851  0.00  0.00     0.382 C 
ATOM     23  O   LIG d   1       7.023  76.438 116.956  0.00  0.00    -0.241 OA
ATOM     24  O   LIG d   1       6.432  77.377 115.102  0.00  0.00    -0.241 OA
ENDBRANCH   3  22
TORSDOF 7
ENDMDL
MODEL 5
REMARK VINA RESULT:      -4.5     10.670     13.593
REMARK  7 active torsions:
REMARK  status: ('A' for Active; 'I' for Inactive)
REMARK    1  A    between atoms: C_2  and  C_3 
REMARK    2  A    between atoms: C_3  and  O_6 
REMARK    3  A    between atoms: C_3  and  C_4 
REMARK    4  A    between atoms: C_7  and  O_6 
REMARK    5  A    between atoms: C_9  and  C_10 
REMARK    6  A    between atoms: N_15  and  C_14 
REMARK    7  A    between atoms: N_20  and  C_19 
REMARK       I    between atoms: C_22  and  N_20 
ROOT
ATOM      1  C   LIG d   1       2.496  86.082 115.190  0.00  0.00     0.161 C 
ATOM      2  C   LIG d   1       2.564  87.273 114.448  0.00  0.00     0.016 C 
ATOM      3  C   LIG d   1       3.648  88.178 114.527  0.00  0.00     0.038 C 
ATOM      4  C   LIG d   1       4.815  87.876 115.244  0.00  0.00     0.028 C 
ATOM      5  C   LIG d   1       4.581  86.919 116.408  0.00  0.00    -0.047 C 
ATOM      6  C   LIG d   1       3.810  85.682 115.893  0.00  0.00     0.091 C 
ENDROOT
BRANCH   1   7
ATOM      7  O   LIG d   1       2.032  85.008 114.348  0.00  0.00    -0.368 OA
BRANCH   7   8
ATOM      8  C   LIG d   1       0.800  84.364 114.758  0.00  0.00     0.119 C 
BRANCH   8   9
ATOM      9  C   LIG d   1      -0.123  84.303 113.525  0.00  0.00     0.028 C 
ATOM     10  C   LIG d   1      -0.569  85.698 113.057  0.00  0.00     0.006 C 
ENDBRANCH   8   9
BRANCH   8  11
ATOM     11  C   LIG d   1       0.046  85.209 115.788  0.00  0.00     0.028 C 
ATOM     12  C   LIG d   1      -0.426  84.390 117.000  0.00  0.00     0.006 C 
ENDBRANCH   8  11
ENDBRANCH   7   8
ENDBRANCH   1   7
BRANCH   6  13
ATOM     13  N   LIG d   1       3.466  84.733 116.984  0.00  0.00    -0.311 N 
ATOM     14  C   LIG d   1       3.737  83.430 116.936  0.00  0.00     0.210 C 
ATOM     15  C   LIG d   1       3.279  82.629 118.159  0.00  0.00     0.109 C 
ATOM     16  O   LIG d   1       4.344  82.868 116.012  0.00  0.00    -0.276 OA
ATOM     17  H   LIG d   1       3.000  85.111 117.786  0.00  0.00     0.149 HD
ENDBRANCH   6  13
BRANCH   5  18
ATOM     18  N   LIG d   1       5.897  86.582 116.981  0.00  0.00     0.381 N 
ATOM     19  H   LIG d   1       6.051  85.596 116.921  0.00  0.00    -0.090 HD
ATOM     20  H   LIG d   1       5.906  86.844 117.951  0.00  0.00    -0.090 HD
ATOM     21  H   LIG d   1       6.616  87.069 116.492  0.00  0.00    -0.090 HD
ENDBRANCH   5  18
BRANCH   3  22
ATOM     22  C   LIG d   1       3.554  89.418 113.915  0.00  0.00     0.382 C 
ATOM     23  O   LIG d   1       2.978  89.528 112.806  0.00  0.00    -0.241 OA
ATOM     24  O   LIG d   1       4.076  90.422 114.437  0.00  0.00    -0.241 OA
ENDBRANCH   3  22
TORSDOF 7
ENDMDL
MODEL 6
REMARK VINA RESULT:      -4.4     14.688     17.146
REMARK  7 active torsions:
REMARK  status: ('A' for Active; 'I' for Inactive)
REMARK    1  A    between atoms: C_2  and  C_3 
REMARK    2  A    between atoms: C_3  and  O_6 
REMARK    3  A    between atoms: C_3  and  C_4 
REMARK    4  A    between atoms: C_7  and  O_6 
REMARK    5  A    between atoms: C_9  and  C_10 
REMARK    6  A    between atoms: N_15  and  C_14 
REMARK    7  A    between atoms: N_20  and  C_19 
REMARK       I    between atoms: C_22  and  N_20 
ROOT
ATOM      1  C   LIG d   1     -17.935  65.320 116.008  0.00  0.00     0.161 C 
ATOM      2  C   LIG d   1     -18.749  64.246 116.407  0.00  0.00     0.016 C 
ATOM      3  C   LIG d   1     -18.731  62.980 115.779  0.00  0.00     0.038 C 
ATOM      4  C   LIG d   1     -17.784  62.653 114.797  0.00  0.00     0.028 C 
ATOM      5  C   LIG d   1     -17.280  63.861 114.015  0.00  0.00    -0.047 C 
ATOM      6  C   LIG d   1     -16.817  64.948 115.012  0.00  0.00     0.091 C 
ENDROOT
BRANCH   1   7
ATOM      7  O   LIG d   1     -17.378  65.969 117.168  0.00  0.00    -0.368 OA
BRANCH   7   8
ATOM      8  C   LIG d   1     -17.342  65.181 118.383  0.00  0.00     0.119 C 
BRANCH   8   9
ATOM      9  C   LIG d   1     -17.872  66.068 119.526  0.00  0.00     0.028 C 
ATOM     10  C   LIG d   1     -18.217  67.490 119.053  0.00  0.00     0.006 C 
ENDBRANCH   8   9
BRANCH   8  11
ATOM     11  C   LIG d   1     -15.904  64.829 118.776  0.00  0.00     0.028 C 
ATOM     12  C   LIG d   1     -15.397  63.547 118.097  0.00  0.00     0.006 C 
ENDBRANCH   8  11
ENDBRANCH   7   8
ENDBRANCH   1   7
BRANCH   6  13
ATOM     13  N   LIG d   1     -16.388  66.197 114.330  0.00  0.00    -0.311 N 
ATOM     14  C   LIG d   1     -15.354  66.934 114.733  0.00  0.00     0.210 C 
ATOM     15  C   LIG d   1     -15.095  68.193 113.901  0.00  0.00     0.109 C 
ATOM     16  O   LIG d   1     -14.608  66.647 115.682  0.00  0.00    -0.276 OA
ATOM     17  H   LIG d   1     -16.919  66.486 113.533  0.00  0.00     0.149 HD
ENDBRANCH   6  13
BRANCH   5  18
ATOM     18  N   LIG d   1     -16.201  63.396 113.123  0.00  0.00     0.381 N 
ATOM     19  H   LIG d   1     -16.497  63.460 112.170  0.00  0.00    -0.090 HD
ATOM     20  H   LIG d   1     -16.002  62.433 113.328  0.00  0.00    -0.090 HD
ATOM     21  H   LIG d   1     -15.383  63.948 113.262  0.00  0.00    -0.090 HD
ENDBRANCH   5  18
BRANCH   3  22
ATOM     22  C   LIG d   1     -19.695  62.038 116.103  0.00  0.00     0.382 C 
ATOM     23  O   LIG d   1     -20.410  61.537 115.202  0.00  0.00    -0.241 OA
ATOM     24  O   LIG d   1     -19.890  61.717 117.291  0.00  0.00    -0.241 OA
ENDBRANCH   3  22
TORSDOF 7
ENDMDL
MODEL 7
REMARK VINA RESULT:      -4.3     14.848     17.466
REMARK  7 active torsions:
REMARK  status: ('A' for Active; 'I' for Inactive)
REMARK    1  A    between atoms: C_2  and  C_3 
REMARK    2  A    between atoms: C_3  and  O_6 
REMARK    3  A    between atoms: C_3  and  C_4 
REMARK    4  A    between atoms: C_7  and  O_6 
REMARK    5  A    between atoms: C_9  and  C_10 
REMARK    6  A    between atoms: N_15  and  C_14 
REMARK    7  A    between atoms: N_20  and  C_19 
REMARK       I    between atoms: C_22  and  N_20 
ROOT
ATOM      1  C   LIG d   1     -18.170  65.037 115.726  0.00  0.00     0.161 C 
ATOM      2  C   LIG d   1     -19.003  63.934 115.976  0.00  0.00     0.016 C 
ATOM      3  C   LIG d   1     -18.918  62.717 115.261  0.00  0.00     0.038 C 
ATOM      4  C   LIG d   1     -17.886  62.466 114.345  0.00  0.00     0.028 C 
ATOM      5  C   LIG d   1     -17.330  63.730 113.698  0.00  0.00    -0.047 C 
ATOM      6  C   LIG d   1     -16.966  64.743 114.807  0.00  0.00     0.091 C 
ENDROOT
BRANCH   1   7
ATOM      7  O   LIG d   1     -17.721  65.602 116.974  0.00  0.00    -0.368 OA
BRANCH   7   8
ATOM      8  C   LIG d   1     -18.186  66.942 117.271  0.00  0.00     0.119 C 
BRANCH   8   9
ATOM      9  C   LIG d   1     -17.275  67.515 118.374  0.00  0.00     0.028 C 
ATOM     10  C   LIG d   1     -16.259  66.482 118.891  0.00  0.00     0.006 C 
ENDBRANCH   8   9
BRANCH   8  11
ATOM     11  C   LIG d   1     -19.592  66.921 117.878  0.00  0.00     0.028 C 
ATOM     12  C   LIG d   1     -20.658  67.497 116.931  0.00  0.00     0.006 C 
ENDBRANCH   8  11
ENDBRANCH   7   8
ENDBRANCH   1   7
BRANCH   6  13
ATOM     13  N   LIG d   1     -16.492  66.040 114.257  0.00  0.00    -0.311 N 
ATOM     14  C   LIG d   1     -15.472  66.725 114.771  0.00  0.00     0.210 C 
ATOM     15  C   LIG d   1     -15.161  68.048 114.064  0.00  0.00     0.109 C 
ATOM     16  O   LIG d   1     -14.774  66.347 115.724  0.00  0.00    -0.276 OA
ATOM     17  H   LIG d   1     -16.982  66.405 113.464  0.00  0.00     0.149 HD
ENDBRANCH   6  13
BRANCH   5  18
ATOM     18  N   LIG d   1     -16.173  63.336 112.872  0.00  0.00     0.381 N 
ATOM     19  H   LIG d   1     -15.910  62.394 113.084  0.00  0.00    -0.090 HD
ATOM     20  H   LIG d   1     -15.397  63.936 113.092  0.00  0.00    -0.090 HD
ATOM     21  H   LIG d   1     -16.400  63.415 111.906  0.00  0.00    -0.090 HD
ENDBRANCH   5  18
BRANCH   3  22
ATOM     22  C   LIG d   1     -19.897  61.750 115.432  0.00  0.00     0.382 C 
ATOM     23  O   LIG d   1     -20.805  61.920 116.281  0.00  0.00    -0.241 OA
ATOM     24  O   LIG d   1     -19.858  60.690 114.779  0.00  0.00    -0.241 OA
ENDBRANCH   3  22
TORSDOF 7
ENDMDL
MODEL 8
REMARK VINA RESULT:      -4.3     16.629     19.205
REMARK  7 active torsions:
REMARK  status: ('A' for Active; 'I' for Inactive)
REMARK    1  A    between atoms: C_2  and  C_3 
REMARK    2  A    between atoms: C_3  and  O_6 
REMARK    3  A    between atoms: C_3  and  C_4 
REMARK    4  A    between atoms: C_7  and  O_6 
REMARK    5  A    between atoms: C_9  and  C_10 
REMARK    6  A    between atoms: N_15  and  C_14 
REMARK    7  A    between atoms: N_20  and  C_19 
REMARK       I    between atoms: C_22  and  N_20 
ROOT
ATOM      1  C   LIG d   1     -23.059  83.388 116.325  0.00  0.00     0.161 C 
ATOM      2  C   LIG d   1     -22.557  84.687 116.148  0.00  0.00     0.016 C 
ATOM      3  C   LIG d   1     -22.763  85.447 114.973  0.00  0.00     0.038 C 
ATOM      4  C   LIG d   1     -23.618  85.013 113.950  0.00  0.00     0.028 C 
ATOM      5  C   LIG d   1     -23.740  83.496 113.865  0.00  0.00    -0.047 C 
ATOM      6  C   LIG d   1     -24.088  82.941 115.265  0.00  0.00     0.091 C 
ENDROOT
BRANCH   1   7
ATOM      7  O   LIG d   1     -23.614  83.255 117.649  0.00  0.00    -0.368 OA
BRANCH   7   8
ATOM      8  C   LIG d   1     -22.685  82.877 118.695  0.00  0.00     0.119 C 
BRANCH   8   9
ATOM      9  C   LIG d   1     -21.433  82.292 118.013  0.00  0.00     0.028 C 
ATOM     10  C   LIG d   1     -20.537  81.519 118.995  0.00  0.00     0.006 C 
ENDBRANCH   8   9
BRANCH   8  11
ATOM     11  C   LIG d   1     -23.247  81.741 119.555  0.00  0.00     0.028 C 
ATOM     12  C   LIG d   1     -24.293  80.893 118.813  0.00  0.00     0.006 C 
ENDBRANCH   8  11
ENDBRANCH   7   8
ENDBRANCH   1   7
BRANCH   6  13
ATOM     13  N   LIG d   1     -24.142  81.456 115.289  0.00  0.00    -0.311 N 
ATOM     14  C   LIG d   1     -25.269  80.761 115.139  0.00  0.00     0.210 C 
ATOM     15  C   LIG d   1     -25.106  79.240 115.216  0.00  0.00     0.109 C 
ATOM     16  O   LIG d   1     -26.383  81.260 114.917  0.00  0.00    -0.276 OA
ATOM     17  H   LIG d   1     -23.279  80.970 115.433  0.00  0.00     0.149 HD
ENDBRANCH   6  13
BRANCH   5  18
ATOM     18  N   LIG d   1     -24.765  83.187 112.850  0.00  0.00     0.381 N 
ATOM     19  H   LIG d   1     -24.384  82.568 112.162  0.00  0.00    -0.090 HD
ATOM     20  H   LIG d   1     -25.036  84.039 112.392  0.00  0.00    -0.090 HD
ATOM     21  H   LIG d   1     -25.557  82.766 113.283  0.00  0.00    -0.090 HD
ENDBRANCH   5  18
BRANCH   3  22
ATOM     22  C   LIG d   1     -22.076  86.639 114.797  0.00  0.00     0.382 C 
ATOM     23  O   LIG d   1     -21.242  86.751 113.866  0.00  0.00    -0.241 OA
ATOM     24  O   LIG d   1     -22.248  87.589 115.584  0.00  0.00    -0.241 OA
ENDBRANCH   3  22
TORSDOF 7
ENDMDL
MODEL 9
REMARK VINA RESULT:      -4.3      2.671      4.631
REMARK  7 active torsions:
REMARK  status: ('A' for Active; 'I' for Inactive)
REMARK    1  A    between atoms: C_2  and  C_3 
REMARK    2  A    between atoms: C_3  and  O_6 
REMARK    3  A    between atoms: C_3  and  C_4 
REMARK    4  A    between atoms: C_7  and  O_6 
REMARK    5  A    between atoms: C_9  and  C_10 
REMARK    6  A    between atoms: N_15  and  C_14 
REMARK    7  A    between atoms: N_20  and  C_19 
REMARK       I    between atoms: C_22  and  N_20 
ROOT
ATOM      1  C   LIG d   1      -5.878  75.833 116.813  0.00  0.00     0.161 C 
ATOM      2  C   LIG d   1      -5.910  77.211 117.085  0.00  0.00     0.016 C 
ATOM      3  C   LIG d   1      -7.071  77.892 117.516  0.00  0.00     0.038 C 
ATOM      4  C   LIG d   1      -8.250  77.209 117.852  0.00  0.00     0.028 C 
ATOM      5  C   LIG d   1      -8.415  75.886 117.112  0.00  0.00    -0.047 C 
ATOM      6  C   LIG d   1      -7.124  75.053 117.280  0.00  0.00     0.091 C 
ENDROOT
BRANCH   1   7
ATOM      7  O   LIG d   1      -4.684  75.252 117.374  0.00  0.00    -0.368 OA
BRANCH   7   8
ATOM      8  C   LIG d   1      -3.817  74.555 116.445  0.00  0.00     0.119 C 
BRANCH   8   9
ATOM      9  C   LIG d   1      -2.384  74.627 117.006  0.00  0.00     0.028 C 
ATOM     10  C   LIG d   1      -1.984  73.348 117.761  0.00  0.00     0.006 C 
ENDBRANCH   8   9
BRANCH   8  11
ATOM     11  C   LIG d   1      -3.760  75.271 115.092  0.00  0.00     0.028 C 
ATOM     12  C   LIG d   1      -2.457  76.061 114.891  0.00  0.00     0.006 C 
ENDBRANCH   8  11
ENDBRANCH   7   8
ENDBRANCH   1   7
BRANCH   6  13
ATOM     13  N   LIG d   1      -7.169  73.778 116.518  0.00  0.00    -0.311 N 
ATOM     14  C   LIG d   1      -7.704  72.656 116.996  0.00  0.00     0.210 C 
ATOM     15  C   LIG d   1      -7.628  71.450 116.053  0.00  0.00     0.109 C 
ATOM     16  O   LIG d   1      -8.262  72.552 118.098  0.00  0.00    -0.276 OA
ATOM     17  H   LIG d   1      -6.766  73.780 115.601  0.00  0.00     0.149 HD
ENDBRANCH   6  13
BRANCH   5  18
ATOM     18  N   LIG d   1      -9.611  75.217 117.657  0.00  0.00     0.381 N 
ATOM     19  H   LIG d   1      -9.564  74.235 117.472  0.00  0.00    -0.090 HD
ATOM     20  H   LIG d   1     -10.426  75.585 117.200  0.00  0.00    -0.090 HD
ATOM     21  H   LIG d   1      -9.672  75.375 118.639  0.00  0.00    -0.090 HD
ENDBRANCH   5  18
BRANCH   3  22
ATOM     22  C   LIG d   1      -7.073  79.278 117.576  0.00  0.00     0.382 C 
ATOM     23  O   LIG d   1      -8.093  79.886 117.980  0.00  0.00    -0.241 OA
ATOM     24  O   LIG d   1      -6.083  79.928 117.190  0.00  0.00    -0.241 OA
ENDBRANCH   3  22
TORSDOF 7
ENDMDL
