MODEL 1
REMARK VINA RESULT:      -5.6      0.000      0.000
REMARK  7 active torsions:
REMARK  status: ('A' for Active; 'I' for Inactive)
REMARK    1  A    between atoms: C_2  and  C_3 
REMARK    2  A    between atoms: C_3  and  O_6 
REMARK    3  A    between atoms: C_3  and  C_4 
REMARK    4  A    between atoms: C_7  and  O_6 
REMARK    5  A    between atoms: C_9  and  C_10 
REMARK    6  A    between atoms: N_15  and  C_14 
REMARK    7  A    between atoms: N_20  and  C_19 
REMARK       I    between atoms: C_22  and  N_20 
ROOT
ATOM      1  C   LIG d   1      -7.642  76.196 117.676  0.00  0.00     0.161 C 
ATOM      2  C   LIG d   1      -8.890  76.709 118.067  0.00  0.00     0.016 C 
ATOM      3  C   LIG d   1      -9.104  78.067 118.399  0.00  0.00     0.038 C 
ATOM      4  C   LIG d   1      -8.110  79.040 118.216  0.00  0.00     0.028 C 
ATOM      5  C   LIG d   1      -6.693  78.484 118.305  0.00  0.00    -0.047 C 
ATOM      6  C   LIG d   1      -6.573  77.264 117.363  0.00  0.00     0.091 C 
ENDROOT
BRANCH   1   7
ATOM      7  O   LIG d   1      -7.808  75.310 116.552  0.00  0.00    -0.368 OA
BRANCH   7   8
ATOM      8  C   LIG d   1      -7.689  73.894 116.834  0.00  0.00     0.119 C 
BRANCH   8   9
ATOM      9  C   LIG d   1      -6.446  73.376 116.086  0.00  0.00     0.028 C 
ATOM     10  C   LIG d   1      -6.047  74.284 114.911  0.00  0.00     0.006 C 
ENDBRANCH   8   9
BRANCH   8  11
ATOM     11  C   LIG d   1      -8.869  73.109 116.252  0.00  0.00     0.028 C 
ATOM     12  C   LIG d   1      -8.844  71.622 116.639  0.00  0.00     0.006 C 
ENDBRANCH   8  11
ENDBRANCH   7   8
ENDBRANCH   1   7
BRANCH   6  13
ATOM     13  N   LIG d   1      -5.242  76.608 117.453  0.00  0.00    -0.311 N 
ATOM     14  C   LIG d   1      -4.225  76.902 116.645  0.00  0.00     0.210 C 
ATOM     15  C   LIG d   1      -2.947  76.094 116.895  0.00  0.00     0.109 C 
ATOM     16  O   LIG d   1      -4.248  77.777 115.767  0.00  0.00    -0.276 OA
ATOM     17  H   LIG d   1      -5.125  75.908 118.158  0.00  0.00     0.149 HD
ENDBRANCH   6  13
BRANCH   5  18
ATOM     18  N   LIG d   1      -5.763  79.576 117.959  0.00  0.00     0.381 N 
ATOM     19  H   LIG d   1      -5.305  79.369 117.094  0.00  0.00    -0.090 HD
ATOM     20  H   LIG d   1      -5.064  79.647 118.678  0.00  0.00    -0.090 HD
ATOM     21  H   LIG d   1      -6.260  80.436 117.882  0.00  0.00    -0.090 HD
ENDBRANCH   5  18
BRANCH   3  22
ATOM     22  C   LIG d   1     -10.311  78.455 118.959  0.00  0.00     0.382 C 
ATOM     23  O   LIG d   1     -11.260  77.637 119.034  0.00  0.00    -0.241 OA
ATOM     24  O   LIG d   1     -10.479  79.626 119.350  0.00  0.00    -0.241 OA
ENDBRANCH   3  22
TORSDOF 7
ENDMDL
MODEL 2
REMARK VINA RESULT:      -5.6      2.155      5.648
REMARK  7 active torsions:
REMARK  status: ('A' for Active; 'I' for Inactive)
REMARK    1  A    between atoms: C_2  and  C_3 
REMARK    2  A    between atoms: C_3  and  O_6 
REMARK    3  A    between atoms: C_3  and  C_4 
REMARK    4  A    between atoms: C_7  and  O_6 
REMARK    5  A    between atoms: C_9  and  C_10 
REMARK    6  A    between atoms: N_15  and  C_14 
REMARK    7  A    between atoms: N_20  and  C_19 
REMARK       I    between atoms: C_22  and  N_20 
ROOT
ATOM      1  C   LIG d   1      -5.248  75.603 115.443  0.00  0.00     0.161 C 
ATOM      2  C   LIG d   1      -4.069  74.986 114.992  0.00  0.00     0.016 C 
ATOM      3  C   LIG d   1      -2.843  75.044 115.694  0.00  0.00     0.038 C 
ATOM      4  C   LIG d   1      -2.750  75.598 116.979  0.00  0.00     0.028 C 
ATOM      5  C   LIG d   1      -3.796  76.674 117.252  0.00  0.00    -0.047 C 
ATOM      6  C   LIG d   1      -5.193  76.118 116.896  0.00  0.00     0.091 C 
ENDROOT
BRANCH   1   7
ATOM      7  O   LIG d   1      -6.364  74.707 115.270  0.00  0.00    -0.368 OA
BRANCH   7   8
ATOM      8  C   LIG d   1      -6.638  73.810 116.374  0.00  0.00     0.119 C 
BRANCH   8   9
ATOM      9  C   LIG d   1      -6.464  72.370 115.854  0.00  0.00     0.028 C 
ATOM     10  C   LIG d   1      -7.657  71.468 116.214  0.00  0.00     0.006 C 
ENDBRANCH   8   9
BRANCH   8  11
ATOM     11  C   LIG d   1      -8.100  73.906 116.821  0.00  0.00     0.028 C 
ATOM     12  C   LIG d   1      -8.901  74.945 116.019  0.00  0.00     0.006 C 
ENDBRANCH   8  11
ENDBRANCH   7   8
ENDBRANCH   1   7
BRANCH   6  13
ATOM     13  N   LIG d   1      -6.265  77.134 117.054  0.00  0.00    -0.311 N 
ATOM     14  C   LIG d   1      -6.983  77.277 118.167  0.00  0.00     0.210 C 
ATOM     15  C   LIG d   1      -8.052  78.373 118.111  0.00  0.00     0.109 C 
ATOM     16  O   LIG d   1      -6.814  76.621 119.206  0.00  0.00    -0.276 OA
ATOM     17  H   LIG d   1      -6.448  77.730 116.270  0.00  0.00     0.149 HD
ENDBRANCH   6  13
BRANCH   5  18
ATOM     18  N   LIG d   1      -3.672  77.067 118.668  0.00  0.00     0.381 N 
ATOM     19  H   LIG d   1      -4.083  77.969 118.807  0.00  0.00    -0.090 HD
ATOM     20  H   LIG d   1      -2.698  77.124 118.906  0.00  0.00    -0.090 HD
ATOM     21  H   LIG d   1      -4.125  76.395 119.249  0.00  0.00    -0.090 HD
ENDBRANCH   5  18
BRANCH   3  22
ATOM     22  C   LIG d   1      -1.684  74.578 115.092  0.00  0.00     0.382 C 
ATOM     23  O   LIG d   1      -0.999  73.689 115.655  0.00  0.00    -0.241 OA
ATOM     24  O   LIG d   1      -1.291  75.065 114.016  0.00  0.00    -0.241 OA
ENDBRANCH   3  22
TORSDOF 7
ENDMDL
MODEL 3
REMARK VINA RESULT:      -5.5      2.340      4.925
REMARK  7 active torsions:
REMARK  status: ('A' for Active; 'I' for Inactive)
REMARK    1  A    between atoms: C_2  and  C_3 
REMARK    2  A    between atoms: C_3  and  O_6 
REMARK    3  A    between atoms: C_3  and  C_4 
REMARK    4  A    between atoms: C_7  and  O_6 
REMARK    5  A    between atoms: C_9  and  C_10 
REMARK    6  A    between atoms: N_15  and  C_14 
REMARK    7  A    between atoms: N_20  and  C_19 
REMARK       I    between atoms: C_22  and  N_20 
ROOT
ATOM      1  C   LIG d   1      -6.641  74.918 117.490  0.00  0.00     0.161 C 
ATOM      2  C   LIG d   1      -6.865  73.640 116.951  0.00  0.00     0.016 C 
ATOM      3  C   LIG d   1      -8.152  73.139 116.648  0.00  0.00     0.038 C 
ATOM      4  C   LIG d   1      -9.298  73.944 116.722  0.00  0.00     0.028 C 
ATOM      5  C   LIG d   1      -9.179  75.074 117.739  0.00  0.00    -0.047 C 
ATOM      6  C   LIG d   1      -7.869  75.851 117.474  0.00  0.00     0.091 C 
ENDROOT
BRANCH   1   7
ATOM      7  O   LIG d   1      -5.528  75.542 116.819  0.00  0.00    -0.368 OA
BRANCH   7   8
ATOM      8  C   LIG d   1      -5.010  74.845 115.660  0.00  0.00     0.119 C 
BRANCH   8   9
ATOM      9  C   LIG d   1      -3.485  74.713 115.843  0.00  0.00     0.028 C 
ATOM     10  C   LIG d   1      -2.723  75.944 115.326  0.00  0.00     0.006 C 
ENDBRANCH   8   9
BRANCH   8  11
ATOM     11  C   LIG d   1      -5.195  75.670 114.384  0.00  0.00     0.028 C 
ATOM     12  C   LIG d   1      -6.669  75.804 113.969  0.00  0.00     0.006 C 
ENDBRANCH   8  11
ENDBRANCH   7   8
ENDBRANCH   1   7
BRANCH   6  13
ATOM     13  N   LIG d   1      -7.633  76.923 118.476  0.00  0.00    -0.311 N 
ATOM     14  C   LIG d   1      -7.102  78.106 118.174  0.00  0.00     0.210 C 
ATOM     15  C   LIG d   1      -6.926  79.059 119.360  0.00  0.00     0.109 C 
ATOM     16  O   LIG d   1      -6.789  78.469 117.030  0.00  0.00    -0.276 OA
ATOM     17  H   LIG d   1      -7.887  76.724 119.424  0.00  0.00     0.149 HD
ENDBRANCH   6  13
BRANCH   5  18
ATOM     18  N   LIG d   1     -10.385  75.915 117.614  0.00  0.00     0.381 N 
ATOM     19  H   LIG d   1     -11.162  75.458 118.048  0.00  0.00    -0.090 HD
ATOM     20  H   LIG d   1     -10.596  76.039 116.639  0.00  0.00    -0.090 HD
ATOM     21  H   LIG d   1     -10.230  76.800 118.043  0.00  0.00    -0.090 HD
ENDBRANCH   5  18
BRANCH   3  22
ATOM     22  C   LIG d   1      -8.306  71.804 116.302  0.00  0.00     0.382 C 
ATOM     23  O   LIG d   1      -7.448  71.241 115.580  0.00  0.00    -0.241 OA
ATOM     24  O   LIG d   1      -9.313  71.170 116.667  0.00  0.00    -0.241 OA
ENDBRANCH   3  22
TORSDOF 7
ENDMDL
MODEL 4
REMARK VINA RESULT:      -5.0      3.751      6.421
REMARK  7 active torsions:
REMARK  status: ('A' for Active; 'I' for Inactive)
REMARK    1  A    between atoms: C_2  and  C_3 
REMARK    2  A    between atoms: C_3  and  O_6 
REMARK    3  A    between atoms: C_3  and  C_4 
REMARK    4  A    between atoms: C_7  and  O_6 
REMARK    5  A    between atoms: C_9  and  C_10 
REMARK    6  A    between atoms: N_15  and  C_14 
REMARK    7  A    between atoms: N_20  and  C_19 
REMARK       I    between atoms: C_22  and  N_20 
ROOT
ATOM      1  C   LIG d   1      -2.773  76.912 116.573  0.00  0.00     0.161 C 
ATOM      2  C   LIG d   1      -2.997  77.999 115.712  0.00  0.00     0.016 C 
ATOM      3  C   LIG d   1      -2.031  78.478 114.796  0.00  0.00     0.038 C 
ATOM      4  C   LIG d   1      -0.822  77.802 114.573  0.00  0.00     0.028 C 
ATOM      5  C   LIG d   1      -0.347  76.997 115.778  0.00  0.00    -0.047 C 
ATOM      6  C   LIG d   1      -1.502  76.093 116.266  0.00  0.00     0.091 C 
ENDROOT
BRANCH   1   7
ATOM      7  O   LIG d   1      -3.931  76.053 116.587  0.00  0.00    -0.368 OA
BRANCH   7   8
ATOM      8  C   LIG d   1      -5.055  76.486 115.782  0.00  0.00     0.119 C 
BRANCH   8   9
ATOM      9  C   LIG d   1      -6.291  76.534 116.701  0.00  0.00     0.028 C 
ATOM     10  C   LIG d   1      -6.502  77.922 117.328  0.00  0.00     0.006 C 
ENDBRANCH   8   9
BRANCH   8  11
ATOM     11  C   LIG d   1      -5.394  75.457 114.699  0.00  0.00     0.028 C 
ATOM     12  C   LIG d   1      -6.685  74.679 115.000  0.00  0.00     0.006 C 
ENDBRANCH   8  11
ENDBRANCH   7   8
ENDBRANCH   1   7
BRANCH   6  13
ATOM     13  N   LIG d   1      -1.148  75.334 117.493  0.00  0.00    -0.311 N 
ATOM     14  C   LIG d   1      -0.686  74.085 117.475  0.00  0.00     0.210 C 
ATOM     15  C   LIG d   1      -0.403  73.480 118.853  0.00  0.00     0.109 C 
ATOM     16  O   LIG d   1      -0.454  73.432 116.446  0.00  0.00    -0.276 OA
ATOM     17  H   LIG d   1      -1.276  75.799 118.370  0.00  0.00     0.149 HD
ENDBRANCH   6  13
BRANCH   5  18
ATOM     18  N   LIG d   1       0.847  76.236 115.362  0.00  0.00     0.381 N 
ATOM     19  H   LIG d   1       0.694  75.832 114.460  0.00  0.00    -0.090 HD
ATOM     20  H   LIG d   1       1.002  75.491 116.019  0.00  0.00    -0.090 HD
ATOM     21  H   LIG d   1       1.642  76.836 115.335  0.00  0.00    -0.090 HD
ENDBRANCH   5  18
BRANCH   3  22
ATOM     22  C   LIG d   1      -2.255  79.668 114.122  0.00  0.00     0.382 C 
ATOM     23  O   LIG d   1      -3.421  80.119 114.016  0.00  0.00    -0.241 OA
ATOM     24  O   LIG d   1      -1.311  80.274 113.580  0.00  0.00    -0.241 OA
ENDBRANCH   3  22
TORSDOF 7
ENDMDL
MODEL 5
REMARK VINA RESULT:      -4.9      1.707      2.405
REMARK  7 active torsions:
REMARK  status: ('A' for Active; 'I' for Inactive)
REMARK    1  A    between atoms: C_2  and  C_3 
REMARK    2  A    between atoms: C_3  and  O_6 
REMARK    3  A    between atoms: C_3  and  C_4 
REMARK    4  A    between atoms: C_7  and  O_6 
REMARK    5  A    between atoms: C_9  and  C_10 
REMARK    6  A    between atoms: N_15  and  C_14 
REMARK    7  A    between atoms: N_20  and  C_19 
REMARK       I    between atoms: C_22  and  N_20 
ROOT
ATOM      1  C   LIG d   1      -5.985  75.751 117.341  0.00  0.00     0.161 C 
ATOM      2  C   LIG d   1      -7.045  76.615 117.663  0.00  0.00     0.016 C 
ATOM      3  C   LIG d   1      -6.916  78.023 117.699  0.00  0.00     0.038 C 
ATOM      4  C   LIG d   1      -5.751  78.673 117.265  0.00  0.00     0.028 C 
ATOM      5  C   LIG d   1      -4.493  77.824 117.413  0.00  0.00    -0.047 C 
ATOM      6  C   LIG d   1      -4.738  76.446 116.757  0.00  0.00     0.091 C 
ENDROOT
BRANCH   1   7
ATOM      7  O   LIG d   1      -6.450  74.721 116.445  0.00  0.00    -0.368 OA
BRANCH   7   8
ATOM      8  C   LIG d   1      -7.468  73.833 116.969  0.00  0.00     0.119 C 
BRANCH   8   9
ATOM      9  C   LIG d   1      -6.890  72.405 116.952  0.00  0.00     0.028 C 
ATOM     10  C   LIG d   1      -7.827  71.400 116.260  0.00  0.00     0.006 C 
ENDBRANCH   8   9
BRANCH   8  11
ATOM     11  C   LIG d   1      -8.692  73.786 116.050  0.00  0.00     0.028 C 
ATOM     12  C   LIG d   1      -9.795  74.769 116.475  0.00  0.00     0.006 C 
ENDBRANCH   8  11
ENDBRANCH   7   8
ENDBRANCH   1   7
BRANCH   6  13
ATOM     13  N   LIG d   1      -3.586  75.523 116.931  0.00  0.00    -0.311 N 
ATOM     14  C   LIG d   1      -2.628  75.366 116.018  0.00  0.00     0.210 C 
ATOM     15  C   LIG d   1      -1.543  74.350 116.388  0.00  0.00     0.109 C 
ATOM     16  O   LIG d   1      -2.557  75.995 114.952  0.00  0.00    -0.276 OA
ATOM     17  H   LIG d   1      -3.548  74.996 117.781  0.00  0.00     0.149 HD
ENDBRANCH   6  13
BRANCH   5  18
ATOM     18  N   LIG d   1      -3.378  78.568 116.798  0.00  0.00     0.381 N 
ATOM     19  H   LIG d   1      -3.730  79.378 116.328  0.00  0.00    -0.090 HD
ATOM     20  H   LIG d   1      -2.930  77.979 116.119  0.00  0.00    -0.090 HD
ATOM     21  H   LIG d   1      -2.723  78.840 117.497  0.00  0.00    -0.090 HD
ENDBRANCH   5  18
BRANCH   3  22
ATOM     22  C   LIG d   1      -7.949  78.794 118.211  0.00  0.00     0.382 C 
ATOM     23  O   LIG d   1      -8.026  80.012 117.920  0.00  0.00    -0.241 OA
ATOM     24  O   LIG d   1      -8.779  78.297 118.996  0.00  0.00    -0.241 OA
ENDBRANCH   3  22
TORSDOF 7
ENDMDL
MODEL 6
REMARK VINA RESULT:      -4.9      2.110      5.155
REMARK  7 active torsions:
REMARK  status: ('A' for Active; 'I' for Inactive)
REMARK    1  A    between atoms: C_2  and  C_3 
REMARK    2  A    between atoms: C_3  and  O_6 
REMARK    3  A    between atoms: C_3  and  C_4 
REMARK    4  A    between atoms: C_7  and  O_6 
REMARK    5  A    between atoms: C_9  and  C_10 
REMARK    6  A    between atoms: N_15  and  C_14 
REMARK    7  A    between atoms: N_20  and  C_19 
REMARK       I    between atoms: C_22  and  N_20 
ROOT
ATOM      1  C   LIG d   1      -6.970  75.566 117.349  0.00  0.00     0.161 C 
ATOM      2  C   LIG d   1      -7.712  74.378 117.240  0.00  0.00     0.016 C 
ATOM      3  C   LIG d   1      -7.361  73.318 116.372  0.00  0.00     0.038 C 
ATOM      4  C   LIG d   1      -6.153  73.313 115.658  0.00  0.00     0.028 C 
ATOM      5  C   LIG d   1      -5.625  74.710 115.352  0.00  0.00    -0.047 C 
ATOM      6  C   LIG d   1      -5.589  75.532 116.661  0.00  0.00     0.091 C 
ENDROOT
BRANCH   1   7
ATOM      7  O   LIG d   1      -6.830  75.929 118.736  0.00  0.00    -0.368 OA
BRANCH   7   8
ATOM      8  C   LIG d   1      -7.594  77.080 119.174  0.00  0.00     0.119 C 
BRANCH   8   9
ATOM      9  C   LIG d   1      -8.595  77.424 118.055  0.00  0.00     0.028 C 
ATOM     10  C   LIG d   1     -10.042  77.062 118.430  0.00  0.00     0.006 C 
ENDBRANCH   8   9
BRANCH   8  11
ATOM     11  C   LIG d   1      -6.704  78.318 119.316  0.00  0.00     0.028 C 
ATOM     12  C   LIG d   1      -7.104  79.453 118.360  0.00  0.00     0.006 C 
ENDBRANCH   8  11
ENDBRANCH   7   8
ENDBRANCH   1   7
BRANCH   6  13
ATOM     13  N   LIG d   1      -5.164  76.938 116.437  0.00  0.00    -0.311 N 
ATOM     14  C   LIG d   1      -4.046  77.455 116.943  0.00  0.00     0.210 C 
ATOM     15  C   LIG d   1      -3.805  78.930 116.607  0.00  0.00     0.109 C 
ATOM     16  O   LIG d   1      -3.214  76.824 117.613  0.00  0.00    -0.276 OA
ATOM     17  H   LIG d   1      -5.764  77.512 115.878  0.00  0.00     0.149 HD
ENDBRANCH   6  13
BRANCH   5  18
ATOM     18  N   LIG d   1      -4.296  74.557 114.729  0.00  0.00     0.381 N 
ATOM     19  H   LIG d   1      -4.111  75.338 114.132  0.00  0.00    -0.090 HD
ATOM     20  H   LIG d   1      -4.294  73.723 114.169  0.00  0.00    -0.090 HD
ATOM     21  H   LIG d   1      -3.595  74.494 115.434  0.00  0.00    -0.090 HD
ENDBRANCH   5  18
BRANCH   3  22
ATOM     22  C   LIG d   1      -8.244  72.267 116.180  0.00  0.00     0.382 C 
ATOM     23  O   LIG d   1      -7.829  71.084 116.225  0.00  0.00    -0.241 OA
ATOM     24  O   LIG d   1      -9.442  72.487 115.918  0.00  0.00    -0.241 OA
ENDBRANCH   3  22
TORSDOF 7
ENDMDL
MODEL 7
REMARK VINA RESULT:      -4.8      2.083      4.263
REMARK  7 active torsions:
REMARK  status: ('A' for Active; 'I' for Inactive)
REMARK    1  A    between atoms: C_2  and  C_3 
REMARK    2  A    between atoms: C_3  and  O_6 
REMARK    3  A    between atoms: C_3  and  C_4 
REMARK    4  A    between atoms: C_7  and  O_6 
REMARK    5  A    between atoms: C_9  and  C_10 
REMARK    6  A    between atoms: N_15  and  C_14 
REMARK    7  A    between atoms: N_20  and  C_19 
REMARK       I    between atoms: C_22  and  N_20 
ROOT
ATOM      1  C   LIG d   1      -7.035  76.363 117.711  0.00  0.00     0.161 C 
ATOM      2  C   LIG d   1      -8.258  76.844 118.208  0.00  0.00     0.016 C 
ATOM      3  C   LIG d   1      -9.497  76.201 117.981  0.00  0.00     0.038 C 
ATOM      4  C   LIG d   1      -9.577  74.944 117.364  0.00  0.00     0.028 C 
ATOM      5  C   LIG d   1      -8.426  74.666 116.403  0.00  0.00    -0.047 C 
ATOM      6  C   LIG d   1      -7.089  74.935 117.131  0.00  0.00     0.091 C 
ENDROOT
BRANCH   1   7
ATOM      7  O   LIG d   1      -6.024  76.450 118.735  0.00  0.00    -0.368 OA
BRANCH   7   8
ATOM      8  C   LIG d   1      -5.035  77.496 118.566  0.00  0.00     0.119 C 
BRANCH   8   9
ATOM      9  C   LIG d   1      -5.500  78.390 117.401  0.00  0.00     0.028 C 
ATOM     10  C   LIG d   1      -5.817  79.825 117.853  0.00  0.00     0.006 C 
ENDBRANCH   8   9
BRANCH   8  11
ATOM     11  C   LIG d   1      -3.686  76.921 118.123  0.00  0.00     0.028 C 
ATOM     12  C   LIG d   1      -3.172  77.547 116.817  0.00  0.00     0.006 C 
ENDBRANCH   8  11
ENDBRANCH   7   8
ENDBRANCH   1   7
BRANCH   6  13
ATOM     13  N   LIG d   1      -5.914  74.767 116.237  0.00  0.00    -0.311 N 
ATOM     14  C   LIG d   1      -5.760  75.436 115.095  0.00  0.00     0.210 C 
ATOM     15  C   LIG d   1      -4.485  75.098 114.315  0.00  0.00     0.109 C 
ATOM     16  O   LIG d   1      -6.542  76.299 114.670  0.00  0.00    -0.276 OA
ATOM     17  H   LIG d   1      -5.215  74.109 116.521  0.00  0.00     0.149 HD
ENDBRANCH   6  13
BRANCH   5  18
ATOM     18  N   LIG d   1      -8.561  73.272 115.938  0.00  0.00     0.381 N 
ATOM     19  H   LIG d   1      -9.514  73.087 115.696  0.00  0.00    -0.090 HD
ATOM     20  H   LIG d   1      -8.299  72.653 116.685  0.00  0.00    -0.090 HD
ATOM     21  H   LIG d   1      -7.974  73.118 115.148  0.00  0.00    -0.090 HD
ENDBRANCH   5  18
BRANCH   3  22
ATOM     22  C   LIG d   1     -10.676  76.837 118.337  0.00  0.00     0.382 C 
ATOM     23  O   LIG d   1     -10.652  78.027 118.736  0.00  0.00    -0.241 OA
ATOM     24  O   LIG d   1     -11.759  76.222 118.308  0.00  0.00    -0.241 OA
ENDBRANCH   3  22
TORSDOF 7
ENDMDL
MODEL 8
REMARK VINA RESULT:      -4.4      2.542      5.010
REMARK  7 active torsions:
REMARK  status: ('A' for Active; 'I' for Inactive)
REMARK    1  A    between atoms: C_2  and  C_3 
REMARK    2  A    between atoms: C_3  and  O_6 
REMARK    3  A    between atoms: C_3  and  C_4 
REMARK    4  A    between atoms: C_7  and  O_6 
REMARK    5  A    between atoms: C_9  and  C_10 
REMARK    6  A    between atoms: N_15  and  C_14 
REMARK    7  A    between atoms: N_20  and  C_19 
REMARK       I    between atoms: C_22  and  N_20 
ROOT
ATOM      1  C   LIG d   1      -6.187  76.497 117.032  0.00  0.00     0.161 C 
ATOM      2  C   LIG d   1      -7.345  75.705 117.096  0.00  0.00     0.016 C 
ATOM      3  C   LIG d   1      -7.619  74.652 116.194  0.00  0.00     0.038 C 
ATOM      4  C   LIG d   1      -6.674  74.218 115.252  0.00  0.00     0.028 C 
ATOM      5  C   LIG d   1      -5.703  75.312 114.820  0.00  0.00    -0.047 C 
ATOM      6  C   LIG d   1      -5.094  75.968 116.081  0.00  0.00     0.091 C 
ENDROOT
BRANCH   1   7
ATOM      7  O   LIG d   1      -5.650  76.687 118.356  0.00  0.00    -0.368 OA
BRANCH   7   8
ATOM      8  C   LIG d   1      -5.706  78.036 118.880  0.00  0.00     0.119 C 
BRANCH   8   9
ATOM      9  C   LIG d   1      -6.385  78.919 117.814  0.00  0.00     0.028 C 
ATOM     10  C   LIG d   1      -6.335  80.414 118.171  0.00  0.00     0.006 C 
ENDBRANCH   8   9
BRANCH   8  11
ATOM     11  C   LIG d   1      -4.303  78.623 119.059  0.00  0.00     0.028 C 
ATOM     12  C   LIG d   1      -3.230  77.546 119.277  0.00  0.00     0.006 C 
ENDBRANCH   8  11
ENDBRANCH   7   8
ENDBRANCH   1   7
BRANCH   6  13
ATOM     13  N   LIG d   1      -4.196  77.105 115.750  0.00  0.00    -0.311 N 
ATOM     14  C   LIG d   1      -2.876  76.983 115.618  0.00  0.00     0.210 C 
ATOM     15  C   LIG d   1      -2.135  78.284 115.295  0.00  0.00     0.109 C 
ATOM     16  O   LIG d   1      -2.252  75.914 115.708  0.00  0.00    -0.276 OA
ATOM     17  H   LIG d   1      -4.622  78.003 115.629  0.00  0.00     0.149 HD
ENDBRANCH   6  13
BRANCH   5  18
ATOM     18  N   LIG d   1      -4.692  74.690 113.945  0.00  0.00     0.381 N 
ATOM     19  H   LIG d   1      -4.320  73.872 114.386  0.00  0.00    -0.090 HD
ATOM     20  H   LIG d   1      -3.940  75.342 113.803  0.00  0.00    -0.090 HD
ATOM     21  H   LIG d   1      -5.101  74.447 113.070  0.00  0.00    -0.090 HD
ENDBRANCH   5  18
BRANCH   3  22
ATOM     22  C   LIG d   1      -8.866  74.046 116.203  0.00  0.00     0.382 C 
ATOM     23  O   LIG d   1      -8.970  72.820 115.957  0.00  0.00    -0.241 OA
ATOM     24  O   LIG d   1      -9.894  74.719 116.410  0.00  0.00    -0.241 OA
ENDBRANCH   3  22
TORSDOF 7
ENDMDL
MODEL 9
REMARK VINA RESULT:      -4.3     12.959     15.406
REMARK  7 active torsions:
REMARK  status: ('A' for Active; 'I' for Inactive)
REMARK    1  A    between atoms: C_2  and  C_3 
REMARK    2  A    between atoms: C_3  and  O_6 
REMARK    3  A    between atoms: C_3  and  C_4 
REMARK    4  A    between atoms: C_7  and  O_6 
REMARK    5  A    between atoms: C_9  and  C_10 
REMARK    6  A    between atoms: N_15  and  C_14 
REMARK    7  A    between atoms: N_20  and  C_19 
REMARK       I    between atoms: C_22  and  N_20 
ROOT
ATOM      1  C   LIG d   1       3.549  86.390 115.351  0.00  0.00     0.161 C 
ATOM      2  C   LIG d   1       3.268  87.330 114.346  0.00  0.00     0.016 C 
ATOM      3  C   LIG d   1       3.845  88.620 114.304  0.00  0.00     0.038 C 
ATOM      4  C   LIG d   1       4.865  89.005 115.187  0.00  0.00     0.028 C 
ATOM      5  C   LIG d   1       4.817  88.273 116.524  0.00  0.00    -0.047 C 
ATOM      6  C   LIG d   1       4.742  86.752 116.260  0.00  0.00     0.091 C 
ENDROOT
BRANCH   1   7
ATOM      7  O   LIG d   1       3.743  85.088 114.763  0.00  0.00    -0.368 OA
BRANCH   7   8
ATOM      8  C   LIG d   1       2.725  84.099 115.052  0.00  0.00     0.119 C 
BRANCH   8   9
ATOM      9  C   LIG d   1       1.968  83.816 113.740  0.00  0.00     0.028 C 
ATOM     10  C   LIG d   1       0.748  84.734 113.557  0.00  0.00     0.006 C 
ENDBRANCH   8   9
BRANCH   8  11
ATOM     11  C   LIG d   1       1.671  84.650 116.018  0.00  0.00     0.028 C 
ATOM     12  C   LIG d   1       1.597  83.858 117.333  0.00  0.00     0.006 C 
ENDBRANCH   8  11
ENDBRANCH   7   8
ENDBRANCH   1   7
BRANCH   6  13
ATOM     13  N   LIG d   1       4.607  85.965 117.514  0.00  0.00    -0.311 N 
ATOM     14  C   LIG d   1       5.312  84.864 117.768  0.00  0.00     0.210 C 
ATOM     15  C   LIG d   1       5.004  84.195 119.111  0.00  0.00     0.109 C 
ATOM     16  O   LIG d   1       6.185  84.396 117.023  0.00  0.00    -0.276 OA
ATOM     17  H   LIG d   1       3.943  86.292 118.188  0.00  0.00     0.149 HD
ENDBRANCH   6  13
BRANCH   5  18
ATOM     18  N   LIG d   1       6.013  88.669 117.292  0.00  0.00     0.381 N 
ATOM     19  H   LIG d   1       5.927  89.621 117.585  0.00  0.00    -0.090 HD
ATOM     20  H   LIG d   1       6.820  88.593 116.698  0.00  0.00    -0.090 HD
ATOM     21  H   LIG d   1       6.119  88.077 118.086  0.00  0.00    -0.090 HD
ENDBRANCH   5  18
BRANCH   3  22
ATOM     22  C   LIG d   1       3.374  89.554 113.394  0.00  0.00     0.382 C 
ATOM     23  O   LIG d   1       2.283  89.361 112.805  0.00  0.00    -0.241 OA
ATOM     24  O   LIG d   1       4.046  90.567 113.122  0.00  0.00    -0.241 OA
ENDBRANCH   3  22
TORSDOF 7
ENDMDL
