MODEL 1
REMARK VINA RESULT:      -5.7      0.000      0.000
REMARK  7 active torsions:
REMARK  status: ('A' for Active; 'I' for Inactive)
REMARK    1  A    between atoms: C_2  and  C_3 
REMARK    2  A    between atoms: C_3  and  O_6 
REMARK    3  A    between atoms: C_3  and  C_4 
REMARK    4  A    between atoms: C_7  and  O_6 
REMARK    5  A    between atoms: C_9  and  C_10 
REMARK    6  A    between atoms: N_15  and  C_14 
REMARK    7  A    between atoms: N_20  and  C_19 
REMARK       I    between atoms: C_22  and  N_20 
ROOT
ATOM      1  C   LIG d   1      -7.514  75.221 117.532  0.00  0.00     0.161 C 
ATOM      2  C   LIG d   1      -8.758  75.866 117.634  0.00  0.00     0.016 C 
ATOM      3  C   LIG d   1      -8.900  77.267 117.768  0.00  0.00     0.038 C 
ATOM      4  C   LIG d   1      -7.805  78.137 117.655  0.00  0.00     0.028 C 
ATOM      5  C   LIG d   1      -6.480  77.498 118.057  0.00  0.00    -0.047 C 
ATOM      6  C   LIG d   1      -6.315  76.163 117.295  0.00  0.00     0.091 C 
ENDROOT
BRANCH   1   7
ATOM      7  O   LIG d   1      -7.570  74.213 116.503  0.00  0.00    -0.368 OA
BRANCH   7   8
ATOM      8  C   LIG d   1      -7.725  72.846 116.958  0.00  0.00     0.119 C 
BRANCH   8   9
ATOM      9  C   LIG d   1      -6.476  72.064 116.509  0.00  0.00     0.028 C 
ATOM     10  C   LIG d   1      -6.070  72.387 115.061  0.00  0.00     0.006 C 
ENDBRANCH   8   9
BRANCH   8  11
ATOM     11  C   LIG d   1      -8.905  72.159 116.264  0.00  0.00     0.028 C 
ATOM     12  C   LIG d   1      -9.428  70.942 117.044  0.00  0.00     0.006 C 
ENDBRANCH   8  11
ENDBRANCH   7   8
ENDBRANCH   1   7
BRANCH   6  13
ATOM     13  N   LIG d   1      -5.084  75.432 117.693  0.00  0.00    -0.311 N 
ATOM     14  C   LIG d   1      -4.116  75.106 116.838  0.00  0.00     0.210 C 
ATOM     15  C   LIG d   1      -2.943  74.335 117.452  0.00  0.00     0.109 C 
ATOM     16  O   LIG d   1      -4.103  75.409 115.636  0.00  0.00    -0.276 OA
ATOM     17  H   LIG d   1      -4.998  75.174 118.657  0.00  0.00     0.149 HD
ENDBRANCH   6  13
BRANCH   5  18
ATOM     18  N   LIG d   1      -5.410  78.469 117.761  0.00  0.00     0.381 N 
ATOM     19  H   LIG d   1      -5.307  78.569 116.771  0.00  0.00    -0.090 HD
ATOM     20  H   LIG d   1      -4.544  78.122 118.134  0.00  0.00    -0.090 HD
ATOM     21  H   LIG d   1      -5.626  79.351 118.170  0.00  0.00    -0.090 HD
ENDBRANCH   5  18
BRANCH   3  22
ATOM     22  C   LIG d   1     -10.144  77.807 118.056  0.00  0.00     0.382 C 
ATOM     23  O   LIG d   1     -11.103  77.052 118.349  0.00  0.00    -0.241 OA
ATOM     24  O   LIG d   1     -10.331  79.036 117.985  0.00  0.00    -0.241 OA
ENDBRANCH   3  22
TORSDOF 7
ENDMDL
MODEL 2
REMARK VINA RESULT:      -5.4      1.308      2.198
REMARK  7 active torsions:
REMARK  status: ('A' for Active; 'I' for Inactive)
REMARK    1  A    between atoms: C_2  and  C_3 
REMARK    2  A    between atoms: C_3  and  O_6 
REMARK    3  A    between atoms: C_3  and  C_4 
REMARK    4  A    between atoms: C_7  and  O_6 
REMARK    5  A    between atoms: C_9  and  C_10 
REMARK    6  A    between atoms: N_15  and  C_14 
REMARK    7  A    between atoms: N_20  and  C_19 
REMARK       I    between atoms: C_22  and  N_20 
ROOT
ATOM      1  C   LIG d   1      -6.522  75.062 118.082  0.00  0.00     0.161 C 
ATOM      2  C   LIG d   1      -7.869  75.401 117.875  0.00  0.00     0.016 C 
ATOM      3  C   LIG d   1      -8.311  76.723 117.636  0.00  0.00     0.038 C 
ATOM      4  C   LIG d   1      -7.411  77.780 117.435  0.00  0.00     0.028 C 
ATOM      5  C   LIG d   1      -6.071  77.576 118.134  0.00  0.00    -0.047 C 
ATOM      6  C   LIG d   1      -5.515  76.184 117.756  0.00  0.00     0.091 C 
ENDROOT
BRANCH   1   7
ATOM      7  O   LIG d   1      -6.200  73.869 117.340  0.00  0.00    -0.368 OA
BRANCH   7   8
ATOM      8  C   LIG d   1      -6.800  73.753 116.026  0.00  0.00     0.119 C 
BRANCH   8   9
ATOM      9  C   LIG d   1      -7.300  72.303 115.872  0.00  0.00     0.028 C 
ATOM     10  C   LIG d   1      -8.779  72.147 116.263  0.00  0.00     0.006 C 
ENDBRANCH   8   9
BRANCH   8  11
ATOM     11  C   LIG d   1      -5.760  73.944 114.919  0.00  0.00     0.028 C 
ATOM     12  C   LIG d   1      -5.825  75.338 114.274  0.00  0.00     0.006 C 
ENDBRANCH   8  11
ENDBRANCH   7   8
ENDBRANCH   1   7
BRANCH   6  13
ATOM     13  N   LIG d   1      -4.246  75.870 118.463  0.00  0.00    -0.311 N 
ATOM     14  C   LIG d   1      -3.124  75.523 117.835  0.00  0.00     0.210 C 
ATOM     15  C   LIG d   1      -1.936  75.221 118.755  0.00  0.00     0.109 C 
ATOM     16  O   LIG d   1      -2.990  75.467 116.604  0.00  0.00    -0.276 OA
ATOM     17  H   LIG d   1      -4.257  75.921 119.463  0.00  0.00     0.149 HD
ENDBRANCH   6  13
BRANCH   5  18
ATOM     18  N   LIG d   1      -5.184  78.683 117.728  0.00  0.00     0.381 N 
ATOM     19  H   LIG d   1      -5.732  79.459 117.416  0.00  0.00    -0.090 HD
ATOM     20  H   LIG d   1      -4.609  78.375 116.964  0.00  0.00    -0.090 HD
ATOM     21  H   LIG d   1      -4.611  78.959 118.495  0.00  0.00    -0.090 HD
ENDBRANCH   5  18
BRANCH   3  22
ATOM     22  C   LIG d   1      -9.669  77.004 117.635  0.00  0.00     0.382 C 
ATOM     23  O   LIG d   1     -10.063  78.190 117.748  0.00  0.00    -0.241 OA
ATOM     24  O   LIG d   1     -10.505  76.083 117.568  0.00  0.00    -0.241 OA
ENDBRANCH   3  22
TORSDOF 7
ENDMDL
MODEL 3
REMARK VINA RESULT:      -5.0      3.852      5.854
REMARK  7 active torsions:
REMARK  status: ('A' for Active; 'I' for Inactive)
REMARK    1  A    between atoms: C_2  and  C_3 
REMARK    2  A    between atoms: C_3  and  O_6 
REMARK    3  A    between atoms: C_3  and  C_4 
REMARK    4  A    between atoms: C_7  and  O_6 
REMARK    5  A    between atoms: C_9  and  C_10 
REMARK    6  A    between atoms: N_15  and  C_14 
REMARK    7  A    between atoms: N_20  and  C_19 
REMARK       I    between atoms: C_22  and  N_20 
ROOT
ATOM      1  C   LIG d   1      -3.946  75.095 116.639  0.00  0.00     0.161 C 
ATOM      2  C   LIG d   1      -4.721  73.954 116.907  0.00  0.00     0.016 C 
ATOM      3  C   LIG d   1      -5.715  73.465 116.028  0.00  0.00     0.038 C 
ATOM      4  C   LIG d   1      -5.898  74.000 114.744  0.00  0.00     0.028 C 
ATOM      5  C   LIG d   1      -5.486  75.464 114.634  0.00  0.00    -0.047 C 
ATOM      6  C   LIG d   1      -4.054  75.626 115.195  0.00  0.00     0.091 C 
ENDROOT
BRANCH   1   7
ATOM      7  O   LIG d   1      -2.568  74.839 116.977  0.00  0.00    -0.368 OA
BRANCH   7   8
ATOM      8  C   LIG d   1      -1.977  75.728 117.957  0.00  0.00     0.119 C 
BRANCH   8   9
ATOM      9  C   LIG d   1      -0.615  76.188 117.402  0.00  0.00     0.028 C 
ATOM     10  C   LIG d   1      -0.366  75.689 115.969  0.00  0.00     0.006 C 
ENDBRANCH   8   9
BRANCH   8  11
ATOM     11  C   LIG d   1      -1.655  74.987 119.258  0.00  0.00     0.028 C 
ATOM     12  C   LIG d   1      -0.981  73.626 119.018  0.00  0.00     0.006 C 
ENDBRANCH   8  11
ENDBRANCH   7   8
ENDBRANCH   1   7
BRANCH   6  13
ATOM     13  N   LIG d   1      -3.605  77.043 115.202  0.00  0.00    -0.311 N 
ATOM     14  C   LIG d   1      -2.902  77.594 114.214  0.00  0.00     0.210 C 
ATOM     15  C   LIG d   1      -2.524  79.062 114.430  0.00  0.00     0.109 C 
ATOM     16  O   LIG d   1      -2.582  77.015 113.165  0.00  0.00    -0.276 OA
ATOM     17  H   LIG d   1      -3.848  77.594 116.001  0.00  0.00     0.149 HD
ENDBRANCH   6  13
BRANCH   5  18
ATOM     18  N   LIG d   1      -5.598  75.853 113.215  0.00  0.00     0.381 N 
ATOM     19  H   LIG d   1      -6.545  76.099 113.005  0.00  0.00    -0.090 HD
ATOM     20  H   LIG d   1      -5.341  75.069 112.642  0.00  0.00    -0.090 HD
ATOM     21  H   LIG d   1      -4.997  76.624 113.024  0.00  0.00    -0.090 HD
ENDBRANCH   5  18
BRANCH   3  22
ATOM     22  C   LIG d   1      -6.566  72.454 116.448  0.00  0.00     0.382 C 
ATOM     23  O   LIG d   1      -6.588  72.114 117.655  0.00  0.00    -0.241 OA
ATOM     24  O   LIG d   1      -7.280  71.848 115.626  0.00  0.00    -0.241 OA
ENDBRANCH   3  22
TORSDOF 7
ENDMDL
MODEL 4
REMARK VINA RESULT:      -5.0      2.086      3.098
REMARK  7 active torsions:
REMARK  status: ('A' for Active; 'I' for Inactive)
REMARK    1  A    between atoms: C_2  and  C_3 
REMARK    2  A    between atoms: C_3  and  O_6 
REMARK    3  A    between atoms: C_3  and  C_4 
REMARK    4  A    between atoms: C_7  and  O_6 
REMARK    5  A    between atoms: C_9  and  C_10 
REMARK    6  A    between atoms: N_15  and  C_14 
REMARK    7  A    between atoms: N_20  and  C_19 
REMARK       I    between atoms: C_22  and  N_20 
ROOT
ATOM      1  C   LIG d   1      -6.465  76.828 116.813  0.00  0.00     0.161 C 
ATOM      2  C   LIG d   1      -7.835  76.524 116.871  0.00  0.00     0.016 C 
ATOM      3  C   LIG d   1      -8.779  77.313 117.567  0.00  0.00     0.038 C 
ATOM      4  C   LIG d   1      -8.437  78.552 118.131  0.00  0.00     0.028 C 
ATOM      5  C   LIG d   1      -6.969  78.651 118.531  0.00  0.00    -0.047 C 
ATOM      6  C   LIG d   1      -6.092  78.233 117.328  0.00  0.00     0.091 C 
ENDROOT
BRANCH   1   7
ATOM      7  O   LIG d   1      -5.979  76.642 115.469  0.00  0.00    -0.368 OA
BRANCH   7   8
ATOM      8  C   LIG d   1      -5.076  75.528 115.266  0.00  0.00     0.119 C 
BRANCH   8   9
ATOM      9  C   LIG d   1      -3.993  75.986 114.270  0.00  0.00     0.028 C 
ATOM     10  C   LIG d   1      -2.569  75.754 114.803  0.00  0.00     0.006 C 
ENDBRANCH   8   9
BRANCH   8  11
ATOM     11  C   LIG d   1      -5.783  74.353 114.584  0.00  0.00     0.028 C 
ATOM     12  C   LIG d   1      -6.275  73.293 115.582  0.00  0.00     0.006 C 
ENDBRANCH   8  11
ENDBRANCH   7   8
ENDBRANCH   1   7
BRANCH   6  13
ATOM     13  N   LIG d   1      -4.644  78.221 117.660  0.00  0.00    -0.311 N 
ATOM     14  C   LIG d   1      -3.703  78.709 116.854  0.00  0.00     0.210 C 
ATOM     15  C   LIG d   1      -2.269  78.578 117.379  0.00  0.00     0.109 C 
ATOM     16  O   LIG d   1      -3.921  79.266 115.767  0.00  0.00    -0.276 OA
ATOM     17  H   LIG d   1      -4.380  77.816 118.537  0.00  0.00     0.149 HD
ENDBRANCH   6  13
BRANCH   5  18
ATOM     18  N   LIG d   1      -6.721  80.035 118.975  0.00  0.00     0.381 N 
ATOM     19  H   LIG d   1      -6.218  80.029 119.840  0.00  0.00    -0.090 HD
ATOM     20  H   LIG d   1      -7.603  80.491 119.127  0.00  0.00    -0.090 HD
ATOM     21  H   LIG d   1      -6.199  80.527 118.283  0.00  0.00    -0.090 HD
ENDBRANCH   5  18
BRANCH   3  22
ATOM     22  C   LIG d   1     -10.073  76.846 117.739  0.00  0.00     0.382 C 
ATOM     23  O   LIG d   1     -10.369  75.678 117.389  0.00  0.00    -0.241 OA
ATOM     24  O   LIG d   1     -10.958  77.591 118.199  0.00  0.00    -0.241 OA
ENDBRANCH   3  22
TORSDOF 7
ENDMDL
MODEL 5
REMARK VINA RESULT:      -5.0      2.328      4.493
REMARK  7 active torsions:
REMARK  status: ('A' for Active; 'I' for Inactive)
REMARK    1  A    between atoms: C_2  and  C_3 
REMARK    2  A    between atoms: C_3  and  O_6 
REMARK    3  A    between atoms: C_3  and  C_4 
REMARK    4  A    between atoms: C_7  and  O_6 
REMARK    5  A    between atoms: C_9  and  C_10 
REMARK    6  A    between atoms: N_15  and  C_14 
REMARK    7  A    between atoms: N_20  and  C_19 
REMARK       I    between atoms: C_22  and  N_20 
ROOT
ATOM      1  C   LIG d   1      -5.436  74.778 117.220  0.00  0.00     0.161 C 
ATOM      2  C   LIG d   1      -6.439  73.839 116.929  0.00  0.00     0.016 C 
ATOM      3  C   LIG d   1      -7.817  74.153 116.908  0.00  0.00     0.038 C 
ATOM      4  C   LIG d   1      -8.279  75.473 117.030  0.00  0.00     0.028 C 
ATOM      5  C   LIG d   1      -7.339  76.372 117.826  0.00  0.00    -0.047 C 
ATOM      6  C   LIG d   1      -5.912  76.245 117.246  0.00  0.00     0.091 C 
ENDROOT
BRANCH   1   7
ATOM      7  O   LIG d   1      -4.339  74.623 116.298  0.00  0.00    -0.368 OA
BRANCH   7   8
ATOM      8  C   LIG d   1      -4.257  75.603 115.234  0.00  0.00     0.119 C 
BRANCH   8   9
ATOM      9  C   LIG d   1      -4.753  74.926 113.942  0.00  0.00     0.028 C 
ATOM     10  C   LIG d   1      -5.750  75.802 113.165  0.00  0.00     0.006 C 
ENDBRANCH   8   9
BRANCH   8  11
ATOM     11  C   LIG d   1      -2.805  76.000 114.953  0.00  0.00     0.028 C 
ATOM     12  C   LIG d   1      -2.662  77.468 114.521  0.00  0.00     0.006 C 
ENDBRANCH   8  11
ENDBRANCH   7   8
ENDBRANCH   1   7
BRANCH   6  13
ATOM     13  N   LIG d   1      -4.914  77.029 118.020  0.00  0.00    -0.311 N 
ATOM     14  C   LIG d   1      -4.546  78.268 117.699  0.00  0.00     0.210 C 
ATOM     15  C   LIG d   1      -3.488  78.887 118.619  0.00  0.00     0.109 C 
ATOM     16  O   LIG d   1      -5.019  78.925 116.760  0.00  0.00    -0.276 OA
ATOM     17  H   LIG d   1      -4.503  76.583 118.816  0.00  0.00     0.149 HD
ENDBRANCH   6  13
BRANCH   5  18
ATOM     18  N   LIG d   1      -7.872  77.746 117.757  0.00  0.00     0.381 N 
ATOM     19  H   LIG d   1      -7.307  78.298 117.142  0.00  0.00    -0.090 HD
ATOM     20  H   LIG d   1      -7.834  78.156 118.673  0.00  0.00    -0.090 HD
ATOM     21  H   LIG d   1      -8.813  77.731 117.430  0.00  0.00    -0.090 HD
ENDBRANCH   5  18
BRANCH   3  22
ATOM     22  C   LIG d   1      -8.753  73.136 116.804  0.00  0.00     0.382 C 
ATOM     23  O   LIG d   1      -8.529  72.152 116.059  0.00  0.00    -0.241 OA
ATOM     24  O   LIG d   1      -9.838  73.210 117.412  0.00  0.00    -0.241 OA
ENDBRANCH   3  22
TORSDOF 7
ENDMDL
MODEL 6
REMARK VINA RESULT:      -4.9      2.563      5.679
REMARK  7 active torsions:
REMARK  status: ('A' for Active; 'I' for Inactive)
REMARK    1  A    between atoms: C_2  and  C_3 
REMARK    2  A    between atoms: C_3  and  O_6 
REMARK    3  A    between atoms: C_3  and  C_4 
REMARK    4  A    between atoms: C_7  and  O_6 
REMARK    5  A    between atoms: C_9  and  C_10 
REMARK    6  A    between atoms: N_15  and  C_14 
REMARK    7  A    between atoms: N_20  and  C_19 
REMARK       I    between atoms: C_22  and  N_20 
ROOT
ATOM      1  C   LIG d   1      -4.971  75.836 115.694  0.00  0.00     0.161 C 
ATOM      2  C   LIG d   1      -5.416  74.571 115.276  0.00  0.00     0.016 C 
ATOM      3  C   LIG d   1      -6.544  73.921 115.827  0.00  0.00     0.038 C 
ATOM      4  C   LIG d   1      -7.399  74.563 116.736  0.00  0.00     0.028 C 
ATOM      5  C   LIG d   1      -6.706  75.642 117.561  0.00  0.00    -0.047 C 
ATOM      6  C   LIG d   1      -5.955  76.599 116.606  0.00  0.00     0.091 C 
ENDROOT
BRANCH   1   7
ATOM      7  O   LIG d   1      -4.628  76.638 114.547  0.00  0.00    -0.368 OA
BRANCH   7   8
ATOM      8  C   LIG d   1      -3.229  76.645 114.169  0.00  0.00     0.119 C 
BRANCH   8   9
ATOM      9  C   LIG d   1      -2.414  76.221 115.407  0.00  0.00     0.028 C 
ATOM     10  C   LIG d   1      -1.181  75.379 115.037  0.00  0.00     0.006 C 
ENDBRANCH   8   9
BRANCH   8  11
ATOM     11  C   LIG d   1      -2.750  78.060 113.833  0.00  0.00     0.028 C 
ATOM     12  C   LIG d   1      -2.656  78.967 115.069  0.00  0.00     0.006 C 
ENDBRANCH   8  11
ENDBRANCH   7   8
ENDBRANCH   1   7
BRANCH   6  13
ATOM     13  N   LIG d   1      -5.181  77.636 117.336  0.00  0.00    -0.311 N 
ATOM     14  C   LIG d   1      -5.659  78.847 117.615  0.00  0.00     0.210 C 
ATOM     15  C   LIG d   1      -4.688  79.770 118.358  0.00  0.00     0.109 C 
ATOM     16  O   LIG d   1      -6.806  79.234 117.346  0.00  0.00    -0.276 OA
ATOM     17  H   LIG d   1      -4.251  77.396 117.619  0.00  0.00     0.149 HD
ENDBRANCH   6  13
BRANCH   5  18
ATOM     18  N   LIG d   1      -7.739  76.321 118.365  0.00  0.00     0.381 N 
ATOM     19  H   LIG d   1      -8.501  75.695 118.536  0.00  0.00    -0.090 HD
ATOM     20  H   LIG d   1      -8.089  77.109 117.847  0.00  0.00    -0.090 HD
ATOM     21  H   LIG d   1      -7.351  76.629 119.230  0.00  0.00    -0.090 HD
ENDBRANCH   5  18
BRANCH   3  22
ATOM     22  C   LIG d   1      -6.804  72.599 115.500  0.00  0.00     0.382 C 
ATOM     23  O   LIG d   1      -7.802  72.017 115.988  0.00  0.00    -0.241 OA
ATOM     24  O   LIG d   1      -6.028  71.968 114.757  0.00  0.00    -0.241 OA
ENDBRANCH   3  22
TORSDOF 7
ENDMDL
MODEL 7
REMARK VINA RESULT:      -4.6     17.528     20.647
REMARK  7 active torsions:
REMARK  status: ('A' for Active; 'I' for Inactive)
REMARK    1  A    between atoms: C_2  and  C_3 
REMARK    2  A    between atoms: C_3  and  O_6 
REMARK    3  A    between atoms: C_3  and  C_4 
REMARK    4  A    between atoms: C_7  and  O_6 
REMARK    5  A    between atoms: C_9  and  C_10 
REMARK    6  A    between atoms: N_15  and  C_14 
REMARK    7  A    between atoms: N_20  and  C_19 
REMARK       I    between atoms: C_22  and  N_20 
ROOT
ATOM      1  C   LIG d   1       0.513  57.704 118.641  0.00  0.00     0.161 C 
ATOM      2  C   LIG d   1       1.812  57.189 118.501  0.00  0.00     0.016 C 
ATOM      3  C   LIG d   1       2.106  55.806 118.501  0.00  0.00     0.038 C 
ATOM      4  C   LIG d   1       1.094  54.834 118.489  0.00  0.00     0.028 C 
ATOM      5  C   LIG d   1      -0.204  55.302 119.137  0.00  0.00    -0.047 C 
ATOM      6  C   LIG d   1      -0.614  56.658 118.517  0.00  0.00     0.091 C 
ENDROOT
BRANCH   1   7
ATOM      7  O   LIG d   1       0.308  58.775 117.699  0.00  0.00    -0.368 OA
BRANCH   7   8
ATOM      8  C   LIG d   1      -0.080  58.381 116.360  0.00  0.00     0.119 C 
BRANCH   8   9
ATOM      9  C   LIG d   1       1.128  58.630 115.435  0.00  0.00     0.028 C 
ATOM     10  C   LIG d   1       1.034  59.976 114.697  0.00  0.00     0.006 C 
ENDBRANCH   8   9
BRANCH   8  11
ATOM     11  C   LIG d   1      -1.198  59.276 115.816  0.00  0.00     0.028 C 
ATOM     12  C   LIG d   1      -1.963  60.013 116.927  0.00  0.00     0.006 C 
ENDBRANCH   8  11
ENDBRANCH   7   8
ENDBRANCH   1   7
BRANCH   6  13
ATOM     13  N   LIG d   1      -1.829  57.228 119.155  0.00  0.00    -0.311 N 
ATOM     14  C   LIG d   1      -3.069  56.919 118.777  0.00  0.00     0.210 C 
ATOM     15  C   LIG d   1      -4.179  57.635 119.553  0.00  0.00     0.109 C 
ATOM     16  O   LIG d   1      -3.355  56.096 117.895  0.00  0.00    -0.276 OA
ATOM     17  H   LIG d   1      -1.690  57.881 119.901  0.00  0.00     0.149 HD
ENDBRANCH   6  13
BRANCH   5  18
ATOM     18  N   LIG d   1      -1.211  54.244 118.932  0.00  0.00     0.381 N 
ATOM     19  H   LIG d   1      -1.620  53.991 119.810  0.00  0.00    -0.090 HD
ATOM     20  H   LIG d   1      -0.758  53.433 118.550  0.00  0.00    -0.090 HD
ATOM     21  H   LIG d   1      -1.919  54.563 118.308  0.00  0.00    -0.090 HD
ENDBRANCH   5  18
BRANCH   3  22
ATOM     22  C   LIG d   1       3.425  55.383 118.553  0.00  0.00     0.382 C 
ATOM     23  O   LIG d   1       4.353  56.227 118.582  0.00  0.00    -0.241 OA
ATOM     24  O   LIG d   1       3.701  54.169 118.526  0.00  0.00    -0.241 OA
ENDBRANCH   3  22
TORSDOF 7
ENDMDL
MODEL 8
REMARK VINA RESULT:      -4.5      2.335      5.345
REMARK  7 active torsions:
REMARK  status: ('A' for Active; 'I' for Inactive)
REMARK    1  A    between atoms: C_2  and  C_3 
REMARK    2  A    between atoms: C_3  and  O_6 
REMARK    3  A    between atoms: C_3  and  C_4 
REMARK    4  A    between atoms: C_7  and  O_6 
REMARK    5  A    between atoms: C_9  and  C_10 
REMARK    6  A    between atoms: N_15  and  C_14 
REMARK    7  A    between atoms: N_20  and  C_19 
REMARK       I    between atoms: C_22  and  N_20 
ROOT
ATOM      1  C   LIG d   1      -5.174  75.804 115.800  0.00  0.00     0.161 C 
ATOM      2  C   LIG d   1      -3.996  75.490 115.100  0.00  0.00     0.016 C 
ATOM      3  C   LIG d   1      -2.860  76.331 115.072  0.00  0.00     0.038 C 
ATOM      4  C   LIG d   1      -2.769  77.480 115.871  0.00  0.00     0.028 C 
ATOM      5  C   LIG d   1      -4.123  78.099 116.200  0.00  0.00    -0.047 C 
ATOM      6  C   LIG d   1      -5.052  77.000 116.766  0.00  0.00     0.091 C 
ENDROOT
BRANCH   1   7
ATOM      7  O   LIG d   1      -5.650  74.639 116.501  0.00  0.00    -0.368 OA
BRANCH   7   8
ATOM      8  C   LIG d   1      -6.909  74.088 116.041  0.00  0.00     0.119 C 
BRANCH   8   9
ATOM      9  C   LIG d   1      -7.933  74.259 117.180  0.00  0.00     0.028 C 
ATOM     10  C   LIG d   1      -7.265  74.345 118.562  0.00  0.00     0.006 C 
ENDBRANCH   8   9
BRANCH   8  11
ATOM     11  C   LIG d   1      -6.806  72.577 115.812  0.00  0.00     0.028 C 
ATOM     12  C   LIG d   1      -8.113  71.835 116.133  0.00  0.00     0.006 C 
ENDBRANCH   8  11
ENDBRANCH   7   8
ENDBRANCH   1   7
BRANCH   6  13
ATOM     13  N   LIG d   1      -6.425  77.502 117.036  0.00  0.00    -0.311 N 
ATOM     14  C   LIG d   1      -6.815  77.969 118.221  0.00  0.00     0.210 C 
ATOM     15  C   LIG d   1      -8.278  78.418 118.289  0.00  0.00     0.109 C 
ATOM     16  O   LIG d   1      -6.079  78.085 119.213  0.00  0.00    -0.276 OA
ATOM     17  H   LIG d   1      -7.078  77.473 116.278  0.00  0.00     0.149 HD
ENDBRANCH   6  13
BRANCH   5  18
ATOM     18  N   LIG d   1      -3.890  79.204 117.148  0.00  0.00     0.381 N 
ATOM     19  H   LIG d   1      -3.074  79.015 117.695  0.00  0.00    -0.090 HD
ATOM     20  H   LIG d   1      -4.677  79.271 117.770  0.00  0.00    -0.090 HD
ATOM     21  H   LIG d   1      -3.776  80.060 116.652  0.00  0.00    -0.090 HD
ENDBRANCH   5  18
BRANCH   3  22
ATOM     22  C   LIG d   1      -1.815  76.045 114.207  0.00  0.00     0.382 C 
ATOM     23  O   LIG d   1      -1.197  74.957 114.308  0.00  0.00    -0.241 OA
ATOM     24  O   LIG d   1      -1.453  76.879 113.356  0.00  0.00    -0.241 OA
ENDBRANCH   3  22
TORSDOF 7
ENDMDL
MODEL 9
REMARK VINA RESULT:      -4.5      1.950      2.508
REMARK  7 active torsions:
REMARK  status: ('A' for Active; 'I' for Inactive)
REMARK    1  A    between atoms: C_2  and  C_3 
REMARK    2  A    between atoms: C_3  and  O_6 
REMARK    3  A    between atoms: C_3  and  C_4 
REMARK    4  A    between atoms: C_7  and  O_6 
REMARK    5  A    between atoms: C_9  and  C_10 
REMARK    6  A    between atoms: N_15  and  C_14 
REMARK    7  A    between atoms: N_20  and  C_19 
REMARK       I    between atoms: C_22  and  N_20 
ROOT
ATOM      1  C   LIG d   1      -6.034  76.803 117.469  0.00  0.00     0.161 C 
ATOM      2  C   LIG d   1      -6.966  77.825 117.713  0.00  0.00     0.016 C 
ATOM      3  C   LIG d   1      -6.616  79.193 117.796  0.00  0.00     0.038 C 
ATOM      4  C   LIG d   1      -5.326  79.648 117.489  0.00  0.00     0.028 C 
ATOM      5  C   LIG d   1      -4.241  78.604 117.732  0.00  0.00    -0.047 C 
ATOM      6  C   LIG d   1      -4.640  77.291 117.021  0.00  0.00     0.091 C 
ENDROOT
BRANCH   1   7
ATOM      7  O   LIG d   1      -6.570  75.872 116.508  0.00  0.00    -0.368 OA
BRANCH   7   8
ATOM      8  C   LIG d   1      -6.755  74.512 116.973  0.00  0.00     0.119 C 
BRANCH   8   9
ATOM      9  C   LIG d   1      -6.520  73.576 115.772  0.00  0.00     0.028 C 
ATOM     10  C   LIG d   1      -5.569  74.187 114.729  0.00  0.00     0.006 C 
ENDBRANCH   8   9
BRANCH   8  11
ATOM     11  C   LIG d   1      -8.203  74.262 117.405  0.00  0.00     0.028 C 
ATOM     12  C   LIG d   1      -8.803  72.997 116.772  0.00  0.00     0.006 C 
ENDBRANCH   8  11
ENDBRANCH   7   8
ENDBRANCH   1   7
BRANCH   6  13
ATOM     13  N   LIG d   1      -3.674  76.191 117.278  0.00  0.00    -0.311 N 
ATOM     14  C   LIG d   1      -2.656  75.906 116.468  0.00  0.00     0.210 C 
ATOM     15  C   LIG d   1      -1.793  74.719 116.908  0.00  0.00     0.109 C 
ATOM     16  O   LIG d   1      -2.367  76.542 115.443  0.00  0.00    -0.276 OA
ATOM     17  H   LIG d   1      -3.816  75.643 118.104  0.00  0.00     0.149 HD
ENDBRANCH   6  13
BRANCH   5  18
ATOM     18  N   LIG d   1      -2.967  79.163 117.242  0.00  0.00     0.381 N 
ATOM     19  H   LIG d   1      -2.252  78.464 117.283  0.00  0.00    -0.090 HD
ATOM     20  H   LIG d   1      -2.696  79.926 117.837  0.00  0.00    -0.090 HD
ATOM     21  H   LIG d   1      -3.073  79.485 116.305  0.00  0.00    -0.090 HD
ENDBRANCH   5  18
BRANCH   3  22
ATOM     22  C   LIG d   1      -7.555  80.117 118.230  0.00  0.00     0.382 C 
ATOM     23  O   LIG d   1      -8.627  80.266 117.595  0.00  0.00    -0.241 OA
ATOM     24  O   LIG d   1      -7.324  80.834 119.221  0.00  0.00    -0.241 OA
ENDBRANCH   3  22
TORSDOF 7
ENDMDL
