MODEL 1
REMARK VINA RESULT:      -5.7      0.000      0.000
REMARK  7 active torsions:
REMARK  status: ('A' for Active; 'I' for Inactive)
REMARK    1  A    between atoms: C_2  and  C_3 
REMARK    2  A    between atoms: C_3  and  O_6 
REMARK    3  A    between atoms: C_3  and  C_4 
REMARK    4  A    between atoms: C_7  and  O_6 
REMARK    5  A    between atoms: C_9  and  C_10 
REMARK    6  A    between atoms: N_15  and  C_14 
REMARK    7  A    between atoms: N_20  and  C_19 
REMARK       I    between atoms: C_22  and  N_20 
ROOT
ATOM      1  C   LIG d   1      -5.726  77.865 117.155  0.00  0.00     0.161 C 
ATOM      2  C   LIG d   1      -5.676  76.565 116.626  0.00  0.00     0.016 C 
ATOM      3  C   LIG d   1      -6.802  75.714 116.544  0.00  0.00     0.038 C 
ATOM      4  C   LIG d   1      -8.095  76.164 116.850  0.00  0.00     0.028 C 
ATOM      5  C   LIG d   1      -8.116  77.303 117.863  0.00  0.00    -0.047 C 
ATOM      6  C   LIG d   1      -7.150  78.413 117.391  0.00  0.00     0.091 C 
ENDROOT
BRANCH   1   7
ATOM      7  O   LIG d   1      -4.977  78.764 116.315  0.00  0.00    -0.368 OA
BRANCH   7   8
ATOM      8  C   LIG d   1      -3.613  79.033 116.725  0.00  0.00     0.119 C 
BRANCH   8   9
ATOM      9  C   LIG d   1      -3.600  80.410 117.416  0.00  0.00     0.028 C 
ATOM     10  C   LIG d   1      -3.432  80.300 118.941  0.00  0.00     0.006 C 
ENDBRANCH   8   9
BRANCH   8  11
ATOM     11  C   LIG d   1      -2.685  79.177 115.515  0.00  0.00     0.028 C 
ATOM     12  C   LIG d   1      -2.477  80.641 115.095  0.00  0.00     0.006 C 
ENDBRANCH   8  11
ENDBRANCH   7   8
ENDBRANCH   1   7
BRANCH   6  13
ATOM     13  N   LIG d   1      -7.046  79.528 118.368  0.00  0.00    -0.311 N 
ATOM     14  C   LIG d   1      -7.307  80.797 118.062  0.00  0.00     0.210 C 
ATOM     15  C   LIG d   1      -7.120  81.792 119.212  0.00  0.00     0.109 C 
ATOM     16  O   LIG d   1      -7.708  81.190 116.955  0.00  0.00    -0.276 OA
ATOM     17  H   LIG d   1      -6.758  79.294 119.298  0.00  0.00     0.149 HD
ENDBRANCH   6  13
BRANCH   5  18
ATOM     18  N   LIG d   1      -9.512  77.765 117.985  0.00  0.00     0.381 N 
ATOM     19  H   LIG d   1      -9.528  78.743 118.196  0.00  0.00    -0.090 HD
ATOM     20  H   LIG d   1      -9.952  77.272 118.743  0.00  0.00    -0.090 HD
ATOM     21  H   LIG d   1     -10.004  77.592 117.136  0.00  0.00    -0.090 HD
ENDBRANCH   5  18
BRANCH   3  22
ATOM     22  C   LIG d   1      -6.634  74.384 116.190  0.00  0.00     0.382 C 
ATOM     23  O   LIG d   1      -7.269  73.488 116.797  0.00  0.00    -0.241 OA
ATOM     24  O   LIG d   1      -5.822  74.064 115.301  0.00  0.00    -0.241 OA
ENDBRANCH   3  22
TORSDOF 7
ENDMDL
MODEL 2
REMARK VINA RESULT:      -5.4      2.582      4.492
REMARK  7 active torsions:
REMARK  status: ('A' for Active; 'I' for Inactive)
REMARK    1  A    between atoms: C_2  and  C_3 
REMARK    2  A    between atoms: C_3  and  O_6 
REMARK    3  A    between atoms: C_3  and  C_4 
REMARK    4  A    between atoms: C_7  and  O_6 
REMARK    5  A    between atoms: C_9  and  C_10 
REMARK    6  A    between atoms: N_15  and  C_14 
REMARK    7  A    between atoms: N_20  and  C_19 
REMARK       I    between atoms: C_22  and  N_20 
ROOT
ATOM      1  C   LIG d   1      -5.929  77.759 116.853  0.00  0.00     0.161 C 
ATOM      2  C   LIG d   1      -7.280  77.739 117.240  0.00  0.00     0.016 C 
ATOM      3  C   LIG d   1      -8.088  76.580 117.185  0.00  0.00     0.038 C 
ATOM      4  C   LIG d   1      -7.556  75.319 116.881  0.00  0.00     0.028 C 
ATOM      5  C   LIG d   1      -6.314  75.382 115.997  0.00  0.00    -0.047 C 
ATOM      6  C   LIG d   1      -5.302  76.368 116.624  0.00  0.00     0.091 C 
ENDROOT
BRANCH   1   7
ATOM      7  O   LIG d   1      -5.157  78.505 117.814  0.00  0.00    -0.368 OA
BRANCH   7   8
ATOM      8  C   LIG d   1      -4.997  79.919 117.544  0.00  0.00     0.119 C 
BRANCH   8   9
ATOM      9  C   LIG d   1      -3.486  80.198 117.417  0.00  0.00     0.028 C 
ATOM     10  C   LIG d   1      -2.982  80.054 115.972  0.00  0.00     0.006 C 
ENDBRANCH   8   9
BRANCH   8  11
ATOM     11  C   LIG d   1      -5.469  80.770 118.726  0.00  0.00     0.028 C 
ATOM     12  C   LIG d   1      -6.913  81.268 118.563  0.00  0.00     0.006 C 
ENDBRANCH   8  11
ENDBRANCH   7   8
ENDBRANCH   1   7
BRANCH   6  13
ATOM     13  N   LIG d   1      -4.094  76.553 115.779  0.00  0.00    -0.311 N 
ATOM     14  C   LIG d   1      -2.963  75.871 115.956  0.00  0.00     0.210 C 
ATOM     15  C   LIG d   1      -1.833  76.231 114.987  0.00  0.00     0.109 C 
ATOM     16  O   LIG d   1      -2.801  74.980 116.803  0.00  0.00    -0.276 OA
ATOM     17  H   LIG d   1      -4.149  77.235 115.048  0.00  0.00     0.149 HD
ENDBRANCH   6  13
BRANCH   5  18
ATOM     18  N   LIG d   1      -5.785  74.011 115.873  0.00  0.00     0.381 N 
ATOM     19  H   LIG d   1      -4.823  74.042 115.599  0.00  0.00    -0.090 HD
ATOM     20  H   LIG d   1      -6.301  73.527 115.159  0.00  0.00    -0.090 HD
ATOM     21  H   LIG d   1      -5.875  73.531 116.741  0.00  0.00    -0.090 HD
ENDBRANCH   5  18
BRANCH   3  22
ATOM     22  C   LIG d   1      -9.454  76.685 117.399  0.00  0.00     0.382 C 
ATOM     23  O   LIG d   1     -10.206  75.717 117.130  0.00  0.00    -0.241 OA
ATOM     24  O   LIG d   1      -9.949  77.749 117.815  0.00  0.00    -0.241 OA
ENDBRANCH   3  22
TORSDOF 7
ENDMDL
MODEL 3
REMARK VINA RESULT:      -5.4      2.255      4.097
REMARK  7 active torsions:
REMARK  status: ('A' for Active; 'I' for Inactive)
REMARK    1  A    between atoms: C_2  and  C_3 
REMARK    2  A    between atoms: C_3  and  O_6 
REMARK    3  A    between atoms: C_3  and  C_4 
REMARK    4  A    between atoms: C_7  and  O_6 
REMARK    5  A    between atoms: C_9  and  C_10 
REMARK    6  A    between atoms: N_15  and  C_14 
REMARK    7  A    between atoms: N_20  and  C_19 
REMARK       I    between atoms: C_22  and  N_20 
ROOT
ATOM      1  C   LIG d   1      -5.812  77.600 117.128  0.00  0.00     0.161 C 
ATOM      2  C   LIG d   1      -7.155  77.187 117.141  0.00  0.00     0.016 C 
ATOM      3  C   LIG d   1      -8.218  78.015 117.569  0.00  0.00     0.038 C 
ATOM      4  C   LIG d   1      -8.027  79.371 117.873  0.00  0.00     0.028 C 
ATOM      5  C   LIG d   1      -6.616  79.689 118.358  0.00  0.00    -0.047 C 
ATOM      6  C   LIG d   1      -5.597  79.111 117.350  0.00  0.00     0.091 C 
ENDROOT
BRANCH   1   7
ATOM      7  O   LIG d   1      -5.184  77.180 115.900  0.00  0.00    -0.368 OA
BRANCH   7   8
ATOM      8  C   LIG d   1      -4.625  75.843 115.895  0.00  0.00     0.119 C 
BRANCH   8   9
ATOM      9  C   LIG d   1      -3.152  75.959 115.456  0.00  0.00     0.028 C 
ATOM     10  C   LIG d   1      -2.224  76.356 116.617  0.00  0.00     0.006 C 
ENDBRANCH   8   9
BRANCH   8  11
ATOM     11  C   LIG d   1      -5.295  74.963 114.835  0.00  0.00     0.028 C 
ATOM     12  C   LIG d   1      -5.273  75.596 113.435  0.00  0.00     0.006 C 
ENDBRANCH   8  11
ENDBRANCH   7   8
ENDBRANCH   1   7
BRANCH   6  13
ATOM     13  N   LIG d   1      -4.191  79.305 117.792  0.00  0.00    -0.311 N 
ATOM     14  C   LIG d   1      -3.274  79.938 117.062  0.00  0.00     0.210 C 
ATOM     15  C   LIG d   1      -1.881  80.010 117.695  0.00  0.00     0.109 C 
ATOM     16  O   LIG d   1      -3.490  80.475 115.965  0.00  0.00    -0.276 OA
ATOM     17  H   LIG d   1      -3.937  78.929 118.684  0.00  0.00     0.149 HD
ENDBRANCH   6  13
BRANCH   5  18
ATOM     18  N   LIG d   1      -6.516  81.154 118.506  0.00  0.00     0.381 N 
ATOM     19  H   LIG d   1      -6.549  81.399 119.476  0.00  0.00    -0.090 HD
ATOM     20  H   LIG d   1      -7.301  81.581 118.046  0.00  0.00    -0.090 HD
ATOM     21  H   LIG d   1      -5.667  81.480 118.102  0.00  0.00    -0.090 HD
ENDBRANCH   5  18
BRANCH   3  22
ATOM     22  C   LIG d   1      -9.485  77.475 117.735  0.00  0.00     0.382 C 
ATOM     23  O   LIG d   1      -9.715  76.294 117.377  0.00  0.00    -0.241 OA
ATOM     24  O   LIG d   1     -10.411  78.167 118.197  0.00  0.00    -0.241 OA
ENDBRANCH   3  22
TORSDOF 7
ENDMDL
MODEL 4
REMARK VINA RESULT:      -5.2      3.804      6.761
REMARK  7 active torsions:
REMARK  status: ('A' for Active; 'I' for Inactive)
REMARK    1  A    between atoms: C_2  and  C_3 
REMARK    2  A    between atoms: C_3  and  O_6 
REMARK    3  A    between atoms: C_3  and  C_4 
REMARK    4  A    between atoms: C_7  and  O_6 
REMARK    5  A    between atoms: C_9  and  C_10 
REMARK    6  A    between atoms: N_15  and  C_14 
REMARK    7  A    between atoms: N_20  and  C_19 
REMARK       I    between atoms: C_22  and  N_20 
ROOT
ATOM      1  C   LIG d   1      -3.157  77.189 117.018  0.00  0.00     0.161 C 
ATOM      2  C   LIG d   1      -3.415  78.194 116.071  0.00  0.00     0.016 C 
ATOM      3  C   LIG d   1      -2.470  78.621 115.111  0.00  0.00     0.038 C 
ATOM      4  C   LIG d   1      -1.244  77.962 114.933  0.00  0.00     0.028 C 
ATOM      5  C   LIG d   1      -0.738  77.273 116.196  0.00  0.00    -0.047 C 
ATOM      6  C   LIG d   1      -1.865  76.382 116.768  0.00  0.00     0.091 C 
ENDROOT
BRANCH   1   7
ATOM      7  O   LIG d   1      -4.290  76.304 117.113  0.00  0.00    -0.368 OA
BRANCH   7   8
ATOM      8  C   LIG d   1      -5.444  76.658 116.312  0.00  0.00     0.119 C 
BRANCH   8   9
ATOM      9  C   LIG d   1      -6.653  76.760 117.262  0.00  0.00     0.028 C 
ATOM     10  C   LIG d   1      -7.239  78.181 117.316  0.00  0.00     0.006 C 
ENDBRANCH   8   9
BRANCH   8  11
ATOM     11  C   LIG d   1      -5.799  75.544 115.323  0.00  0.00     0.028 C 
ATOM     12  C   LIG d   1      -5.031  75.660 113.996  0.00  0.00     0.006 C 
ENDBRANCH   8  11
ENDBRANCH   7   8
ENDBRANCH   1   7
BRANCH   6  13
ATOM     13  N   LIG d   1      -1.482  75.737 118.050  0.00  0.00    -0.311 N 
ATOM     14  C   LIG d   1      -1.013  74.493 118.134  0.00  0.00     0.210 C 
ATOM     15  C   LIG d   1      -0.698  74.015 119.555  0.00  0.00     0.109 C 
ATOM     16  O   LIG d   1      -0.796  73.752 117.163  0.00  0.00    -0.276 OA
ATOM     17  H   LIG d   1      -1.596  76.278 118.885  0.00  0.00     0.149 HD
ENDBRANCH   6  13
BRANCH   5  18
ATOM     18  N   LIG d   1       0.472  76.512 115.834  0.00  0.00     0.381 N 
ATOM     19  H   LIG d   1       1.004  77.024 115.159  0.00  0.00    -0.090 HD
ATOM     20  H   LIG d   1       0.196  75.638 115.422  0.00  0.00    -0.090 HD
ATOM     21  H   LIG d   1       1.025  76.345 116.646  0.00  0.00    -0.090 HD
ENDBRANCH   5  18
BRANCH   3  22
ATOM     22  C   LIG d   1      -2.730  79.745 114.342  0.00  0.00     0.382 C 
ATOM     23  O   LIG d   1      -2.691  79.671 113.090  0.00  0.00    -0.241 OA
ATOM     24  O   LIG d   1      -2.961  80.842 114.885  0.00  0.00    -0.241 OA
ENDBRANCH   3  22
TORSDOF 7
ENDMDL
MODEL 5
REMARK VINA RESULT:      -4.9      2.737      4.536
REMARK  7 active torsions:
REMARK  status: ('A' for Active; 'I' for Inactive)
REMARK    1  A    between atoms: C_2  and  C_3 
REMARK    2  A    between atoms: C_3  and  O_6 
REMARK    3  A    between atoms: C_3  and  C_4 
REMARK    4  A    between atoms: C_7  and  O_6 
REMARK    5  A    between atoms: C_9  and  C_10 
REMARK    6  A    between atoms: N_15  and  C_14 
REMARK    7  A    between atoms: N_20  and  C_19 
REMARK       I    between atoms: C_22  and  N_20 
ROOT
ATOM      1  C   LIG d   1      -4.642  77.846 116.823  0.00  0.00     0.161 C 
ATOM      2  C   LIG d   1      -5.912  78.281 117.235  0.00  0.00     0.016 C 
ATOM      3  C   LIG d   1      -7.065  77.463 117.199  0.00  0.00     0.038 C 
ATOM      4  C   LIG d   1      -6.995  76.097 116.889  0.00  0.00     0.028 C 
ATOM      5  C   LIG d   1      -5.822  75.741 115.982  0.00  0.00    -0.047 C 
ATOM      6  C   LIG d   1      -4.525  76.326 116.587  0.00  0.00     0.091 C 
ENDROOT
BRANCH   1   7
ATOM      7  O   LIG d   1      -3.645  78.284 117.768  0.00  0.00    -0.368 OA
BRANCH   7   8
ATOM      8  C   LIG d   1      -2.634  79.185 117.255  0.00  0.00     0.119 C 
BRANCH   8   9
ATOM      9  C   LIG d   1      -2.096  80.003 118.445  0.00  0.00     0.028 C 
ATOM     10  C   LIG d   1      -3.219  80.502 119.370  0.00  0.00     0.006 C 
ENDBRANCH   8   9
BRANCH   8  11
ATOM     11  C   LIG d   1      -3.239  80.215 116.296  0.00  0.00     0.028 C 
ATOM     12  C   LIG d   1      -2.493  80.289 114.954  0.00  0.00     0.006 C 
ENDBRANCH   8  11
ENDBRANCH   7   8
ENDBRANCH   1   7
BRANCH   6  13
ATOM     13  N   LIG d   1      -3.341  76.096 115.718  0.00  0.00    -0.311 N 
ATOM     14  C   LIG d   1      -2.259  75.427 116.116  0.00  0.00     0.210 C 
ATOM     15  C   LIG d   1      -1.144  75.322 115.071  0.00  0.00     0.109 C 
ATOM     16  O   LIG d   1      -2.130  74.884 117.223  0.00  0.00    -0.276 OA
ATOM     17  H   LIG d   1      -3.373  76.476 114.793  0.00  0.00     0.149 HD
ENDBRANCH   6  13
BRANCH   5  18
ATOM     18  N   LIG d   1      -5.788  74.272 115.851  0.00  0.00     0.381 N 
ATOM     19  H   LIG d   1      -5.614  73.857 116.744  0.00  0.00    -0.090 HD
ATOM     20  H   LIG d   1      -5.038  74.018 115.233  0.00  0.00    -0.090 HD
ATOM     21  H   LIG d   1      -6.655  73.943 115.487  0.00  0.00    -0.090 HD
ENDBRANCH   5  18
BRANCH   3  22
ATOM     22  C   LIG d   1      -8.312  78.021 117.438  0.00  0.00     0.382 C 
ATOM     23  O   LIG d   1      -8.433  79.266 117.534  0.00  0.00    -0.241 OA
ATOM     24  O   LIG d   1      -9.309  77.293 117.602  0.00  0.00    -0.241 OA
ENDBRANCH   3  22
TORSDOF 7
ENDMDL
MODEL 6
REMARK VINA RESULT:      -4.7      3.538      7.109
REMARK  7 active torsions:
REMARK  status: ('A' for Active; 'I' for Inactive)
REMARK    1  A    between atoms: C_2  and  C_3 
REMARK    2  A    between atoms: C_3  and  O_6 
REMARK    3  A    between atoms: C_3  and  C_4 
REMARK    4  A    between atoms: C_7  and  O_6 
REMARK    5  A    between atoms: C_9  and  C_10 
REMARK    6  A    between atoms: N_15  and  C_14 
REMARK    7  A    between atoms: N_20  and  C_19 
REMARK       I    between atoms: C_22  and  N_20 
ROOT
ATOM      1  C   LIG d   1      -3.219  78.327 116.031  0.00  0.00     0.161 C 
ATOM      2  C   LIG d   1      -3.199  79.550 115.340  0.00  0.00     0.016 C 
ATOM      3  C   LIG d   1      -2.008  80.218 114.975  0.00  0.00     0.038 C 
ATOM      4  C   LIG d   1      -0.746  79.629 115.144  0.00  0.00     0.028 C 
ATOM      5  C   LIG d   1      -0.695  78.625 116.291  0.00  0.00    -0.047 C 
ATOM      6  C   LIG d   1      -1.854  77.615 116.125  0.00  0.00     0.091 C 
ENDROOT
BRANCH   1   7
ATOM      7  O   LIG d   1      -4.201  77.450 115.444  0.00  0.00    -0.368 OA
BRANCH   7   8
ATOM      8  C   LIG d   1      -4.944  76.616 116.366  0.00  0.00     0.119 C 
BRANCH   8   9
ATOM      9  C   LIG d   1      -5.009  75.201 115.762  0.00  0.00     0.028 C 
ATOM     10  C   LIG d   1      -4.930  75.214 114.226  0.00  0.00     0.006 C 
ENDBRANCH   8   9
BRANCH   8  11
ATOM     11  C   LIG d   1      -6.401  77.075 116.483  0.00  0.00     0.028 C 
ATOM     12  C   LIG d   1      -6.568  78.305 117.389  0.00  0.00     0.006 C 
ENDBRANCH   8  11
ENDBRANCH   7   8
ENDBRANCH   1   7
BRANCH   6  13
ATOM     13  N   LIG d   1      -1.928  76.648 117.251  0.00  0.00    -0.311 N 
ATOM     14  C   LIG d   1      -1.439  75.410 117.188  0.00  0.00     0.210 C 
ATOM     15  C   LIG d   1      -1.639  74.571 118.454  0.00  0.00     0.109 C 
ATOM     16  O   LIG d   1      -0.831  74.939 116.215  0.00  0.00    -0.276 OA
ATOM     17  H   LIG d   1      -2.377  76.958 118.091  0.00  0.00     0.149 HD
ENDBRANCH   6  13
BRANCH   5  18
ATOM     18  N   LIG d   1       0.635  77.988 116.267  0.00  0.00     0.381 N 
ATOM     19  H   LIG d   1       1.059  78.123 115.371  0.00  0.00    -0.090 HD
ATOM     20  H   LIG d   1       0.526  77.001 116.418  0.00  0.00    -0.090 HD
ATOM     21  H   LIG d   1       1.213  78.378 116.978  0.00  0.00    -0.090 HD
ENDBRANCH   5  18
BRANCH   3  22
ATOM     22  C   LIG d   1      -2.070  81.508 114.470  0.00  0.00     0.382 C 
ATOM     23  O   LIG d   1      -1.025  82.195 114.374  0.00  0.00    -0.241 OA
ATOM     24  O   LIG d   1      -3.165  82.009 114.150  0.00  0.00    -0.241 OA
ENDBRANCH   3  22
TORSDOF 7
ENDMDL
MODEL 7
REMARK VINA RESULT:      -4.7     10.126     12.762
REMARK  7 active torsions:
REMARK  status: ('A' for Active; 'I' for Inactive)
REMARK    1  A    between atoms: C_2  and  C_3 
REMARK    2  A    between atoms: C_3  and  O_6 
REMARK    3  A    between atoms: C_3  and  C_4 
REMARK    4  A    between atoms: C_7  and  O_6 
REMARK    5  A    between atoms: C_9  and  C_10 
REMARK    6  A    between atoms: N_15  and  C_14 
REMARK    7  A    between atoms: N_20  and  C_19 
REMARK       I    between atoms: C_22  and  N_20 
ROOT
ATOM      1  C   LIG d   1       1.154  86.951 115.328  0.00  0.00     0.161 C 
ATOM      2  C   LIG d   1       0.106  86.869 116.260  0.00  0.00     0.016 C 
ATOM      3  C   LIG d   1      -0.022  87.741 117.365  0.00  0.00     0.038 C 
ATOM      4  C   LIG d   1       0.812  88.858 117.529  0.00  0.00     0.028 C 
ATOM      5  C   LIG d   1       2.187  88.685 116.894  0.00  0.00    -0.047 C 
ATOM      6  C   LIG d   1       2.009  88.232 115.427  0.00  0.00     0.091 C 
ENDROOT
BRANCH   1   7
ATOM      7  O   LIG d   1       0.633  86.800 113.992  0.00  0.00    -0.368 OA
BRANCH   7   8
ATOM      8  C   LIG d   1       1.074  85.627 113.265  0.00  0.00     0.119 C 
BRANCH   8   9
ATOM      9  C   LIG d   1      -0.184  84.841 112.847  0.00  0.00     0.028 C 
ATOM     10  C   LIG d   1      -0.642  83.847 113.927  0.00  0.00     0.006 C 
ENDBRANCH   8   9
BRANCH   8  11
ATOM     11  C   LIG d   1       1.864  84.675 114.169  0.00  0.00     0.028 C 
ATOM     12  C   LIG d   1       3.247  84.323 113.599  0.00  0.00     0.006 C 
ENDBRANCH   8  11
ENDBRANCH   7   8
ENDBRANCH   1   7
BRANCH   6  13
ATOM     13  N   LIG d   1       3.308  87.958 114.757  0.00  0.00    -0.311 N 
ATOM     14  C   LIG d   1       3.592  88.359 113.519  0.00  0.00     0.210 C 
ATOM     15  C   LIG d   1       4.980  87.955 113.012  0.00  0.00     0.109 C 
ATOM     16  O   LIG d   1       2.840  89.039 112.805  0.00  0.00    -0.276 OA
ATOM     17  H   LIG d   1       3.988  87.439 115.276  0.00  0.00     0.149 HD
ENDBRANCH   6  13
BRANCH   5  18
ATOM     18  N   LIG d   1       2.900  89.971 117.019  0.00  0.00     0.381 N 
ATOM     19  H   LIG d   1       3.276  90.061 117.942  0.00  0.00    -0.090 HD
ATOM     20  H   LIG d   1       2.248  90.720 116.869  0.00  0.00    -0.090 HD
ATOM     21  H   LIG d   1       3.635  90.020 116.348  0.00  0.00    -0.090 HD
ENDBRANCH   5  18
BRANCH   3  22
ATOM     22  C   LIG d   1      -0.968  87.477 118.344  0.00  0.00     0.382 C 
ATOM     23  O   LIG d   1      -0.644  87.509 119.555  0.00  0.00    -0.241 OA
ATOM     24  O   LIG d   1      -2.132  87.163 118.028  0.00  0.00    -0.241 OA
ENDBRANCH   3  22
TORSDOF 7
ENDMDL
MODEL 8
REMARK VINA RESULT:      -4.7      8.599     11.187
REMARK  7 active torsions:
REMARK  status: ('A' for Active; 'I' for Inactive)
REMARK    1  A    between atoms: C_2  and  C_3 
REMARK    2  A    between atoms: C_3  and  O_6 
REMARK    3  A    between atoms: C_3  and  C_4 
REMARK    4  A    between atoms: C_7  and  O_6 
REMARK    5  A    between atoms: C_9  and  C_10 
REMARK    6  A    between atoms: N_15  and  C_14 
REMARK    7  A    between atoms: N_20  and  C_19 
REMARK       I    between atoms: C_22  and  N_20 
ROOT
ATOM      1  C   LIG d   1       0.434  86.032 113.850  0.00  0.00     0.161 C 
ATOM      2  C   LIG d   1      -0.478  84.966 113.922  0.00  0.00     0.016 C 
ATOM      3  C   LIG d   1      -0.100  83.608 113.810  0.00  0.00     0.038 C 
ATOM      4  C   LIG d   1       1.246  83.215 113.770  0.00  0.00     0.028 C 
ATOM      5  C   LIG d   1       2.171  84.278 113.188  0.00  0.00    -0.047 C 
ATOM      6  C   LIG d   1       1.919  85.617 113.918  0.00  0.00     0.091 C 
ENDROOT
BRANCH   1   7
ATOM      7  O   LIG d   1       0.137  87.000 114.875  0.00  0.00    -0.368 OA
BRANCH   7   8
ATOM      8  C   LIG d   1      -0.021  86.478 116.218  0.00  0.00     0.119 C 
BRANCH   8   9
ATOM      9  C   LIG d   1      -1.361  87.007 116.765  0.00  0.00     0.028 C 
ATOM     10  C   LIG d   1      -1.269  87.417 118.244  0.00  0.00     0.006 C 
ENDBRANCH   8   9
BRANCH   8  11
ATOM     11  C   LIG d   1       1.050  87.034 117.161  0.00  0.00     0.028 C 
ATOM     12  C   LIG d   1       2.119  85.992 117.529  0.00  0.00     0.006 C 
ENDBRANCH   8  11
ENDBRANCH   7   8
ENDBRANCH   1   7
BRANCH   6  13
ATOM     13  N   LIG d   1       2.724  86.731 113.352  0.00  0.00    -0.311 N 
ATOM     14  C   LIG d   1       3.866  87.157 113.889  0.00  0.00     0.210 C 
ATOM     15  C   LIG d   1       4.525  88.331 113.159  0.00  0.00     0.109 C 
ATOM     16  O   LIG d   1       4.412  86.653 114.882  0.00  0.00    -0.276 OA
ATOM     17  H   LIG d   1       2.370  87.176 112.528  0.00  0.00     0.149 HD
ENDBRANCH   6  13
BRANCH   5  18
ATOM     18  N   LIG d   1       3.556  83.791 113.333  0.00  0.00     0.381 N 
ATOM     19  H   LIG d   1       3.951  83.620 112.430  0.00  0.00    -0.090 HD
ATOM     20  H   LIG d   1       3.545  82.925 113.842  0.00  0.00    -0.090 HD
ATOM     21  H   LIG d   1       4.104  84.465 113.821  0.00  0.00    -0.090 HD
ENDBRANCH   5  18
BRANCH   3  22
ATOM     22  C   LIG d   1      -1.076  82.630 113.697  0.00  0.00     0.382 C 
ATOM     23  O   LIG d   1      -1.954  82.720 112.805  0.00  0.00    -0.241 OA
ATOM     24  O   LIG d   1      -1.117  81.682 114.505  0.00  0.00    -0.241 OA
ENDBRANCH   3  22
TORSDOF 7
ENDMDL
MODEL 9
REMARK VINA RESULT:      -4.6     11.604     14.473
REMARK  7 active torsions:
REMARK  status: ('A' for Active; 'I' for Inactive)
REMARK    1  A    between atoms: C_2  and  C_3 
REMARK    2  A    between atoms: C_3  and  O_6 
REMARK    3  A    between atoms: C_3  and  C_4 
REMARK    4  A    between atoms: C_7  and  O_6 
REMARK    5  A    between atoms: C_9  and  C_10 
REMARK    6  A    between atoms: N_15  and  C_14 
REMARK    7  A    between atoms: N_20  and  C_19 
REMARK       I    between atoms: C_22  and  N_20 
ROOT
ATOM      1  C   LIG d   1       1.826  88.788 116.146  0.00  0.00     0.161 C 
ATOM      2  C   LIG d   1       0.501  88.853 116.609  0.00  0.00     0.016 C 
ATOM      3  C   LIG d   1      -0.048  89.993 117.240  0.00  0.00     0.038 C 
ATOM      4  C   LIG d   1       0.651  91.206 117.317  0.00  0.00     0.028 C 
ATOM      5  C   LIG d   1       2.166  91.034 117.316  0.00  0.00    -0.047 C 
ATOM      6  C   LIG d   1       2.569  90.140 116.121  0.00  0.00     0.091 C 
ENDROOT
BRANCH   1   7
ATOM      7  O   LIG d   1       1.858  88.174 114.843  0.00  0.00    -0.368 OA
BRANCH   7   8
ATOM      8  C   LIG d   1       1.937  86.727 114.821  0.00  0.00     0.119 C 
BRANCH   8   9
ATOM      9  C   LIG d   1       3.298  86.346 114.208  0.00  0.00     0.028 C 
ATOM     10  C   LIG d   1       3.614  87.149 112.935  0.00  0.00     0.006 C 
ENDBRANCH   8   9
BRANCH   8  11
ATOM     11  C   LIG d   1       0.887  86.126 113.883  0.00  0.00     0.028 C 
ATOM     12  C   LIG d   1      -0.479  85.935 114.560  0.00  0.00     0.006 C 
ENDBRANCH   8  11
ENDBRANCH   7   8
ENDBRANCH   1   7
BRANCH   6  13
ATOM     13  N   LIG d   1       4.026  89.852 116.094  0.00  0.00    -0.311 N 
ATOM     14  C   LIG d   1       4.787  90.015 115.013  0.00  0.00     0.210 C 
ATOM     15  C   LIG d   1       6.261  89.640 115.196  0.00  0.00     0.109 C 
ATOM     16  O   LIG d   1       4.387  90.465 113.929  0.00  0.00    -0.276 OA
ATOM     17  H   LIG d   1       4.439  89.512 116.941  0.00  0.00     0.149 HD
ENDBRANCH   6  13
BRANCH   5  18
ATOM     18  N   LIG d   1       2.768  92.380 117.259  0.00  0.00     0.381 N 
ATOM     19  H   LIG d   1       3.747  92.322 117.458  0.00  0.00    -0.090 HD
ATOM     20  H   LIG d   1       2.338  92.958 117.960  0.00  0.00    -0.090 HD
ATOM     21  H   LIG d   1       2.627  92.779 116.357  0.00  0.00    -0.090 HD
ENDBRANCH   5  18
BRANCH   3  22
ATOM     22  C   LIG d   1      -1.296  89.912 117.839  0.00  0.00     0.382 C 
ATOM     23  O   LIG d   1      -2.157  90.798 117.616  0.00  0.00    -0.241 OA
ATOM     24  O   LIG d   1      -1.557  88.990 118.635  0.00  0.00    -0.241 OA
ENDBRANCH   3  22
TORSDOF 7
ENDMDL
