MODEL 1
REMARK VINA RESULT:      -5.3      0.000      0.000
REMARK  7 active torsions:
REMARK  status: ('A' for Active; 'I' for Inactive)
REMARK    1  A    between atoms: C_2  and  C_3 
REMARK    2  A    between atoms: C_3  and  O_6 
REMARK    3  A    between atoms: C_3  and  C_4 
REMARK    4  A    between atoms: C_7  and  O_6 
REMARK    5  A    between atoms: C_9  and  C_10 
REMARK    6  A    between atoms: N_15  and  C_14 
REMARK    7  A    between atoms: N_20  and  C_19 
REMARK       I    between atoms: C_22  and  N_20 
ROOT
ATOM      1  C   LIG d   1      -4.047  90.706 117.008  0.00  0.00     0.161 C 
ATOM      2  C   LIG d   1      -5.133  90.162 116.303  0.00  0.00     0.016 C 
ATOM      3  C   LIG d   1      -6.338  90.864 116.067  0.00  0.00     0.038 C 
ATOM      4  C   LIG d   1      -6.481  92.221 116.393  0.00  0.00     0.028 C 
ATOM      5  C   LIG d   1      -5.598  92.662 117.555  0.00  0.00    -0.047 C 
ATOM      6  C   LIG d   1      -4.142  92.223 117.274  0.00  0.00     0.091 C 
ENDROOT
BRANCH   1   7
ATOM      7  O   LIG d   1      -2.816  90.393 116.326  0.00  0.00    -0.368 OA
BRANCH   7   8
ATOM      8  C   LIG d   1      -1.743  89.878 117.152  0.00  0.00     0.119 C 
BRANCH   8   9
ATOM      9  C   LIG d   1      -0.416  90.389 116.559  0.00  0.00     0.028 C 
ATOM     10  C   LIG d   1       0.758  89.437 116.840  0.00  0.00     0.006 C 
ENDBRANCH   8   9
BRANCH   8  11
ATOM     11  C   LIG d   1      -1.662  88.351 117.070  0.00  0.00     0.028 C 
ATOM     12  C   LIG d   1      -1.831  87.671 118.439  0.00  0.00     0.006 C 
ENDBRANCH   8  11
ENDBRANCH   7   8
ENDBRANCH   1   7
BRANCH   6  13
ATOM     13  N   LIG d   1      -3.227  92.540 118.401  0.00  0.00    -0.311 N 
ATOM     14  C   LIG d   1      -2.134  93.291 118.268  0.00  0.00     0.210 C 
ATOM     15  C   LIG d   1      -1.319  93.478 119.552  0.00  0.00     0.109 C 
ATOM     16  O   LIG d   1      -1.780  93.846 117.217  0.00  0.00    -0.276 OA
ATOM     17  H   LIG d   1      -3.456  92.157 119.297  0.00  0.00     0.149 HD
ENDBRANCH   6  13
BRANCH   5  18
ATOM     18  N   LIG d   1      -5.744  94.122 117.698  0.00  0.00     0.381 N 
ATOM     19  H   LIG d   1      -6.714  94.365 117.723  0.00  0.00    -0.090 HD
ATOM     20  H   LIG d   1      -5.328  94.570 116.900  0.00  0.00    -0.090 HD
ATOM     21  H   LIG d   1      -5.295  94.430 118.532  0.00  0.00    -0.090 HD
ENDBRANCH   5  18
BRANCH   3  22
ATOM     22  C   LIG d   1      -7.430  90.196 115.535  0.00  0.00     0.382 C 
ATOM     23  O   LIG d   1      -7.910  89.203 116.134  0.00  0.00    -0.241 OA
ATOM     24  O   LIG d   1      -7.913  90.545 114.442  0.00  0.00    -0.241 OA
ENDBRANCH   3  22
TORSDOF 7
ENDMDL
MODEL 2
REMARK VINA RESULT:      -5.3     27.333     29.646
REMARK  7 active torsions:
REMARK  status: ('A' for Active; 'I' for Inactive)
REMARK    1  A    between atoms: C_2  and  C_3 
REMARK    2  A    between atoms: C_3  and  O_6 
REMARK    3  A    between atoms: C_3  and  C_4 
REMARK    4  A    between atoms: C_7  and  O_6 
REMARK    5  A    between atoms: C_9  and  C_10 
REMARK    6  A    between atoms: N_15  and  C_14 
REMARK    7  A    between atoms: N_20  and  C_19 
REMARK       I    between atoms: C_22  and  N_20 
ROOT
ATOM      1  C   LIG d   1     -16.227  64.638 116.132  0.00  0.00     0.161 C 
ATOM      2  C   LIG d   1     -16.152  66.013 115.854  0.00  0.00     0.016 C 
ATOM      3  C   LIG d   1     -15.515  66.946 116.705  0.00  0.00     0.038 C 
ATOM      4  C   LIG d   1     -14.773  66.542 117.825  0.00  0.00     0.028 C 
ATOM      5  C   LIG d   1     -15.245  65.219 118.419  0.00  0.00    -0.047 C 
ATOM      6  C   LIG d   1     -15.327  64.164 117.293  0.00  0.00     0.091 C 
ENDROOT
BRANCH   1   7
ATOM      7  O   LIG d   1     -15.945  63.882 114.938  0.00  0.00    -0.368 OA
BRANCH   7   8
ATOM      8  C   LIG d   1     -17.087  63.283 114.279  0.00  0.00     0.119 C 
BRANCH   8   9
ATOM      9  C   LIG d   1     -17.794  64.393 113.477  0.00  0.00     0.028 C 
ATOM     10  C   LIG d   1     -19.269  64.558 113.878  0.00  0.00     0.006 C 
ENDBRANCH   8   9
BRANCH   8  11
ATOM     11  C   LIG d   1     -18.123  62.793 115.295  0.00  0.00     0.028 C 
ATOM     12  C   LIG d   1     -18.189  61.261 115.387  0.00  0.00     0.006 C 
ENDBRANCH   8  11
ENDBRANCH   7   8
ENDBRANCH   1   7
BRANCH   6  13
ATOM     13  N   LIG d   1     -15.862  62.863 117.773  0.00  0.00    -0.311 N 
ATOM     14  C   LIG d   1     -15.089  61.836 118.122  0.00  0.00     0.210 C 
ATOM     15  C   LIG d   1     -15.844  60.580 118.569  0.00  0.00     0.109 C 
ATOM     16  O   LIG d   1     -13.849  61.856 118.133  0.00  0.00    -0.276 OA
ATOM     17  H   LIG d   1     -16.858  62.770 117.824  0.00  0.00     0.149 HD
ENDBRANCH   6  13
BRANCH   5  18
ATOM     18  N   LIG d   1     -14.301  64.849 119.490  0.00  0.00     0.381 N 
ATOM     19  H   LIG d   1     -13.374  64.786 119.118  0.00  0.00    -0.090 HD
ATOM     20  H   LIG d   1     -14.558  63.948 119.853  0.00  0.00    -0.090 HD
ATOM     21  H   LIG d   1     -14.329  65.529 120.219  0.00  0.00    -0.090 HD
ENDBRANCH   5  18
BRANCH   3  22
ATOM     22  C   LIG d   1     -15.650  68.304 116.460  0.00  0.00     0.382 C 
ATOM     23  O   LIG d   1     -15.109  68.816 115.450  0.00  0.00    -0.241 OA
ATOM     24  O   LIG d   1     -16.269  69.031 117.259  0.00  0.00    -0.241 OA
ENDBRANCH   3  22
TORSDOF 7
ENDMDL
MODEL 3
REMARK VINA RESULT:      -5.2      2.528      4.418
REMARK  7 active torsions:
REMARK  status: ('A' for Active; 'I' for Inactive)
REMARK    1  A    between atoms: C_2  and  C_3 
REMARK    2  A    between atoms: C_3  and  O_6 
REMARK    3  A    between atoms: C_3  and  C_4 
REMARK    4  A    between atoms: C_7  and  O_6 
REMARK    5  A    between atoms: C_9  and  C_10 
REMARK    6  A    between atoms: N_15  and  C_14 
REMARK    7  A    between atoms: N_20  and  C_19 
REMARK       I    between atoms: C_22  and  N_20 
ROOT
ATOM      1  C   LIG d   1      -2.511  92.323 117.755  0.00  0.00     0.161 C 
ATOM      2  C   LIG d   1      -3.768  92.734 117.281  0.00  0.00     0.016 C 
ATOM      3  C   LIG d   1      -4.649  91.884 116.573  0.00  0.00     0.038 C 
ATOM      4  C   LIG d   1      -4.394  90.513 116.422  0.00  0.00     0.028 C 
ATOM      5  C   LIG d   1      -2.909  90.167 116.444  0.00  0.00    -0.047 C 
ATOM      6  C   LIG d   1      -2.264  90.801 117.697  0.00  0.00     0.091 C 
ENDROOT
BRANCH   1   7
ATOM      7  O   LIG d   1      -2.312  92.812 119.096  0.00  0.00    -0.368 OA
BRANCH   7   8
ATOM      8  C   LIG d   1      -1.391  93.922 119.239  0.00  0.00     0.119 C 
BRANCH   8   9
ATOM      9  C   LIG d   1      -2.205  95.221 119.091  0.00  0.00     0.028 C 
ATOM     10  C   LIG d   1      -1.556  96.212 118.109  0.00  0.00     0.006 C 
ENDBRANCH   8   9
BRANCH   8  11
ATOM     11  C   LIG d   1      -0.370  93.950 118.098  0.00  0.00     0.028 C 
ATOM     12  C   LIG d   1       1.038  93.527 118.546  0.00  0.00     0.006 C 
ENDBRANCH   8  11
ENDBRANCH   7   8
ENDBRANCH   1   7
BRANCH   6  13
ATOM     13  N   LIG d   1      -0.795  90.582 117.751  0.00  0.00    -0.311 N 
ATOM     14  C   LIG d   1      -0.200  89.826 118.673  0.00  0.00     0.210 C 
ATOM     15  C   LIG d   1       1.325  89.750 118.560  0.00  0.00     0.109 C 
ATOM     16  O   LIG d   1      -0.794  89.186 119.553  0.00  0.00    -0.276 OA
ATOM     17  H   LIG d   1      -0.240  91.039 117.055  0.00  0.00     0.149 HD
ENDBRANCH   6  13
BRANCH   5  18
ATOM     18  N   LIG d   1      -2.794  88.696 116.416  0.00  0.00     0.381 N 
ATOM     19  H   LIG d   1      -1.829  88.433 116.399  0.00  0.00    -0.090 HD
ATOM     20  H   LIG d   1      -3.229  88.352 115.578  0.00  0.00    -0.090 HD
ATOM     21  H   LIG d   1      -3.239  88.304 117.216  0.00  0.00    -0.090 HD
ENDBRANCH   5  18
BRANCH   3  22
ATOM     22  C   LIG d   1      -5.781  92.414 115.972  0.00  0.00     0.382 C 
ATOM     23  O   LIG d   1      -6.714  92.863 116.680  0.00  0.00    -0.241 OA
ATOM     24  O   LIG d   1      -5.900  92.408 114.733  0.00  0.00    -0.241 OA
ENDBRANCH   3  22
TORSDOF 7
ENDMDL
MODEL 4
REMARK VINA RESULT:      -5.0      2.307      5.237
REMARK  7 active torsions:
REMARK  status: ('A' for Active; 'I' for Inactive)
REMARK    1  A    between atoms: C_2  and  C_3 
REMARK    2  A    between atoms: C_3  and  O_6 
REMARK    3  A    between atoms: C_3  and  C_4 
REMARK    4  A    between atoms: C_7  and  O_6 
REMARK    5  A    between atoms: C_9  and  C_10 
REMARK    6  A    between atoms: N_15  and  C_14 
REMARK    7  A    between atoms: N_20  and  C_19 
REMARK       I    between atoms: C_22  and  N_20 
ROOT
ATOM      1  C   LIG d   1      -5.181  91.176 117.969  0.00  0.00     0.161 C 
ATOM      2  C   LIG d   1      -5.907  92.373 118.096  0.00  0.00     0.016 C 
ATOM      3  C   LIG d   1      -5.340  93.581 118.563  0.00  0.00     0.038 C 
ATOM      4  C   LIG d   1      -3.962  93.713 118.793  0.00  0.00     0.028 C 
ATOM      5  C   LIG d   1      -3.281  92.400 119.162  0.00  0.00    -0.047 C 
ATOM      6  C   LIG d   1      -3.652  91.329 118.111  0.00  0.00     0.091 C 
ENDROOT
BRANCH   1   7
ATOM      7  O   LIG d   1      -5.507  90.537 116.720  0.00  0.00    -0.368 OA
BRANCH   7   8
ATOM      8  C   LIG d   1      -6.696  91.021 116.047  0.00  0.00     0.119 C 
BRANCH   8   9
ATOM      9  C   LIG d   1      -7.388  89.806 115.399  0.00  0.00     0.028 C 
ATOM     10  C   LIG d   1      -8.660  89.383 116.153  0.00  0.00     0.006 C 
ENDBRANCH   8   9
BRANCH   8  11
ATOM     11  C   LIG d   1      -6.339  91.952 114.885  0.00  0.00     0.028 C 
ATOM     12  C   LIG d   1      -7.275  91.784 113.678  0.00  0.00     0.006 C 
ENDBRANCH   8  11
ENDBRANCH   7   8
ENDBRANCH   1   7
BRANCH   6  13
ATOM     13  N   LIG d   1      -3.095  89.992 118.442  0.00  0.00    -0.311 N 
ATOM     14  C   LIG d   1      -2.294  89.308 117.626  0.00  0.00     0.210 C 
ATOM     15  C   LIG d   1      -1.849  87.941 118.154  0.00  0.00     0.109 C 
ATOM     16  O   LIG d   1      -1.884  89.719 116.530  0.00  0.00    -0.276 OA
ATOM     17  H   LIG d   1      -3.352  89.597 119.326  0.00  0.00     0.149 HD
ENDBRANCH   6  13
BRANCH   5  18
ATOM     18  N   LIG d   1      -1.831  92.656 119.239  0.00  0.00     0.381 N 
ATOM     19  H   LIG d   1      -1.454  92.228 120.061  0.00  0.00    -0.090 HD
ATOM     20  H   LIG d   1      -1.678  93.647 119.302  0.00  0.00    -0.090 HD
ATOM     21  H   LIG d   1      -1.377  92.294 118.430  0.00  0.00    -0.090 HD
ENDBRANCH   5  18
BRANCH   3  22
ATOM     22  C   LIG d   1      -6.161  94.663 118.842  0.00  0.00     0.382 C 
ATOM     23  O   LIG d   1      -7.401  94.567 118.678  0.00  0.00    -0.241 OA
ATOM     24  O   LIG d   1      -5.673  95.747 119.212  0.00  0.00    -0.241 OA
ENDBRANCH   3  22
TORSDOF 7
ENDMDL
MODEL 5
REMARK VINA RESULT:      -5.0     18.511     21.646
REMARK  7 active torsions:
REMARK  status: ('A' for Active; 'I' for Inactive)
REMARK    1  A    between atoms: C_2  and  C_3 
REMARK    2  A    between atoms: C_3  and  O_6 
REMARK    3  A    between atoms: C_3  and  C_4 
REMARK    4  A    between atoms: C_7  and  O_6 
REMARK    5  A    between atoms: C_9  and  C_10 
REMARK    6  A    between atoms: N_15  and  C_14 
REMARK    7  A    between atoms: N_20  and  C_19 
REMARK       I    between atoms: C_22  and  N_20 
ROOT
ATOM      1  C   LIG d   1      11.199  76.045 115.089  0.00  0.00     0.161 C 
ATOM      2  C   LIG d   1       9.934  76.649 115.188  0.00  0.00     0.016 C 
ATOM      3  C   LIG d   1       9.709  78.026 114.959  0.00  0.00     0.038 C 
ATOM      4  C   LIG d   1      10.716  78.869 114.464  0.00  0.00     0.028 C 
ATOM      5  C   LIG d   1      12.123  78.413 114.832  0.00  0.00    -0.047 C 
ATOM      6  C   LIG d   1      12.287  76.927 114.442  0.00  0.00     0.091 C 
ENDROOT
BRANCH   1   7
ATOM      7  O   LIG d   1      11.087  74.791 114.387  0.00  0.00    -0.368 OA
BRANCH   7   8
ATOM      8  C   LIG d   1      10.651  73.656 115.175  0.00  0.00     0.119 C 
BRANCH   8   9
ATOM      9  C   LIG d   1      11.559  73.580 116.418  0.00  0.00     0.028 C 
ATOM     10  C   LIG d   1      10.764  73.321 117.710  0.00  0.00     0.006 C 
ENDBRANCH   8   9
BRANCH   8  11
ATOM     11  C   LIG d   1      10.876  72.339 114.427  0.00  0.00     0.028 C 
ATOM     12  C   LIG d   1       9.737  71.329 114.643  0.00  0.00     0.006 C 
ENDBRANCH   8  11
ENDBRANCH   7   8
ENDBRANCH   1   7
BRANCH   6  13
ATOM     13  N   LIG d   1      13.608  76.377 114.845  0.00  0.00    -0.311 N 
ATOM     14  C   LIG d   1      14.660  76.324 114.029  0.00  0.00     0.210 C 
ATOM     15  C   LIG d   1      15.920  75.702 114.638  0.00  0.00     0.109 C 
ATOM     16  O   LIG d   1      14.678  76.763 112.869  0.00  0.00    -0.276 OA
ATOM     17  H   LIG d   1      13.692  76.028 115.779  0.00  0.00     0.149 HD
ENDBRANCH   6  13
BRANCH   5  18
ATOM     18  N   LIG d   1      13.075  79.302 114.139  0.00  0.00     0.381 N 
ATOM     19  H   LIG d   1      12.937  79.241 113.150  0.00  0.00    -0.090 HD
ATOM     20  H   LIG d   1      14.011  79.000 114.346  0.00  0.00    -0.090 HD
ATOM     21  H   LIG d   1      12.947  80.242 114.442  0.00  0.00    -0.090 HD
ENDBRANCH   5  18
BRANCH   3  22
ATOM     22  C   LIG d   1       8.476  78.581 115.263  0.00  0.00     0.382 C 
ATOM     23  O   LIG d   1       7.426  78.060 114.816  0.00  0.00    -0.241 OA
ATOM     24  O   LIG d   1       8.402  79.622 115.943  0.00  0.00    -0.241 OA
ENDBRANCH   3  22
TORSDOF 7
ENDMDL
MODEL 6
REMARK VINA RESULT:      -4.8     27.152     29.443
REMARK  7 active torsions:
REMARK  status: ('A' for Active; 'I' for Inactive)
REMARK    1  A    between atoms: C_2  and  C_3 
REMARK    2  A    between atoms: C_3  and  O_6 
REMARK    3  A    between atoms: C_3  and  C_4 
REMARK    4  A    between atoms: C_7  and  O_6 
REMARK    5  A    between atoms: C_9  and  C_10 
REMARK    6  A    between atoms: N_15  and  C_14 
REMARK    7  A    between atoms: N_20  and  C_19 
REMARK       I    between atoms: C_22  and  N_20 
ROOT
ATOM      1  C   LIG d   1     -16.516  65.307 116.794  0.00  0.00     0.161 C 
ATOM      2  C   LIG d   1     -15.525  64.372 117.135  0.00  0.00     0.016 C 
ATOM      3  C   LIG d   1     -15.773  62.986 117.261  0.00  0.00     0.038 C 
ATOM      4  C   LIG d   1     -17.004  62.418 116.903  0.00  0.00     0.028 C 
ATOM      5  C   LIG d   1     -18.178  63.382 117.038  0.00  0.00    -0.047 C 
ATOM      6  C   LIG d   1     -17.839  64.693 116.292  0.00  0.00     0.091 C 
ENDROOT
BRANCH   1   7
ATOM      7  O   LIG d   1     -15.996  66.238 115.824  0.00  0.00    -0.368 OA
BRANCH   7   8
ATOM      8  C   LIG d   1     -15.290  67.385 116.356  0.00  0.00     0.119 C 
BRANCH   8   9
ATOM      9  C   LIG d   1     -16.299  68.211 117.177  0.00  0.00     0.028 C 
ATOM     10  C   LIG d   1     -16.040  68.118 118.691  0.00  0.00     0.006 C 
ENDBRANCH   8   9
BRANCH   8  11
ATOM     11  C   LIG d   1     -14.818  68.319 115.237  0.00  0.00     0.028 C 
ATOM     12  C   LIG d   1     -15.134  67.774 113.835  0.00  0.00     0.006 C 
ENDBRANCH   8  11
ENDBRANCH   7   8
ENDBRANCH   1   7
BRANCH   6  13
ATOM     13  N   LIG d   1     -18.900  65.722 116.444  0.00  0.00    -0.311 N 
ATOM     14  C   LIG d   1     -19.309  66.184 117.625  0.00  0.00     0.210 C 
ATOM     15  C   LIG d   1     -20.428  67.229 117.558  0.00  0.00     0.109 C 
ATOM     16  O   LIG d   1     -18.830  65.851 118.719  0.00  0.00    -0.276 OA
ATOM     17  H   LIG d   1     -19.322  66.071 115.606  0.00  0.00     0.149 HD
ENDBRANCH   6  13
BRANCH   5  18
ATOM     18  N   LIG d   1     -19.375  62.705 116.504  0.00  0.00     0.381 N 
ATOM     19  H   LIG d   1     -19.115  62.110 115.743  0.00  0.00    -0.090 HD
ATOM     20  H   LIG d   1     -20.014  63.399 116.158  0.00  0.00    -0.090 HD
ATOM     21  H   LIG d   1     -19.812  62.169 117.221  0.00  0.00    -0.090 HD
ENDBRANCH   5  18
BRANCH   3  22
ATOM     22  C   LIG d   1     -14.793  62.158 117.787  0.00  0.00     0.382 C 
ATOM     23  O   LIG d   1     -15.119  61.140 118.444  0.00  0.00    -0.241 OA
ATOM     24  O   LIG d   1     -13.587  62.440 117.651  0.00  0.00    -0.241 OA
ENDBRANCH   3  22
TORSDOF 7
ENDMDL
MODEL 7
REMARK VINA RESULT:      -4.8     27.274     29.668
REMARK  7 active torsions:
REMARK  status: ('A' for Active; 'I' for Inactive)
REMARK    1  A    between atoms: C_2  and  C_3 
REMARK    2  A    between atoms: C_3  and  O_6 
REMARK    3  A    between atoms: C_3  and  C_4 
REMARK    4  A    between atoms: C_7  and  O_6 
REMARK    5  A    between atoms: C_9  and  C_10 
REMARK    6  A    between atoms: N_15  and  C_14 
REMARK    7  A    between atoms: N_20  and  C_19 
REMARK       I    between atoms: C_22  and  N_20 
ROOT
ATOM      1  C   LIG d   1     -16.481  65.093 116.696  0.00  0.00     0.161 C 
ATOM      2  C   LIG d   1     -15.497  64.707 117.620  0.00  0.00     0.016 C 
ATOM      3  C   LIG d   1     -15.214  63.358 117.937  0.00  0.00     0.038 C 
ATOM      4  C   LIG d   1     -15.798  62.293 117.235  0.00  0.00     0.028 C 
ATOM      5  C   LIG d   1     -17.163  62.631 116.647  0.00  0.00    -0.047 C 
ATOM      6  C   LIG d   1     -17.051  63.944 115.838  0.00  0.00     0.091 C 
ENDROOT
BRANCH   1   7
ATOM      7  O   LIG d   1     -15.972  66.144 115.851  0.00  0.00    -0.368 OA
BRANCH   7   8
ATOM      8  C   LIG d   1     -15.460  67.316 116.530  0.00  0.00     0.119 C 
BRANCH   8   9
ATOM      9  C   LIG d   1     -16.637  67.968 117.281  0.00  0.00     0.028 C 
ATOM     10  C   LIG d   1     -16.317  68.228 118.762  0.00  0.00     0.006 C 
ENDBRANCH   8   9
BRANCH   8  11
ATOM     11  C   LIG d   1     -14.981  68.374 115.532  0.00  0.00     0.028 C 
ATOM     12  C   LIG d   1     -15.041  67.889 114.075  0.00  0.00     0.006 C 
ENDBRANCH   8  11
ENDBRANCH   7   8
ENDBRANCH   1   7
BRANCH   6  13
ATOM     13  N   LIG d   1     -18.361  64.391 115.298  0.00  0.00    -0.311 N 
ATOM     14  C   LIG d   1     -18.622  64.491 113.996  0.00  0.00     0.210 C 
ATOM     15  C   LIG d   1     -20.029  64.991 113.655  0.00  0.00     0.109 C 
ATOM     16  O   LIG d   1     -17.833  64.181 113.091  0.00  0.00    -0.276 OA
ATOM     17  H   LIG d   1     -19.070  64.632 115.963  0.00  0.00     0.149 HD
ENDBRANCH   6  13
BRANCH   5  18
ATOM     18  N   LIG d   1     -17.593  61.482 115.828  0.00  0.00     0.381 N 
ATOM     19  H   LIG d   1     -18.335  60.996 116.289  0.00  0.00    -0.090 HD
ATOM     20  H   LIG d   1     -16.819  60.850 115.723  0.00  0.00    -0.090 HD
ATOM     21  H   LIG d   1     -17.897  61.796 114.932  0.00  0.00    -0.090 HD
ENDBRANCH   5  18
BRANCH   3  22
ATOM     22  C   LIG d   1     -14.368  63.064 118.996  0.00  0.00     0.382 C 
ATOM     23  O   LIG d   1     -13.516  63.906 119.370  0.00  0.00    -0.241 OA
ATOM     24  O   LIG d   1     -14.416  61.951 119.553  0.00  0.00    -0.241 OA
ENDBRANCH   3  22
TORSDOF 7
ENDMDL
MODEL 8
REMARK VINA RESULT:      -4.7      5.354      7.734
REMARK  7 active torsions:
REMARK  status: ('A' for Active; 'I' for Inactive)
REMARK    1  A    between atoms: C_2  and  C_3 
REMARK    2  A    between atoms: C_3  and  O_6 
REMARK    3  A    between atoms: C_3  and  C_4 
REMARK    4  A    between atoms: C_7  and  O_6 
REMARK    5  A    between atoms: C_9  and  C_10 
REMARK    6  A    between atoms: N_15  and  C_14 
REMARK    7  A    between atoms: N_20  and  C_19 
REMARK       I    between atoms: C_22  and  N_20 
ROOT
ATOM      1  C   LIG d   1       2.249  87.905 115.123  0.00  0.00     0.161 C 
ATOM      2  C   LIG d   1       1.038  87.696 115.803  0.00  0.00     0.016 C 
ATOM      3  C   LIG d   1       0.488  88.626 116.716  0.00  0.00     0.038 C 
ATOM      4  C   LIG d   1       1.040  89.903 116.897  0.00  0.00     0.028 C 
ATOM      5  C   LIG d   1       2.537  89.961 116.612  0.00  0.00    -0.047 C 
ATOM      6  C   LIG d   1       2.808  89.340 115.223  0.00  0.00     0.091 C 
ENDROOT
BRANCH   1   7
ATOM      7  O   LIG d   1       2.106  87.519 113.742  0.00  0.00    -0.368 OA
BRANCH   7   8
ATOM      8  C   LIG d   1       2.722  86.263 113.364  0.00  0.00     0.119 C 
BRANCH   8   9
ATOM      9  C   LIG d   1       1.660  85.159 113.525  0.00  0.00     0.028 C 
ATOM     10  C   LIG d   1       0.344  85.501 112.805  0.00  0.00     0.006 C 
ENDBRANCH   8   9
BRANCH   8  11
ATOM     11  C   LIG d   1       3.850  85.884 114.328  0.00  0.00     0.028 C 
ATOM     12  C   LIG d   1       3.700  84.462 114.891  0.00  0.00     0.006 C 
ENDBRANCH   8  11
ENDBRANCH   7   8
ENDBRANCH   1   7
BRANCH   6  13
ATOM     13  N   LIG d   1       4.258  89.280 114.902  0.00  0.00    -0.311 N 
ATOM     14  C   LIG d   1       4.768  89.682 113.739  0.00  0.00     0.210 C 
ATOM     15  C   LIG d   1       6.285  89.515 113.607  0.00  0.00     0.109 C 
ATOM     16  O   LIG d   1       4.113  90.189 112.817  0.00  0.00    -0.276 OA
ATOM     17  H   LIG d   1       4.867  88.911 115.606  0.00  0.00     0.149 HD
ENDBRANCH   6  13
BRANCH   5  18
ATOM     18  N   LIG d   1       2.954  91.373 116.705  0.00  0.00     0.381 N 
ATOM     19  H   LIG d   1       2.748  91.844 115.847  0.00  0.00    -0.090 HD
ATOM     20  H   LIG d   1       3.947  91.410 116.856  0.00  0.00    -0.090 HD
ATOM     21  H   LIG d   1       2.480  91.820 117.459  0.00  0.00    -0.090 HD
ENDBRANCH   5  18
BRANCH   3  22
ATOM     22  C   LIG d   1      -0.605  88.265 117.490  0.00  0.00     0.382 C 
ATOM     23  O   LIG d   1      -1.766  88.391 117.031  0.00  0.00    -0.241 OA
ATOM     24  O   LIG d   1      -0.447  87.857 118.656  0.00  0.00    -0.241 OA
ENDBRANCH   3  22
TORSDOF 7
ENDMDL
MODEL 9
REMARK VINA RESULT:      -4.6      3.081      6.423
REMARK  7 active torsions:
REMARK  status: ('A' for Active; 'I' for Inactive)
REMARK    1  A    between atoms: C_2  and  C_3 
REMARK    2  A    between atoms: C_3  and  O_6 
REMARK    3  A    between atoms: C_3  and  C_4 
REMARK    4  A    between atoms: C_7  and  O_6 
REMARK    5  A    between atoms: C_9  and  C_10 
REMARK    6  A    between atoms: N_15  and  C_14 
REMARK    7  A    between atoms: N_20  and  C_19 
REMARK       I    between atoms: C_22  and  N_20 
ROOT
ATOM      1  C   LIG d   1       0.297  90.942 116.412  0.00  0.00     0.161 C 
ATOM      2  C   LIG d   1       1.697  90.896 116.513  0.00  0.00     0.016 C 
ATOM      3  C   LIG d   1       2.440  91.708 117.400  0.00  0.00     0.038 C 
ATOM      4  C   LIG d   1       1.818  92.520 118.360  0.00  0.00     0.028 C 
ATOM      5  C   LIG d   1       0.420  92.976 117.953  0.00  0.00    -0.047 C 
ATOM      6  C   LIG d   1      -0.407  91.741 117.529  0.00  0.00     0.091 C 
ENDROOT
BRANCH   1   7
ATOM      7  O   LIG d   1      -0.232  89.603 116.344  0.00  0.00    -0.368 OA
BRANCH   7   8
ATOM      8  C   LIG d   1      -0.258  88.864 117.590  0.00  0.00     0.119 C 
BRANCH   8   9
ATOM      9  C   LIG d   1       0.538  87.562 117.373  0.00  0.00     0.028 C 
ATOM     10  C   LIG d   1       0.665  87.193 115.885  0.00  0.00     0.006 C 
ENDBRANCH   8   9
BRANCH   8  11
ATOM     11  C   LIG d   1      -1.680  88.416 117.942  0.00  0.00     0.028 C 
ATOM     12  C   LIG d   1      -2.676  88.635 116.793  0.00  0.00     0.006 C 
ENDBRANCH   8  11
ENDBRANCH   7   8
ENDBRANCH   1   7
BRANCH   6  13
ATOM     13  N   LIG d   1      -1.760  92.107 117.036  0.00  0.00    -0.311 N 
ATOM     14  C   LIG d   1      -2.847  92.098 117.804  0.00  0.00     0.210 C 
ATOM     15  C   LIG d   1      -4.146  92.490 117.092  0.00  0.00     0.109 C 
ATOM     16  O   LIG d   1      -2.855  91.834 119.016  0.00  0.00    -0.276 OA
ATOM     17  H   LIG d   1      -1.840  92.364 116.071  0.00  0.00     0.149 HD
ENDBRANCH   6  13
BRANCH   5  18
ATOM     18  N   LIG d   1      -0.165  93.697 119.100  0.00  0.00     0.381 N 
ATOM     19  H   LIG d   1      -0.475  93.042 119.789  0.00  0.00    -0.090 HD
ATOM     20  H   LIG d   1      -0.960  94.221 118.782  0.00  0.00    -0.090 HD
ATOM     21  H   LIG d   1       0.511  94.312 119.496  0.00  0.00    -0.090 HD
ENDBRANCH   5  18
BRANCH   3  22
ATOM     22  C   LIG d   1       3.823  91.743 117.305  0.00  0.00     0.382 C 
ATOM     23  O   LIG d   1       4.395  92.767 116.857  0.00  0.00    -0.241 OA
ATOM     24  O   LIG d   1       4.504  90.749 117.620  0.00  0.00    -0.241 OA
ENDBRANCH   3  22
TORSDOF 7
ENDMDL
