MODEL 1
REMARK VINA RESULT:      -5.1      0.000      0.000
REMARK  7 active torsions:
REMARK  status: ('A' for Active; 'I' for Inactive)
REMARK    1  A    between atoms: C_2  and  C_3 
REMARK    2  A    between atoms: C_3  and  O_6 
REMARK    3  A    between atoms: C_3  and  C_4 
REMARK    4  A    between atoms: C_7  and  O_6 
REMARK    5  A    between atoms: C_9  and  C_10 
REMARK    6  A    between atoms: N_15  and  C_14 
REMARK    7  A    between atoms: N_20  and  C_19 
REMARK       I    between atoms: C_22  and  N_20 
ROOT
ATOM      1  C   LIG d   1      -3.360  76.631 116.935  0.00  0.00     0.161 C 
ATOM      2  C   LIG d   1      -3.317  77.841 116.223  0.00  0.00     0.016 C 
ATOM      3  C   LIG d   1      -2.164  78.308 115.551  0.00  0.00     0.038 C 
ATOM      4  C   LIG d   1      -1.013  77.518 115.418  0.00  0.00     0.028 C 
ATOM      5  C   LIG d   1      -0.838  76.507 116.546  0.00  0.00    -0.047 C 
ATOM      6  C   LIG d   1      -2.149  75.703 116.707  0.00  0.00     0.091 C 
ENDROOT
BRANCH   1   7
ATOM      7  O   LIG d   1      -4.587  75.934 116.639  0.00  0.00    -0.368 OA
BRANCH   7   8
ATOM      8  C   LIG d   1      -5.384  76.477 115.557  0.00  0.00     0.119 C 
BRANCH   8   9
ATOM      9  C   LIG d   1      -6.844  76.543 116.045  0.00  0.00     0.028 C 
ATOM     10  C   LIG d   1      -7.017  77.481 117.252  0.00  0.00     0.006 C 
ENDBRANCH   8   9
BRANCH   8  11
ATOM     11  C   LIG d   1      -5.402  75.533 114.351  0.00  0.00     0.028 C 
ATOM     12  C   LIG d   1      -4.930  74.112 114.699  0.00  0.00     0.006 C 
ENDBRANCH   8  11
ENDBRANCH   7   8
ENDBRANCH   1   7
BRANCH   6  13
ATOM     13  N   LIG d   1      -2.092  74.749 117.845  0.00  0.00    -0.311 N 
ATOM     14  C   LIG d   1      -1.668  73.492 117.728  0.00  0.00     0.210 C 
ATOM     15  C   LIG d   1      -1.710  72.672 119.021  0.00  0.00     0.109 C 
ATOM     16  O   LIG d   1      -1.230  72.988 116.682  0.00  0.00    -0.276 OA
ATOM     17  H   LIG d   1      -2.400  75.084 118.737  0.00  0.00     0.149 HD
ENDBRANCH   6  13
BRANCH   5  18
ATOM     18  N   LIG d   1       0.322  75.660 116.210  0.00  0.00     0.381 N 
ATOM     19  H   LIG d   1       1.154  76.054 116.601  0.00  0.00    -0.090 HD
ATOM     20  H   LIG d   1       0.425  75.632 115.210  0.00  0.00    -0.090 HD
ATOM     21  H   LIG d   1       0.185  74.738 116.562  0.00  0.00    -0.090 HD
ENDBRANCH   5  18
BRANCH   3  22
ATOM     22  C   LIG d   1      -2.142  79.596 115.038  0.00  0.00     0.382 C 
ATOM     23  O   LIG d   1      -3.103  80.012 114.347  0.00  0.00    -0.241 OA
ATOM     24  O   LIG d   1      -1.153  80.332 115.220  0.00  0.00    -0.241 OA
ENDBRANCH   3  22
TORSDOF 7
ENDMDL
MODEL 2
REMARK VINA RESULT:      -5.0      3.711      6.987
REMARK  7 active torsions:
REMARK  status: ('A' for Active; 'I' for Inactive)
REMARK    1  A    between atoms: C_2  and  C_3 
REMARK    2  A    between atoms: C_3  and  O_6 
REMARK    3  A    between atoms: C_3  and  C_4 
REMARK    4  A    between atoms: C_7  and  O_6 
REMARK    5  A    between atoms: C_9  and  C_10 
REMARK    6  A    between atoms: N_15  and  C_14 
REMARK    7  A    between atoms: N_20  and  C_19 
REMARK       I    between atoms: C_22  and  N_20 
ROOT
ATOM      1  C   LIG d   1      -6.949  77.178 117.213  0.00  0.00     0.161 C 
ATOM      2  C   LIG d   1      -8.135  76.426 117.243  0.00  0.00     0.016 C 
ATOM      3  C   LIG d   1      -9.307  76.847 117.912  0.00  0.00     0.038 C 
ATOM      4  C   LIG d   1      -9.420  78.128 118.472  0.00  0.00     0.028 C 
ATOM      5  C   LIG d   1      -8.083  78.722 118.903  0.00  0.00    -0.047 C 
ATOM      6  C   LIG d   1      -7.089  78.627 117.724  0.00  0.00     0.091 C 
ENDROOT
BRANCH   1   7
ATOM      7  O   LIG d   1      -6.397  77.168 115.881  0.00  0.00    -0.368 OA
BRANCH   7   8
ATOM      8  C   LIG d   1      -5.270  76.283 115.664  0.00  0.00     0.119 C 
BRANCH   8   9
ATOM      9  C   LIG d   1      -4.002  77.157 115.600  0.00  0.00     0.028 C 
ATOM     10  C   LIG d   1      -3.076  76.936 116.808  0.00  0.00     0.006 C 
ENDBRANCH   8   9
BRANCH   8  11
ATOM     11  C   LIG d   1      -5.357  75.594 114.300  0.00  0.00     0.028 C 
ATOM     12  C   LIG d   1      -5.072  74.086 114.375  0.00  0.00     0.006 C 
ENDBRANCH   8  11
ENDBRANCH   7   8
ENDBRANCH   1   7
BRANCH   6  13
ATOM     13  N   LIG d   1      -5.731  79.109 118.087  0.00  0.00    -0.311 N 
ATOM     14  C   LIG d   1      -5.316  80.357 117.878  0.00  0.00     0.210 C 
ATOM     15  C   LIG d   1      -3.873  80.639 118.309  0.00  0.00     0.109 C 
ATOM     16  O   LIG d   1      -6.015  81.266 117.406  0.00  0.00    -0.276 OA
ATOM     17  H   LIG d   1      -5.108  78.446 118.504  0.00  0.00     0.149 HD
ENDBRANCH   6  13
BRANCH   5  18
ATOM     18  N   LIG d   1      -8.332  80.109 119.341  0.00  0.00     0.381 N 
ATOM     19  H   LIG d   1      -7.609  80.400 119.968  0.00  0.00    -0.090 HD
ATOM     20  H   LIG d   1      -9.208  80.143 119.831  0.00  0.00    -0.090 HD
ATOM     21  H   LIG d   1      -8.361  80.715 118.551  0.00  0.00    -0.090 HD
ENDBRANCH   5  18
BRANCH   3  22
ATOM     22  C   LIG d   1     -10.368  75.967 118.060  0.00  0.00     0.382 C 
ATOM     23  O   LIG d   1     -10.208  74.746 117.820  0.00  0.00    -0.241 OA
ATOM     24  O   LIG d   1     -11.495  76.385 118.386  0.00  0.00    -0.241 OA
ENDBRANCH   3  22
TORSDOF 7
ENDMDL
MODEL 3
REMARK VINA RESULT:      -4.6      2.838      4.069
REMARK  7 active torsions:
REMARK  status: ('A' for Active; 'I' for Inactive)
REMARK    1  A    between atoms: C_2  and  C_3 
REMARK    2  A    between atoms: C_3  and  O_6 
REMARK    3  A    between atoms: C_3  and  C_4 
REMARK    4  A    between atoms: C_7  and  O_6 
REMARK    5  A    between atoms: C_9  and  C_10 
REMARK    6  A    between atoms: N_15  and  C_14 
REMARK    7  A    between atoms: N_20  and  C_19 
REMARK       I    between atoms: C_22  and  N_20 
ROOT
ATOM      1  C   LIG d   1      -3.662  78.660 116.929  0.00  0.00     0.161 C 
ATOM      2  C   LIG d   1      -2.897  79.735 117.411  0.00  0.00     0.016 C 
ATOM      3  C   LIG d   1      -1.599  80.039 116.941  0.00  0.00     0.038 C 
ATOM      4  C   LIG d   1      -1.034  79.375 115.841  0.00  0.00     0.028 C 
ATOM      5  C   LIG d   1      -1.562  77.957 115.654  0.00  0.00    -0.047 C 
ATOM      6  C   LIG d   1      -3.108  77.993 115.652  0.00  0.00     0.091 C 
ENDROOT
BRANCH   1   7
ATOM      7  O   LIG d   1      -5.024  79.084 116.721  0.00  0.00    -0.368 OA
BRANCH   7   8
ATOM      8  C   LIG d   1      -5.784  79.394 117.915  0.00  0.00     0.119 C 
BRANCH   8   9
ATOM      9  C   LIG d   1      -7.100  78.595 117.846  0.00  0.00     0.028 C 
ATOM     10  C   LIG d   1      -6.979  77.338 116.968  0.00  0.00     0.006 C 
ENDBRANCH   8   9
BRANCH   8  11
ATOM     11  C   LIG d   1      -6.204  80.866 117.942  0.00  0.00     0.028 C 
ATOM     12  C   LIG d   1      -7.693  81.055 118.275  0.00  0.00     0.006 C 
ENDBRANCH   8  11
ENDBRANCH   7   8
ENDBRANCH   1   7
BRANCH   6  13
ATOM     13  N   LIG d   1      -3.706  76.636 115.558  0.00  0.00    -0.311 N 
ATOM     14  C   LIG d   1      -4.390  76.209 114.498  0.00  0.00     0.210 C 
ATOM     15  C   LIG d   1      -4.939  74.783 114.614  0.00  0.00     0.109 C 
ATOM     16  O   LIG d   1      -4.566  76.863 113.459  0.00  0.00    -0.276 OA
ATOM     17  H   LIG d   1      -3.585  76.028 116.344  0.00  0.00     0.149 HD
ENDBRANCH   6  13
BRANCH   5  18
ATOM     18  N   LIG d   1      -0.995  77.433 114.397  0.00  0.00     0.381 N 
ATOM     19  H   LIG d   1      -1.727  77.062 113.824  0.00  0.00    -0.090 HD
ATOM     20  H   LIG d   1      -0.356  76.689 114.614  0.00  0.00    -0.090 HD
ATOM     21  H   LIG d   1      -0.518  78.159 113.909  0.00  0.00    -0.090 HD
ENDBRANCH   5  18
BRANCH   3  22
ATOM     22  C   LIG d   1      -0.835  80.992 117.598  0.00  0.00     0.382 C 
ATOM     23  O   LIG d   1       0.170  81.487 117.035  0.00  0.00    -0.241 OA
ATOM     24  O   LIG d   1      -1.113  81.329 118.765  0.00  0.00    -0.241 OA
ENDBRANCH   3  22
TORSDOF 7
ENDMDL
MODEL 4
REMARK VINA RESULT:      -4.5     21.332     23.288
REMARK  7 active torsions:
REMARK  status: ('A' for Active; 'I' for Inactive)
REMARK    1  A    between atoms: C_2  and  C_3 
REMARK    2  A    between atoms: C_3  and  O_6 
REMARK    3  A    between atoms: C_3  and  C_4 
REMARK    4  A    between atoms: C_7  and  O_6 
REMARK    5  A    between atoms: C_9  and  C_10 
REMARK    6  A    between atoms: N_15  and  C_14 
REMARK    7  A    between atoms: N_20  and  C_19 
REMARK       I    between atoms: C_22  and  N_20 
ROOT
ATOM      1  C   LIG d   1     -23.998  83.596 113.495  0.00  0.00     0.161 C 
ATOM      2  C   LIG d   1     -23.013  84.597 113.534  0.00  0.00     0.016 C 
ATOM      3  C   LIG d   1     -23.303  85.967 113.724  0.00  0.00     0.038 C 
ATOM      4  C   LIG d   1     -24.594  86.415 114.041  0.00  0.00     0.028 C 
ATOM      5  C   LIG d   1     -25.697  85.504 113.513  0.00  0.00    -0.047 C 
ATOM      6  C   LIG d   1     -25.400  84.051 113.949  0.00  0.00     0.091 C 
ENDROOT
BRANCH   1   7
ATOM      7  O   LIG d   1     -23.567  82.456 114.264  0.00  0.00    -0.368 OA
BRANCH   7   8
ATOM      8  C   LIG d   1     -23.907  82.473 115.673  0.00  0.00     0.119 C 
BRANCH   8   9
ATOM      9  C   LIG d   1     -22.588  82.534 116.467  0.00  0.00     0.028 C 
ATOM     10  C   LIG d   1     -22.615  83.607 117.568  0.00  0.00     0.006 C 
ENDBRANCH   8   9
BRANCH   8  11
ATOM     11  C   LIG d   1     -24.577  81.164 116.100  0.00  0.00     0.028 C 
ATOM     12  C   LIG d   1     -24.521  80.082 115.009  0.00  0.00     0.006 C 
ENDBRANCH   8  11
ENDBRANCH   7   8
ENDBRANCH   1   7
BRANCH   6  13
ATOM     13  N   LIG d   1     -26.387  83.083 113.404  0.00  0.00    -0.311 N 
ATOM     14  C   LIG d   1     -27.432  82.632 114.095  0.00  0.00     0.210 C 
ATOM     15  C   LIG d   1     -28.313  81.624 113.352  0.00  0.00     0.109 C 
ATOM     16  O   LIG d   1     -27.730  82.996 115.243  0.00  0.00    -0.276 OA
ATOM     17  H   LIG d   1     -26.238  82.759 112.468  0.00  0.00     0.149 HD
ENDBRANCH   6  13
BRANCH   5  18
ATOM     18  N   LIG d   1     -26.981  86.013 114.031  0.00  0.00     0.381 N 
ATOM     19  H   LIG d   1     -26.923  86.131 115.023  0.00  0.00    -0.090 HD
ATOM     20  H   LIG d   1     -27.700  85.339 113.836  0.00  0.00    -0.090 HD
ATOM     21  H   LIG d   1     -27.203  86.882 113.599  0.00  0.00    -0.090 HD
ENDBRANCH   5  18
BRANCH   3  22
ATOM     22  C   LIG d   1     -22.301  86.911 113.557  0.00  0.00     0.382 C 
ATOM     23  O   LIG d   1     -22.387  88.025 114.129  0.00  0.00    -0.241 OA
ATOM     24  O   LIG d   1     -21.333  86.680 112.808  0.00  0.00    -0.241 OA
ENDBRANCH   3  22
TORSDOF 7
ENDMDL
MODEL 5
REMARK VINA RESULT:      -4.4      3.074      5.401
REMARK  7 active torsions:
REMARK  status: ('A' for Active; 'I' for Inactive)
REMARK    1  A    between atoms: C_2  and  C_3 
REMARK    2  A    between atoms: C_3  and  O_6 
REMARK    3  A    between atoms: C_3  and  C_4 
REMARK    4  A    between atoms: C_7  and  O_6 
REMARK    5  A    between atoms: C_9  and  C_10 
REMARK    6  A    between atoms: N_15  and  C_14 
REMARK    7  A    between atoms: N_20  and  C_19 
REMARK       I    between atoms: C_22  and  N_20 
ROOT
ATOM      1  C   LIG d   1      -6.658  77.505 117.104  0.00  0.00     0.161 C 
ATOM      2  C   LIG d   1      -6.660  76.680 115.967  0.00  0.00     0.016 C 
ATOM      3  C   LIG d   1      -5.483  76.268 115.301  0.00  0.00     0.038 C 
ATOM      4  C   LIG d   1      -4.207  76.532 115.821  0.00  0.00     0.028 C 
ATOM      5  C   LIG d   1      -4.152  77.786 116.686  0.00  0.00    -0.047 C 
ATOM      6  C   LIG d   1      -5.272  77.711 117.750  0.00  0.00     0.091 C 
ENDROOT
BRANCH   1   7
ATOM      7  O   LIG d   1      -7.594  77.000 118.077  0.00  0.00    -0.368 OA
BRANCH   7   8
ATOM      8  C   LIG d   1      -8.914  77.596 118.061  0.00  0.00     0.119 C 
BRANCH   8   9
ATOM      9  C   LIG d   1      -8.937  78.698 119.138  0.00  0.00     0.028 C 
ATOM     10  C   LIG d   1      -8.937  80.111 118.531  0.00  0.00     0.006 C 
ENDBRANCH   8   9
BRANCH   8  11
ATOM     11  C   LIG d   1      -9.986  76.589 118.488  0.00  0.00     0.028 C 
ATOM     12  C   LIG d   1     -10.001  75.327 117.610  0.00  0.00     0.006 C 
ENDBRANCH   8  11
ENDBRANCH   7   8
ENDBRANCH   1   7
BRANCH   6  13
ATOM     13  N   LIG d   1      -5.343  78.938 118.586  0.00  0.00    -0.311 N 
ATOM     14  C   LIG d   1      -5.151  80.165 118.105  0.00  0.00     0.210 C 
ATOM     15  C   LIG d   1      -5.249  81.289 119.141  0.00  0.00     0.109 C 
ATOM     16  O   LIG d   1      -4.941  80.432 116.912  0.00  0.00    -0.276 OA
ATOM     17  H   LIG d   1      -5.540  78.816 119.560  0.00  0.00     0.149 HD
ENDBRANCH   6  13
BRANCH   5  18
ATOM     18  N   LIG d   1      -2.801  77.865 117.273  0.00  0.00     0.381 N 
ATOM     19  H   LIG d   1      -2.671  78.758 117.705  0.00  0.00    -0.090 HD
ATOM     20  H   LIG d   1      -2.122  77.767 116.539  0.00  0.00    -0.090 HD
ATOM     21  H   LIG d   1      -2.680  77.141 117.947  0.00  0.00    -0.090 HD
ENDBRANCH   5  18
BRANCH   3  22
ATOM     22  C   LIG d   1      -5.575  75.618 114.080  0.00  0.00     0.382 C 
ATOM     23  O   LIG d   1      -4.975  74.531 113.902  0.00  0.00    -0.241 OA
ATOM     24  O   LIG d   1      -6.215  76.127 113.140  0.00  0.00    -0.241 OA
ENDBRANCH   3  22
TORSDOF 7
ENDMDL
MODEL 6
REMARK VINA RESULT:      -4.3     16.928     19.353
REMARK  7 active torsions:
REMARK  status: ('A' for Active; 'I' for Inactive)
REMARK    1  A    between atoms: C_2  and  C_3 
REMARK    2  A    between atoms: C_3  and  O_6 
REMARK    3  A    between atoms: C_3  and  C_4 
REMARK    4  A    between atoms: C_7  and  O_6 
REMARK    5  A    between atoms: C_9  and  C_10 
REMARK    6  A    between atoms: N_15  and  C_14 
REMARK    7  A    between atoms: N_20  and  C_19 
REMARK       I    between atoms: C_22  and  N_20 
ROOT
ATOM      1  C   LIG d   1     -16.311  63.335 116.745  0.00  0.00     0.161 C 
ATOM      2  C   LIG d   1     -15.698  64.467 117.307  0.00  0.00     0.016 C 
ATOM      3  C   LIG d   1     -15.533  65.688 116.613  0.00  0.00     0.038 C 
ATOM      4  C   LIG d   1     -16.108  65.908 115.353  0.00  0.00     0.028 C 
ATOM      5  C   LIG d   1     -16.298  64.630 114.542  0.00  0.00    -0.047 C 
ATOM      6  C   LIG d   1     -17.043  63.591 115.411  0.00  0.00     0.091 C 
ENDROOT
BRANCH   1   7
ATOM      7  O   LIG d   1     -17.208  62.739 117.703  0.00  0.00    -0.368 OA
BRANCH   7   8
ATOM      8  C   LIG d   1     -16.672  61.638 118.478  0.00  0.00     0.119 C 
BRANCH   8   9
ATOM      9  C   LIG d   1     -15.758  60.818 117.547  0.00  0.00     0.028 C 
ATOM     10  C   LIG d   1     -16.285  59.392 117.313  0.00  0.00     0.006 C 
ENDBRANCH   8   9
BRANCH   8  11
ATOM     11  C   LIG d   1     -17.779  60.672 118.912  0.00  0.00     0.028 C 
ATOM     12  C   LIG d   1     -19.187  61.264 118.742  0.00  0.00     0.006 C 
ENDBRANCH   8  11
ENDBRANCH   7   8
ENDBRANCH   1   7
BRANCH   6  13
ATOM     13  N   LIG d   1     -17.196  62.282 114.724  0.00  0.00    -0.311 N 
ATOM     14  C   LIG d   1     -18.333  61.589 114.713  0.00  0.00     0.210 C 
ATOM     15  C   LIG d   1     -18.269  60.255 113.963  0.00  0.00     0.109 C 
ATOM     16  O   LIG d   1     -19.397  61.967 115.225  0.00  0.00    -0.276 OA
ATOM     17  H   LIG d   1     -16.391  61.916 114.256  0.00  0.00     0.149 HD
ENDBRANCH   6  13
BRANCH   5  18
ATOM     18  N   LIG d   1     -17.031  64.987 113.313  0.00  0.00     0.381 N 
ATOM     19  H   LIG d   1     -17.218  65.970 113.303  0.00  0.00    -0.090 HD
ATOM     20  H   LIG d   1     -17.909  64.498 113.304  0.00  0.00    -0.090 HD
ATOM     21  H   LIG d   1     -16.494  64.736 112.511  0.00  0.00    -0.090 HD
ENDBRANCH   5  18
BRANCH   3  22
ATOM     22  C   LIG d   1     -14.750  66.691 117.164  0.00  0.00     0.382 C 
ATOM     23  O   LIG d   1     -13.502  66.567 117.195  0.00  0.00    -0.241 OA
ATOM     24  O   LIG d   1     -15.279  67.699 117.670  0.00  0.00    -0.241 OA
ENDBRANCH   3  22
TORSDOF 7
ENDMDL
MODEL 7
REMARK VINA RESULT:      -4.3     16.824     19.485
REMARK  7 active torsions:
REMARK  status: ('A' for Active; 'I' for Inactive)
REMARK    1  A    between atoms: C_2  and  C_3 
REMARK    2  A    between atoms: C_3  and  O_6 
REMARK    3  A    between atoms: C_3  and  C_4 
REMARK    4  A    between atoms: C_7  and  O_6 
REMARK    5  A    between atoms: C_9  and  C_10 
REMARK    6  A    between atoms: N_15  and  C_14 
REMARK    7  A    between atoms: N_20  and  C_19 
REMARK       I    between atoms: C_22  and  N_20 
ROOT
ATOM      1  C   LIG d   1     -17.054  64.989 114.636  0.00  0.00     0.161 C 
ATOM      2  C   LIG d   1     -15.929  64.947 115.477  0.00  0.00     0.016 C 
ATOM      3  C   LIG d   1     -15.921  65.463 116.793  0.00  0.00     0.038 C 
ATOM      4  C   LIG d   1     -17.091  65.924 117.416  0.00  0.00     0.028 C 
ATOM      5  C   LIG d   1     -18.132  66.450 116.434  0.00  0.00    -0.047 C 
ATOM      6  C   LIG d   1     -18.370  65.388 115.337  0.00  0.00     0.091 C 
ENDROOT
BRANCH   1   7
ATOM      7  O   LIG d   1     -17.208  63.725 113.962  0.00  0.00    -0.368 OA
BRANCH   7   8
ATOM      8  C   LIG d   1     -18.025  62.738 114.638  0.00  0.00     0.119 C 
BRANCH   8   9
ATOM      9  C   LIG d   1     -17.136  61.509 114.911  0.00  0.00     0.028 C 
ATOM     10  C   LIG d   1     -16.699  61.417 116.383  0.00  0.00     0.006 C 
ENDBRANCH   8   9
BRANCH   8  11
ATOM     11  C   LIG d   1     -19.150  62.231 113.730  0.00  0.00     0.028 C 
ATOM     12  C   LIG d   1     -19.030  60.732 113.413  0.00  0.00     0.006 C 
ENDBRANCH   8  11
ENDBRANCH   7   8
ENDBRANCH   1   7
BRANCH   6  13
ATOM     13  N   LIG d   1     -19.313  65.857 114.288  0.00  0.00    -0.311 N 
ATOM     14  C   LIG d   1     -20.619  65.598 114.309  0.00  0.00     0.210 C 
ATOM     15  C   LIG d   1     -21.408  66.158 113.121  0.00  0.00     0.109 C 
ATOM     16  O   LIG d   1     -21.205  64.987 115.215  0.00  0.00    -0.276 OA
ATOM     17  H   LIG d   1     -18.927  66.387 113.532  0.00  0.00     0.149 HD
ENDBRANCH   6  13
BRANCH   5  18
ATOM     18  N   LIG d   1     -19.350  66.768 117.204  0.00  0.00     0.381 N 
ATOM     19  H   LIG d   1     -19.110  67.317 118.006  0.00  0.00    -0.090 HD
ATOM     20  H   LIG d   1     -19.767  65.911 117.522  0.00  0.00    -0.090 HD
ATOM     21  H   LIG d   1     -19.994  67.267 116.632  0.00  0.00    -0.090 HD
ENDBRANCH   5  18
BRANCH   3  22
ATOM     22  C   LIG d   1     -14.724  65.558 117.487  0.00  0.00     0.382 C 
ATOM     23  O   LIG d   1     -13.898  66.454 117.191  0.00  0.00    -0.241 OA
ATOM     24  O   LIG d   1     -14.442  64.732 118.376  0.00  0.00    -0.241 OA
ENDBRANCH   3  22
TORSDOF 7
ENDMDL
MODEL 8
REMARK VINA RESULT:      -4.2     12.578     15.554
REMARK  7 active torsions:
REMARK  status: ('A' for Active; 'I' for Inactive)
REMARK    1  A    between atoms: C_2  and  C_3 
REMARK    2  A    between atoms: C_3  and  O_6 
REMARK    3  A    between atoms: C_3  and  C_4 
REMARK    4  A    between atoms: C_7  and  O_6 
REMARK    5  A    between atoms: C_9  and  C_10 
REMARK    6  A    between atoms: N_15  and  C_14 
REMARK    7  A    between atoms: N_20  and  C_19 
REMARK       I    between atoms: C_22  and  N_20 
ROOT
ATOM      1  C   LIG d   1       0.614  90.154 117.381  0.00  0.00     0.161 C 
ATOM      2  C   LIG d   1      -0.789  90.179 117.315  0.00  0.00     0.016 C 
ATOM      3  C   LIG d   1      -1.562  91.326 117.612  0.00  0.00     0.038 C 
ATOM      4  C   LIG d   1      -0.972  92.576 117.851  0.00  0.00     0.028 C 
ATOM      5  C   LIG d   1       0.439  92.481 118.423  0.00  0.00    -0.047 C 
ATOM      6  C   LIG d   1       1.279  91.538 117.531  0.00  0.00     0.091 C 
ENDROOT
BRANCH   1   7
ATOM      7  O   LIG d   1       1.145  89.465 116.232  0.00  0.00    -0.368 OA
BRANCH   7   8
ATOM      8  C   LIG d   1       2.064  88.380 116.508  0.00  0.00     0.119 C 
BRANCH   8   9
ATOM      9  C   LIG d   1       3.173  88.429 115.438  0.00  0.00     0.028 C 
ATOM     10  C   LIG d   1       3.277  89.808 114.765  0.00  0.00     0.006 C 
ENDBRANCH   8   9
BRANCH   8  11
ATOM     11  C   LIG d   1       1.388  87.017 116.329  0.00  0.00     0.028 C 
ATOM     12  C   LIG d   1       1.754  86.341 114.998  0.00  0.00     0.006 C 
ENDBRANCH   8  11
ENDBRANCH   7   8
ENDBRANCH   1   7
BRANCH   6  13
ATOM     13  N   LIG d   1       2.649  91.323 118.067  0.00  0.00    -0.311 N 
ATOM     14  C   LIG d   1       3.692  92.085 117.741  0.00  0.00     0.210 C 
ATOM     15  C   LIG d   1       5.018  91.678 118.391  0.00  0.00     0.109 C 
ATOM     16  O   LIG d   1       3.638  93.078 117.001  0.00  0.00    -0.276 OA
ATOM     17  H   LIG d   1       2.776  90.557 118.699  0.00  0.00     0.149 HD
ENDBRANCH   6  13
BRANCH   5  18
ATOM     18  N   LIG d   1       0.985  93.849 118.492  0.00  0.00     0.381 N 
ATOM     19  H   LIG d   1       1.413  94.088 117.620  0.00  0.00    -0.090 HD
ATOM     20  H   LIG d   1       1.688  93.883 119.209  0.00  0.00    -0.090 HD
ATOM     21  H   LIG d   1       0.257  94.497 118.701  0.00  0.00    -0.090 HD
ENDBRANCH   5  18
BRANCH   3  22
ATOM     22  C   LIG d   1      -2.940  91.218 117.712  0.00  0.00     0.382 C 
ATOM     23  O   LIG d   1      -3.460  90.138 118.082  0.00  0.00    -0.241 OA
ATOM     24  O   LIG d   1      -3.673  92.174 117.394  0.00  0.00    -0.241 OA
ENDBRANCH   3  22
TORSDOF 7
ENDMDL
MODEL 9
REMARK VINA RESULT:      -4.2      2.542      3.288
REMARK  7 active torsions:
REMARK  status: ('A' for Active; 'I' for Inactive)
REMARK    1  A    between atoms: C_2  and  C_3 
REMARK    2  A    between atoms: C_3  and  O_6 
REMARK    3  A    between atoms: C_3  and  C_4 
REMARK    4  A    between atoms: C_7  and  O_6 
REMARK    5  A    between atoms: C_9  and  C_10 
REMARK    6  A    between atoms: N_15  and  C_14 
REMARK    7  A    between atoms: N_20  and  C_19 
REMARK       I    between atoms: C_22  and  N_20 
ROOT
ATOM      1  C   LIG d   1      -3.949  77.424 117.063  0.00  0.00     0.161 C 
ATOM      2  C   LIG d   1      -4.743  78.467 117.569  0.00  0.00     0.016 C 
ATOM      3  C   LIG d   1      -4.497  79.833 117.300  0.00  0.00     0.038 C 
ATOM      4  C   LIG d   1      -3.524  80.243 116.376  0.00  0.00     0.028 C 
ATOM      5  C   LIG d   1      -2.373  79.254 116.230  0.00  0.00    -0.047 C 
ATOM      6  C   LIG d   1      -2.951  77.845 115.964  0.00  0.00     0.091 C 
ENDROOT
BRANCH   1   7
ATOM      7  O   LIG d   1      -4.792  76.354 116.591  0.00  0.00    -0.368 OA
BRANCH   7   8
ATOM      8  C   LIG d   1      -5.410  76.553 115.296  0.00  0.00     0.119 C 
BRANCH   8   9
ATOM      9  C   LIG d   1      -6.934  76.617 115.515  0.00  0.00     0.028 C 
ATOM     10  C   LIG d   1      -7.348  76.116 116.909  0.00  0.00     0.006 C 
ENDBRANCH   8   9
BRANCH   8  11
ATOM     11  C   LIG d   1      -5.182  75.348 114.378  0.00  0.00     0.028 C 
ATOM     12  C   LIG d   1      -4.438  74.199 115.077  0.00  0.00     0.006 C 
ENDBRANCH   8  11
ENDBRANCH   7   8
ENDBRANCH   1   7
BRANCH   6  13
ATOM     13  N   LIG d   1      -1.895  76.802 115.893  0.00  0.00    -0.311 N 
ATOM     14  C   LIG d   1      -1.346  76.392 114.750  0.00  0.00     0.210 C 
ATOM     15  C   LIG d   1      -0.289  75.293 114.899  0.00  0.00     0.109 C 
ATOM     16  O   LIG d   1      -1.612  76.856 113.631  0.00  0.00    -0.276 OA
ATOM     17  H   LIG d   1      -1.597  76.394 116.757  0.00  0.00     0.149 HD
ENDBRANCH   6  13
BRANCH   5  18
ATOM     18  N   LIG d   1      -1.505  79.737 115.139  0.00  0.00     0.381 N 
ATOM     19  H   LIG d   1      -2.066  80.032 114.365  0.00  0.00    -0.090 HD
ATOM     20  H   LIG d   1      -0.917  78.982 114.833  0.00  0.00    -0.090 HD
ATOM     21  H   LIG d   1      -0.944  80.496 115.460  0.00  0.00    -0.090 HD
ENDBRANCH   5  18
BRANCH   3  22
ATOM     22  C   LIG d   1      -5.203  80.807 117.988  0.00  0.00     0.382 C 
ATOM     23  O   LIG d   1      -6.298  81.224 117.538  0.00  0.00    -0.241 OA
ATOM     24  O   LIG d   1      -4.738  81.307 119.030  0.00  0.00    -0.241 OA
ENDBRANCH   3  22
TORSDOF 7
ENDMDL
