MODEL 1
REMARK VINA RESULT:      -5.6      0.000      0.000
REMARK  7 active torsions:
REMARK  status: ('A' for Active; 'I' for Inactive)
REMARK    1  A    between atoms: C_2  and  C_3 
REMARK    2  A    between atoms: C_3  and  O_6 
REMARK    3  A    between atoms: C_3  and  C_4 
REMARK    4  A    between atoms: C_7  and  O_6 
REMARK    5  A    between atoms: C_9  and  C_10 
REMARK    6  A    between atoms: N_15  and  C_14 
REMARK    7  A    between atoms: N_20  and  C_19 
REMARK       I    between atoms: C_22  and  N_20 
ROOT
ATOM      1  C   LIG d   1      -7.658  75.015 117.780  0.00  0.00     0.161 C 
ATOM      2  C   LIG d   1      -8.823  75.791 117.907  0.00  0.00     0.016 C 
ATOM      3  C   LIG d   1      -8.819  77.204 117.913  0.00  0.00     0.038 C 
ATOM      4  C   LIG d   1      -7.659  77.944 117.640  0.00  0.00     0.028 C 
ATOM      5  C   LIG d   1      -6.373  77.212 118.008  0.00  0.00    -0.047 C 
ATOM      6  C   LIG d   1      -6.397  75.804 117.370  0.00  0.00     0.091 C 
ENDROOT
BRANCH   1   7
ATOM      7  O   LIG d   1      -7.891  73.930 116.861  0.00  0.00    -0.368 OA
BRANCH   7   8
ATOM      8  C   LIG d   1      -8.364  72.690 117.445  0.00  0.00     0.119 C 
BRANCH   8   9
ATOM      9  C   LIG d   1      -7.705  71.533 116.669  0.00  0.00     0.028 C 
ATOM     10  C   LIG d   1      -6.836  72.029 115.501  0.00  0.00     0.006 C 
ENDBRANCH   8   9
BRANCH   8  11
ATOM     11  C   LIG d   1      -9.870  72.514 117.235  0.00  0.00     0.028 C 
ATOM     12  C   LIG d   1     -10.254  71.076 116.852  0.00  0.00     0.006 C 
ENDBRANCH   8  11
ENDBRANCH   7   8
ENDBRANCH   1   7
BRANCH   6  13
ATOM     13  N   LIG d   1      -5.214  74.990 117.750  0.00  0.00    -0.311 N 
ATOM     14  C   LIG d   1      -4.110  74.910 117.008  0.00  0.00     0.210 C 
ATOM     15  C   LIG d   1      -3.016  73.999 117.573  0.00  0.00     0.109 C 
ATOM     16  O   LIG d   1      -3.921  75.533 115.953  0.00  0.00    -0.276 OA
ATOM     17  H   LIG d   1      -5.270  74.476 118.607  0.00  0.00     0.149 HD
ENDBRANCH   6  13
BRANCH   5  18
ATOM     18  N   LIG d   1      -5.242  78.037 117.544  0.00  0.00     0.381 N 
ATOM     19  H   LIG d   1      -4.816  78.497 118.324  0.00  0.00    -0.090 HD
ATOM     20  H   LIG d   1      -5.589  78.740 116.914  0.00  0.00    -0.090 HD
ATOM     21  H   LIG d   1      -4.571  77.466 117.079  0.00  0.00    -0.090 HD
ENDBRANCH   5  18
BRANCH   3  22
ATOM     22  C   LIG d   1      -9.979  77.893 118.234  0.00  0.00     0.382 C 
ATOM     23  O   LIG d   1     -10.995  77.265 118.618  0.00  0.00    -0.241 OA
ATOM     24  O   LIG d   1     -10.036  79.130 118.103  0.00  0.00    -0.241 OA
ENDBRANCH   3  22
TORSDOF 7
ENDMDL
MODEL 2
REMARK VINA RESULT:      -5.1      2.092      3.465
REMARK  7 active torsions:
REMARK  status: ('A' for Active; 'I' for Inactive)
REMARK    1  A    between atoms: C_2  and  C_3 
REMARK    2  A    between atoms: C_3  and  O_6 
REMARK    3  A    between atoms: C_3  and  C_4 
REMARK    4  A    between atoms: C_7  and  O_6 
REMARK    5  A    between atoms: C_9  and  C_10 
REMARK    6  A    between atoms: N_15  and  C_14 
REMARK    7  A    between atoms: N_20  and  C_19 
REMARK       I    between atoms: C_22  and  N_20 
ROOT
ATOM      1  C   LIG d   1      -6.308  76.846 116.828  0.00  0.00     0.161 C 
ATOM      2  C   LIG d   1      -7.673  76.615 117.067  0.00  0.00     0.016 C 
ATOM      3  C   LIG d   1      -8.540  77.584 117.624  0.00  0.00     0.038 C 
ATOM      4  C   LIG d   1      -8.131  78.908 117.840  0.00  0.00     0.028 C 
ATOM      5  C   LIG d   1      -6.632  79.047 118.085  0.00  0.00    -0.047 C 
ATOM      6  C   LIG d   1      -5.869  78.320 116.954  0.00  0.00     0.091 C 
ENDROOT
BRANCH   1   7
ATOM      7  O   LIG d   1      -5.944  76.323 115.535  0.00  0.00    -0.368 OA
BRANCH   7   8
ATOM      8  C   LIG d   1      -5.019  75.209 115.535  0.00  0.00     0.119 C 
BRANCH   8   9
ATOM      9  C   LIG d   1      -5.745  74.004 114.907  0.00  0.00     0.028 C 
ATOM     10  C   LIG d   1      -6.529  73.184 115.946  0.00  0.00     0.006 C 
ENDBRANCH   8   9
BRANCH   8  11
ATOM     11  C   LIG d   1      -4.671  74.773 116.962  0.00  0.00     0.028 C 
ATOM     12  C   LIG d   1      -3.158  74.765 117.230  0.00  0.00     0.006 C 
ENDBRANCH   8  11
ENDBRANCH   7   8
ENDBRANCH   1   7
BRANCH   6  13
ATOM     13  N   LIG d   1      -4.398  78.335 117.162  0.00  0.00    -0.311 N 
ATOM     14  C   LIG d   1      -3.527  78.676 116.213  0.00  0.00     0.210 C 
ATOM     15  C   LIG d   1      -2.055  78.605 116.631  0.00  0.00     0.109 C 
ATOM     16  O   LIG d   1      -3.835  79.063 115.076  0.00  0.00    -0.276 OA
ATOM     17  H   LIG d   1      -4.062  78.065 118.066  0.00  0.00     0.149 HD
ENDBRANCH   6  13
BRANCH   5  18
ATOM     18  N   LIG d   1      -6.324  80.487 118.157  0.00  0.00     0.381 N 
ATOM     19  H   LIG d   1      -6.116  80.836 117.243  0.00  0.00    -0.090 HD
ATOM     20  H   LIG d   1      -5.513  80.618 118.736  0.00  0.00    -0.090 HD
ATOM     21  H   LIG d   1      -7.098  80.983 118.541  0.00  0.00    -0.090 HD
ENDBRANCH   5  18
BRANCH   3  22
ATOM     22  C   LIG d   1      -9.821  77.219 118.008  0.00  0.00     0.382 C 
ATOM     23  O   LIG d   1     -10.253  76.072 117.741  0.00  0.00    -0.241 OA
ATOM     24  O   LIG d   1     -10.567  78.038 118.578  0.00  0.00    -0.241 OA
ENDBRANCH   3  22
TORSDOF 7
ENDMDL
MODEL 3
REMARK VINA RESULT:      -5.0      2.440      3.393
REMARK  7 active torsions:
REMARK  status: ('A' for Active; 'I' for Inactive)
REMARK    1  A    between atoms: C_2  and  C_3 
REMARK    2  A    between atoms: C_3  and  O_6 
REMARK    3  A    between atoms: C_3  and  C_4 
REMARK    4  A    between atoms: C_7  and  O_6 
REMARK    5  A    between atoms: C_9  and  C_10 
REMARK    6  A    between atoms: N_15  and  C_14 
REMARK    7  A    between atoms: N_20  and  C_19 
REMARK       I    between atoms: C_22  and  N_20 
ROOT
ATOM      1  C   LIG d   1      -4.754  76.272 117.807  0.00  0.00     0.161 C 
ATOM      2  C   LIG d   1      -5.880  77.112 117.835  0.00  0.00     0.016 C 
ATOM      3  C   LIG d   1      -5.895  78.412 117.280  0.00  0.00     0.038 C 
ATOM      4  C   LIG d   1      -4.825  78.907 116.520  0.00  0.00     0.028 C 
ATOM      5  C   LIG d   1      -3.481  78.292 116.896  0.00  0.00    -0.047 C 
ATOM      6  C   LIG d   1      -3.613  76.752 116.885  0.00  0.00     0.091 C 
ENDROOT
BRANCH   1   7
ATOM      7  O   LIG d   1      -5.152  74.932 117.456  0.00  0.00    -0.368 OA
BRANCH   7   8
ATOM      8  C   LIG d   1      -6.268  74.819 116.539  0.00  0.00     0.119 C 
BRANCH   8   9
ATOM      9  C   LIG d   1      -7.055  73.551 116.923  0.00  0.00     0.028 C 
ATOM     10  C   LIG d   1      -6.914  72.433 115.877  0.00  0.00     0.006 C 
ENDBRANCH   8   9
BRANCH   8  11
ATOM     11  C   LIG d   1      -5.788  74.579 115.104  0.00  0.00     0.028 C 
ATOM     12  C   LIG d   1      -5.864  75.842 114.232  0.00  0.00     0.006 C 
ENDBRANCH   8  11
ENDBRANCH   7   8
ENDBRANCH   1   7
BRANCH   6  13
ATOM     13  N   LIG d   1      -2.365  76.073 117.323  0.00  0.00    -0.311 N 
ATOM     14  C   LIG d   1      -1.769  75.110 116.622  0.00  0.00     0.210 C 
ATOM     15  C   LIG d   1      -0.505  74.531 117.264  0.00  0.00     0.109 C 
ATOM     16  O   LIG d   1      -2.150  74.703 115.514  0.00  0.00    -0.276 OA
ATOM     17  H   LIG d   1      -1.971  76.363 118.197  0.00  0.00     0.149 HD
ENDBRANCH   6  13
BRANCH   5  18
ATOM     18  N   LIG d   1      -2.478  78.793 115.937  0.00  0.00     0.381 N 
ATOM     19  H   LIG d   1      -1.785  78.090 115.774  0.00  0.00    -0.090 HD
ATOM     20  H   LIG d   1      -2.024  79.598 116.331  0.00  0.00    -0.090 HD
ATOM     21  H   LIG d   1      -2.920  79.039 115.078  0.00  0.00    -0.090 HD
ENDBRANCH   5  18
BRANCH   3  22
ATOM     22  C   LIG d   1      -6.976  79.248 117.517  0.00  0.00     0.382 C 
ATOM     23  O   LIG d   1      -8.038  78.779 117.995  0.00  0.00    -0.241 OA
ATOM     24  O   LIG d   1      -6.919  80.455 117.218  0.00  0.00    -0.241 OA
ENDBRANCH   3  22
TORSDOF 7
ENDMDL
MODEL 4
REMARK VINA RESULT:      -4.9      3.561      6.035
REMARK  7 active torsions:
REMARK  status: ('A' for Active; 'I' for Inactive)
REMARK    1  A    between atoms: C_2  and  C_3 
REMARK    2  A    between atoms: C_3  and  O_6 
REMARK    3  A    between atoms: C_3  and  C_4 
REMARK    4  A    between atoms: C_7  and  O_6 
REMARK    5  A    between atoms: C_9  and  C_10 
REMARK    6  A    between atoms: N_15  and  C_14 
REMARK    7  A    between atoms: N_20  and  C_19 
REMARK       I    between atoms: C_22  and  N_20 
ROOT
ATOM      1  C   LIG d   1      -3.335  76.959 116.561  0.00  0.00     0.161 C 
ATOM      2  C   LIG d   1      -3.387  77.943 115.560  0.00  0.00     0.016 C 
ATOM      3  C   LIG d   1      -2.330  78.186 114.652  0.00  0.00     0.038 C 
ATOM      4  C   LIG d   1      -1.202  77.354 114.588  0.00  0.00     0.028 C 
ATOM      5  C   LIG d   1      -0.882  76.663 115.910  0.00  0.00    -0.047 C 
ATOM      6  C   LIG d   1      -2.159  75.968 116.435  0.00  0.00     0.091 C 
ENDROOT
BRANCH   1   7
ATOM      7  O   LIG d   1      -4.587  76.246 116.610  0.00  0.00    -0.368 OA
BRANCH   7   8
ATOM      8  C   LIG d   1      -5.361  76.231 115.385  0.00  0.00     0.119 C 
BRANCH   8   9
ATOM      9  C   LIG d   1      -6.822  76.551 115.756  0.00  0.00     0.028 C 
ATOM     10  C   LIG d   1      -6.933  77.360 117.059  0.00  0.00     0.006 C 
ENDBRANCH   8   9
BRANCH   8  11
ATOM     11  C   LIG d   1      -5.397  74.831 114.766  0.00  0.00     0.028 C 
ATOM     12  C   LIG d   1      -6.075  73.794 115.676  0.00  0.00     0.006 C 
ENDBRANCH   8  11
ENDBRANCH   7   8
ENDBRANCH   1   7
BRANCH   6  13
ATOM     13  N   LIG d   1      -1.956  75.339 117.766  0.00  0.00    -0.311 N 
ATOM     14  C   LIG d   1      -1.493  74.101 117.929  0.00  0.00     0.210 C 
ATOM     15  C   LIG d   1      -1.378  73.640 119.385  0.00  0.00     0.109 C 
ATOM     16  O   LIG d   1      -1.136  73.353 117.007  0.00  0.00    -0.276 OA
ATOM     17  H   LIG d   1      -2.191  75.888 118.570  0.00  0.00     0.149 HD
ENDBRANCH   6  13
BRANCH   5  18
ATOM     18  N   LIG d   1       0.229  75.724 115.665  0.00  0.00     0.381 N 
ATOM     19  H   LIG d   1      -0.118  74.900 115.216  0.00  0.00    -0.090 HD
ATOM     20  H   LIG d   1       0.629  75.458 116.547  0.00  0.00    -0.090 HD
ATOM     21  H   LIG d   1       0.921  76.156 115.094  0.00  0.00    -0.090 HD
ENDBRANCH   5  18
BRANCH   3  22
ATOM     22  C   LIG d   1      -2.377  79.296 113.823  0.00  0.00     0.382 C 
ATOM     23  O   LIG d   1      -1.393  79.580 113.099  0.00  0.00    -0.241 OA
ATOM     24  O   LIG d   1      -3.374  80.042 113.823  0.00  0.00    -0.241 OA
ENDBRANCH   3  22
TORSDOF 7
ENDMDL
MODEL 5
REMARK VINA RESULT:      -4.8      1.654      2.456
REMARK  7 active torsions:
REMARK  status: ('A' for Active; 'I' for Inactive)
REMARK    1  A    between atoms: C_2  and  C_3 
REMARK    2  A    between atoms: C_3  and  O_6 
REMARK    3  A    between atoms: C_3  and  C_4 
REMARK    4  A    between atoms: C_7  and  O_6 
REMARK    5  A    between atoms: C_9  and  C_10 
REMARK    6  A    between atoms: N_15  and  C_14 
REMARK    7  A    between atoms: N_20  and  C_19 
REMARK       I    between atoms: C_22  and  N_20 
ROOT
ATOM      1  C   LIG d   1      -6.344  75.916 118.323  0.00  0.00     0.161 C 
ATOM      2  C   LIG d   1      -7.735  76.111 118.308  0.00  0.00     0.016 C 
ATOM      3  C   LIG d   1      -8.347  77.321 117.908  0.00  0.00     0.038 C 
ATOM      4  C   LIG d   1      -7.610  78.374 117.347  0.00  0.00     0.028 C 
ATOM      5  C   LIG d   1      -6.158  78.412 117.812  0.00  0.00    -0.047 C 
ATOM      6  C   LIG d   1      -5.529  77.014 117.610  0.00  0.00     0.091 C 
ENDROOT
BRANCH   1   7
ATOM      7  O   LIG d   1      -6.027  74.621 117.775  0.00  0.00    -0.368 OA
BRANCH   7   8
ATOM      8  C   LIG d   1      -6.887  74.153 116.707  0.00  0.00     0.119 C 
BRANCH   8   9
ATOM      9  C   LIG d   1      -7.572  72.862 117.196  0.00  0.00     0.028 C 
ATOM     10  C   LIG d   1      -7.614  71.773 116.111  0.00  0.00     0.006 C 
ENDBRANCH   8   9
BRANCH   8  11
ATOM     11  C   LIG d   1      -6.073  73.739 115.477  0.00  0.00     0.028 C 
ATOM     12  C   LIG d   1      -5.561  74.941 114.669  0.00  0.00     0.006 C 
ENDBRANCH   8  11
ENDBRANCH   7   8
ENDBRANCH   1   7
BRANCH   6  13
ATOM     13  N   LIG d   1      -4.135  76.941 118.117  0.00  0.00    -0.311 N 
ATOM     14  C   LIG d   1      -3.063  77.119 117.346  0.00  0.00     0.210 C 
ATOM     15  C   LIG d   1      -1.718  76.981 118.066  0.00  0.00     0.109 C 
ATOM     16  O   LIG d   1      -3.100  77.409 116.141  0.00  0.00    -0.276 OA
ATOM     17  H   LIG d   1      -4.013  76.741 119.091  0.00  0.00     0.149 HD
ENDBRANCH   6  13
BRANCH   5  18
ATOM     18  N   LIG d   1      -5.472  79.471 117.047  0.00  0.00     0.381 N 
ATOM     19  H   LIG d   1      -5.902  79.573 116.150  0.00  0.00    -0.090 HD
ATOM     20  H   LIG d   1      -4.514  79.203 116.909  0.00  0.00    -0.090 HD
ATOM     21  H   LIG d   1      -5.515  80.333 117.544  0.00  0.00    -0.090 HD
ENDBRANCH   5  18
BRANCH   3  22
ATOM     22  C   LIG d   1      -9.708  77.501 118.104  0.00  0.00     0.382 C 
ATOM     23  O   LIG d   1     -10.168  78.654 118.286  0.00  0.00    -0.241 OA
ATOM     24  O   LIG d   1     -10.475  76.521 118.144  0.00  0.00    -0.241 OA
ENDBRANCH   3  22
TORSDOF 7
ENDMDL
MODEL 6
REMARK VINA RESULT:      -4.8      2.476      5.548
REMARK  7 active torsions:
REMARK  status: ('A' for Active; 'I' for Inactive)
REMARK    1  A    between atoms: C_2  and  C_3 
REMARK    2  A    between atoms: C_3  and  O_6 
REMARK    3  A    between atoms: C_3  and  C_4 
REMARK    4  A    between atoms: C_7  and  O_6 
REMARK    5  A    between atoms: C_9  and  C_10 
REMARK    6  A    between atoms: N_15  and  C_14 
REMARK    7  A    between atoms: N_20  and  C_19 
REMARK       I    between atoms: C_22  and  N_20 
ROOT
ATOM      1  C   LIG d   1      -5.642  76.522 118.067  0.00  0.00     0.161 C 
ATOM      2  C   LIG d   1      -6.028  75.206 117.762  0.00  0.00     0.016 C 
ATOM      3  C   LIG d   1      -7.374  74.814 117.574  0.00  0.00     0.038 C 
ATOM      4  C   LIG d   1      -8.419  75.748 117.528  0.00  0.00     0.028 C 
ATOM      5  C   LIG d   1      -8.136  77.014 118.330  0.00  0.00    -0.047 C 
ATOM      6  C   LIG d   1      -6.758  77.576 117.911  0.00  0.00     0.091 C 
ENDROOT
BRANCH   1   7
ATOM      7  O   LIG d   1      -4.493  76.889 117.278  0.00  0.00    -0.368 OA
BRANCH   7   8
ATOM      8  C   LIG d   1      -4.767  77.595 116.043  0.00  0.00     0.119 C 
BRANCH   8   9
ATOM      9  C   LIG d   1      -4.506  76.616 114.882  0.00  0.00     0.028 C 
ATOM     10  C   LIG d   1      -5.806  76.133 114.218  0.00  0.00     0.006 C 
ENDBRANCH   8   9
BRANCH   8  11
ATOM     11  C   LIG d   1      -3.781  78.748 115.831  0.00  0.00     0.028 C 
ATOM     12  C   LIG d   1      -2.780  78.475 114.697  0.00  0.00     0.006 C 
ENDBRANCH   8  11
ENDBRANCH   7   8
ENDBRANCH   1   7
BRANCH   6  13
ATOM     13  N   LIG d   1      -6.366  78.767 118.708  0.00  0.00    -0.311 N 
ATOM     14  C   LIG d   1      -6.567  80.020 118.302  0.00  0.00     0.210 C 
ATOM     15  C   LIG d   1      -6.069  81.100 119.267  0.00  0.00     0.109 C 
ATOM     16  O   LIG d   1      -7.140  80.338 117.249  0.00  0.00    -0.276 OA
ATOM     17  H   LIG d   1      -5.923  78.600 119.590  0.00  0.00     0.149 HD
ENDBRANCH   6  13
BRANCH   5  18
ATOM     18  N   LIG d   1      -9.244  77.955 118.083  0.00  0.00     0.381 N 
ATOM     19  H   LIG d   1     -10.071  77.634 118.546  0.00  0.00    -0.090 HD
ATOM     20  H   LIG d   1      -9.428  77.989 117.096  0.00  0.00    -0.090 HD
ATOM     21  H   LIG d   1      -9.001  78.863 118.414  0.00  0.00    -0.090 HD
ENDBRANCH   5  18
BRANCH   3  22
ATOM     22  C   LIG d   1      -7.689  73.467 117.468  0.00  0.00     0.382 C 
ATOM     23  O   LIG d   1      -7.272  72.801 116.491  0.00  0.00    -0.241 OA
ATOM     24  O   LIG d   1      -8.421  72.922 118.315  0.00  0.00    -0.241 OA
ENDBRANCH   3  22
TORSDOF 7
ENDMDL
MODEL 7
REMARK VINA RESULT:      -4.7      3.207      5.675
REMARK  7 active torsions:
REMARK  status: ('A' for Active; 'I' for Inactive)
REMARK    1  A    between atoms: C_2  and  C_3 
REMARK    2  A    between atoms: C_3  and  O_6 
REMARK    3  A    between atoms: C_3  and  C_4 
REMARK    4  A    between atoms: C_7  and  O_6 
REMARK    5  A    between atoms: C_9  and  C_10 
REMARK    6  A    between atoms: N_15  and  C_14 
REMARK    7  A    between atoms: N_20  and  C_19 
REMARK       I    between atoms: C_22  and  N_20 
ROOT
ATOM      1  C   LIG d   1      -4.007  75.162 116.854  0.00  0.00     0.161 C 
ATOM      2  C   LIG d   1      -5.010  74.265 117.258  0.00  0.00     0.016 C 
ATOM      3  C   LIG d   1      -6.227  74.093 116.560  0.00  0.00     0.038 C 
ATOM      4  C   LIG d   1      -6.462  74.700 115.318  0.00  0.00     0.028 C 
ATOM      5  C   LIG d   1      -5.690  76.001 115.124  0.00  0.00    -0.047 C 
ATOM      6  C   LIG d   1      -4.198  75.751 115.441  0.00  0.00     0.091 C 
ENDROOT
BRANCH   1   7
ATOM      7  O   LIG d   1      -2.715  74.532 116.965  0.00  0.00    -0.368 OA
BRANCH   7   8
ATOM      8  C   LIG d   1      -2.024  74.712 118.225  0.00  0.00     0.119 C 
BRANCH   8   9
ATOM      9  C   LIG d   1      -1.123  75.955 118.085  0.00  0.00     0.028 C 
ATOM     10  C   LIG d   1      -0.254  75.910 116.817  0.00  0.00     0.006 C 
ENDBRANCH   8   9
BRANCH   8  11
ATOM     11  C   LIG d   1      -1.069  73.549 118.508  0.00  0.00     0.028 C 
ATOM     12  C   LIG d   1      -1.665  72.509 119.470  0.00  0.00     0.006 C 
ENDBRANCH   8  11
ENDBRANCH   7   8
ENDBRANCH   1   7
BRANCH   6  13
ATOM     13  N   LIG d   1      -3.385  76.992 115.358  0.00  0.00    -0.311 N 
ATOM     14  C   LIG d   1      -2.777  77.398 114.244  0.00  0.00     0.210 C 
ATOM     15  C   LIG d   1      -1.974  78.695 114.382  0.00  0.00     0.109 C 
ATOM     16  O   LIG d   1      -2.854  76.824 113.148  0.00  0.00    -0.276 OA
ATOM     17  H   LIG d   1      -3.295  77.536 116.194  0.00  0.00     0.149 HD
ENDBRANCH   6  13
BRANCH   5  18
ATOM     18  N   LIG d   1      -5.919  76.453 113.739  0.00  0.00     0.381 N 
ATOM     19  H   LIG d   1      -6.600  77.186 113.730  0.00  0.00    -0.090 HD
ATOM     20  H   LIG d   1      -6.276  75.684 113.201  0.00  0.00    -0.090 HD
ATOM     21  H   LIG d   1      -5.066  76.779 113.341  0.00  0.00    -0.090 HD
ENDBRANCH   5  18
BRANCH   3  22
ATOM     22  C   LIG d   1      -7.242  73.336 117.125  0.00  0.00     0.382 C 
ATOM     23  O   LIG d   1      -7.839  73.751 118.148  0.00  0.00    -0.241 OA
ATOM     24  O   LIG d   1      -7.539  72.223 116.651  0.00  0.00    -0.241 OA
ENDBRANCH   3  22
TORSDOF 7
ENDMDL
MODEL 8
REMARK VINA RESULT:      -4.5     15.315     17.712
REMARK  7 active torsions:
REMARK  status: ('A' for Active; 'I' for Inactive)
REMARK    1  A    between atoms: C_2  and  C_3 
REMARK    2  A    between atoms: C_3  and  O_6 
REMARK    3  A    between atoms: C_3  and  C_4 
REMARK    4  A    between atoms: C_7  and  O_6 
REMARK    5  A    between atoms: C_9  and  C_10 
REMARK    6  A    between atoms: N_15  and  C_14 
REMARK    7  A    between atoms: N_20  and  C_19 
REMARK       I    between atoms: C_22  and  N_20 
ROOT
ATOM      1  C   LIG d   1       2.902  89.045 116.336  0.00  0.00     0.161 C 
ATOM      2  C   LIG d   1       3.409  90.210 116.936  0.00  0.00     0.016 C 
ATOM      3  C   LIG d   1       4.621  90.823 116.542  0.00  0.00     0.038 C 
ATOM      4  C   LIG d   1       5.335  90.396 115.413  0.00  0.00     0.028 C 
ATOM      5  C   LIG d   1       5.128  88.920 115.087  0.00  0.00    -0.047 C 
ATOM      6  C   LIG d   1       3.611  88.628 115.031  0.00  0.00     0.091 C 
ENDROOT
BRANCH   1   7
ATOM      7  O   LIG d   1       1.485  89.187 116.114  0.00  0.00    -0.368 OA
BRANCH   7   8
ATOM      8  C   LIG d   1       0.622  88.720 117.180  0.00  0.00     0.119 C 
BRANCH   8   9
ATOM      9  C   LIG d   1       0.159  87.298 116.811  0.00  0.00     0.028 C 
ATOM     10  C   LIG d   1       0.964  86.210 117.541  0.00  0.00     0.006 C 
ENDBRANCH   8   9
BRANCH   8  11
ATOM     11  C   LIG d   1      -0.659  89.555 117.265  0.00  0.00     0.028 C 
ATOM     12  C   LIG d   1      -1.921  88.693 117.431  0.00  0.00     0.006 C 
ENDBRANCH   8  11
ENDBRANCH   7   8
ENDBRANCH   1   7
BRANCH   6  13
ATOM     13  N   LIG d   1       3.319  87.189 114.800  0.00  0.00    -0.311 N 
ATOM     14  C   LIG d   1       2.581  86.744 113.785  0.00  0.00     0.210 C 
ATOM     15  C   LIG d   1       2.387  85.225 113.744  0.00  0.00     0.109 C 
ATOM     16  O   LIG d   1       2.094  87.460 112.897  0.00  0.00    -0.276 OA
ATOM     17  H   LIG d   1       3.701  86.536 115.456  0.00  0.00     0.149 HD
ENDBRANCH   6  13
BRANCH   5  18
ATOM     18  N   LIG d   1       5.818  88.644 113.813  0.00  0.00     0.381 N 
ATOM     19  H   LIG d   1       6.431  89.402 113.588  0.00  0.00    -0.090 HD
ATOM     20  H   LIG d   1       5.132  88.565 113.082  0.00  0.00    -0.090 HD
ATOM     21  H   LIG d   1       6.337  87.797 113.884  0.00  0.00    -0.090 HD
ENDBRANCH   5  18
BRANCH   3  22
ATOM     22  C   LIG d   1       5.149  91.853 117.305  0.00  0.00     0.382 C 
ATOM     23  O   LIG d   1       4.636  92.996 117.257  0.00  0.00    -0.241 OA
ATOM     24  O   LIG d   1       6.161  91.664 118.007  0.00  0.00    -0.241 OA
ENDBRANCH   3  22
TORSDOF 7
ENDMDL
MODEL 9
REMARK VINA RESULT:      -4.5     16.003     18.244
REMARK  7 active torsions:
REMARK  status: ('A' for Active; 'I' for Inactive)
REMARK    1  A    between atoms: C_2  and  C_3 
REMARK    2  A    between atoms: C_3  and  O_6 
REMARK    3  A    between atoms: C_3  and  C_4 
REMARK    4  A    between atoms: C_7  and  O_6 
REMARK    5  A    between atoms: C_9  and  C_10 
REMARK    6  A    between atoms: N_15  and  C_14 
REMARK    7  A    between atoms: N_20  and  C_19 
REMARK       I    between atoms: C_22  and  N_20 
ROOT
ATOM      1  C   LIG d   1       4.684  87.425 116.582  0.00  0.00     0.161 C 
ATOM      2  C   LIG d   1       3.823  88.499 116.303  0.00  0.00     0.016 C 
ATOM      3  C   LIG d   1       4.221  89.853 116.370  0.00  0.00     0.038 C 
ATOM      4  C   LIG d   1       5.559  90.224 116.573  0.00  0.00     0.028 C 
ATOM      5  C   LIG d   1       6.361  89.190 117.358  0.00  0.00    -0.047 C 
ATOM      6  C   LIG d   1       6.175  87.805 116.697  0.00  0.00     0.091 C 
ENDROOT
BRANCH   1   7
ATOM      7  O   LIG d   1       4.507  86.388 115.596  0.00  0.00    -0.368 OA
BRANCH   7   8
ATOM      8  C   LIG d   1       4.062  86.821 114.288  0.00  0.00     0.119 C 
BRANCH   8   9
ATOM      9  C   LIG d   1       2.973  85.836 113.819  0.00  0.00     0.028 C 
ATOM     10  C   LIG d   1       1.553  86.344 114.121  0.00  0.00     0.006 C 
ENDBRANCH   8   9
BRANCH   8  11
ATOM     11  C   LIG d   1       5.184  86.708 113.252  0.00  0.00     0.028 C 
ATOM     12  C   LIG d   1       6.020  87.993 113.136  0.00  0.00     0.006 C 
ENDBRANCH   8  11
ENDBRANCH   7   8
ENDBRANCH   1   7
BRANCH   6  13
ATOM     13  N   LIG d   1       6.859  86.722 117.451  0.00  0.00    -0.311 N 
ATOM     14  C   LIG d   1       8.079  86.279 117.154  0.00  0.00     0.210 C 
ATOM     15  C   LIG d   1       8.589  85.142 118.045  0.00  0.00     0.109 C 
ATOM     16  O   LIG d   1       8.801  86.742 116.257  0.00  0.00    -0.276 OA
ATOM     17  H   LIG d   1       6.358  86.311 118.214  0.00  0.00     0.149 HD
ENDBRANCH   6  13
BRANCH   5  18
ATOM     18  N   LIG d   1       7.766  89.638 117.377  0.00  0.00     0.381 N 
ATOM     19  H   LIG d   1       8.014  90.015 116.485  0.00  0.00    -0.090 HD
ATOM     20  H   LIG d   1       8.357  88.846 117.561  0.00  0.00    -0.090 HD
ATOM     21  H   LIG d   1       7.894  90.328 118.085  0.00  0.00    -0.090 HD
ENDBRANCH   5  18
BRANCH   3  22
ATOM     22  C   LIG d   1       3.268  90.856 116.271  0.00  0.00     0.382 C 
ATOM     23  O   LIG d   1       2.138  90.601 115.788  0.00  0.00    -0.241 OA
ATOM     24  O   LIG d   1       3.539  92.021 116.616  0.00  0.00    -0.241 OA
ENDBRANCH   3  22
TORSDOF 7
ENDMDL
