MODEL 1
REMARK VINA RESULT:      -5.4      0.000      0.000
REMARK  7 active torsions:
REMARK  status: ('A' for Active; 'I' for Inactive)
REMARK    1  A    between atoms: C_2  and  C_3 
REMARK    2  A    between atoms: C_3  and  O_6 
REMARK    3  A    between atoms: C_3  and  C_4 
REMARK    4  A    between atoms: C_7  and  O_6 
REMARK    5  A    between atoms: C_9  and  C_10 
REMARK    6  A    between atoms: N_15  and  C_14 
REMARK    7  A    between atoms: N_20  and  C_19 
REMARK       I    between atoms: C_22  and  N_20 
ROOT
ATOM      1  C   LIG d   1      -6.973  77.438 117.217  0.00  0.00     0.161 C 
ATOM      2  C   LIG d   1      -8.235  77.940 117.578  0.00  0.00     0.016 C 
ATOM      3  C   LIG d   1      -8.470  79.296 117.901  0.00  0.00     0.038 C 
ATOM      4  C   LIG d   1      -7.483  80.279 117.737  0.00  0.00     0.028 C 
ATOM      5  C   LIG d   1      -6.063  79.738 117.859  0.00  0.00    -0.047 C 
ATOM      6  C   LIG d   1      -5.908  78.516 116.924  0.00  0.00     0.091 C 
ENDROOT
BRANCH   1   7
ATOM      7  O   LIG d   1      -7.105  76.547 116.092  0.00  0.00    -0.368 OA
BRANCH   7   8
ATOM      8  C   LIG d   1      -6.487  75.244 116.235  0.00  0.00     0.119 C 
BRANCH   8   9
ATOM      9  C   LIG d   1      -5.609  75.009 114.991  0.00  0.00     0.028 C 
ATOM     10  C   LIG d   1      -5.752  76.133 113.951  0.00  0.00     0.006 C 
ENDBRANCH   8   9
BRANCH   8  11
ATOM     11  C   LIG d   1      -7.533  74.126 116.210  0.00  0.00     0.028 C 
ATOM     12  C   LIG d   1      -6.933  72.757 115.852  0.00  0.00     0.006 C 
ENDBRANCH   8  11
ENDBRANCH   7   8
ENDBRANCH   1   7
BRANCH   6  13
ATOM     13  N   LIG d   1      -4.573  77.875 117.046  0.00  0.00    -0.311 N 
ATOM     14  C   LIG d   1      -3.559  78.131 116.221  0.00  0.00     0.210 C 
ATOM     15  C   LIG d   1      -2.276  77.346 116.511  0.00  0.00     0.109 C 
ATOM     16  O   LIG d   1      -3.591  78.957 115.297  0.00  0.00    -0.276 OA
ATOM     17  H   LIG d   1      -4.451  77.214 117.788  0.00  0.00     0.149 HD
ENDBRANCH   6  13
BRANCH   5  18
ATOM     18  N   LIG d   1      -5.136  80.838 117.531  0.00  0.00     0.381 N 
ATOM     19  H   LIG d   1      -5.515  81.707 117.852  0.00  0.00    -0.090 HD
ATOM     20  H   LIG d   1      -5.034  80.889 116.532  0.00  0.00    -0.090 HD
ATOM     21  H   LIG d   1      -4.250  80.676 117.955  0.00  0.00    -0.090 HD
ENDBRANCH   5  18
BRANCH   3  22
ATOM     22  C   LIG d   1      -9.694  79.674 118.432  0.00  0.00     0.382 C 
ATOM     23  O   LIG d   1     -10.686  78.913 118.325  0.00  0.00    -0.241 OA
ATOM     24  O   LIG d   1      -9.829  80.785 118.978  0.00  0.00    -0.241 OA
ENDBRANCH   3  22
TORSDOF 7
ENDMDL
MODEL 2
REMARK VINA RESULT:      -5.4      3.269      5.716
REMARK  7 active torsions:
REMARK  status: ('A' for Active; 'I' for Inactive)
REMARK    1  A    between atoms: C_2  and  C_3 
REMARK    2  A    between atoms: C_3  and  O_6 
REMARK    3  A    between atoms: C_3  and  C_4 
REMARK    4  A    between atoms: C_7  and  O_6 
REMARK    5  A    between atoms: C_9  and  C_10 
REMARK    6  A    between atoms: N_15  and  C_14 
REMARK    7  A    between atoms: N_20  and  C_19 
REMARK       I    between atoms: C_22  and  N_20 
ROOT
ATOM      1  C   LIG d   1      -3.029  77.879 116.900  0.00  0.00     0.161 C 
ATOM      2  C   LIG d   1      -3.146  78.903 115.946  0.00  0.00     0.016 C 
ATOM      3  C   LIG d   1      -2.301  79.016 114.818  0.00  0.00     0.038 C 
ATOM      4  C   LIG d   1      -1.371  78.020 114.486  0.00  0.00     0.028 C 
ATOM      5  C   LIG d   1      -0.874  77.228 115.691  0.00  0.00    -0.047 C 
ATOM      6  C   LIG d   1      -2.093  76.721 116.495  0.00  0.00     0.091 C 
ENDROOT
BRANCH   1   7
ATOM      7  O   LIG d   1      -4.336  77.373 117.236  0.00  0.00    -0.368 OA
BRANCH   7   8
ATOM      8  C   LIG d   1      -5.335  77.443 116.190  0.00  0.00     0.119 C 
BRANCH   8   9
ATOM      9  C   LIG d   1      -6.659  77.885 116.843  0.00  0.00     0.028 C 
ATOM     10  C   LIG d   1      -7.760  76.818 116.718  0.00  0.00     0.006 C 
ENDBRANCH   8   9
BRANCH   8  11
ATOM     11  C   LIG d   1      -5.618  76.061 115.595  0.00  0.00     0.028 C 
ATOM     12  C   LIG d   1      -4.927  75.842 114.240  0.00  0.00     0.006 C 
ENDBRANCH   8  11
ENDBRANCH   7   8
ENDBRANCH   1   7
BRANCH   6  13
ATOM     13  N   LIG d   1      -1.696  76.008 117.737  0.00  0.00    -0.311 N 
ATOM     14  C   LIG d   1      -1.444  74.701 117.783  0.00  0.00     0.210 C 
ATOM     15  C   LIG d   1      -1.070  74.163 119.168  0.00  0.00     0.109 C 
ATOM     16  O   LIG d   1      -1.465  73.942 116.803  0.00  0.00    -0.276 OA
ATOM     17  H   LIG d   1      -1.625  76.554 118.573  0.00  0.00     0.149 HD
ENDBRANCH   6  13
BRANCH   5  18
ATOM     18  N   LIG d   1      -0.020  76.137 115.186  0.00  0.00     0.381 N 
ATOM     19  H   LIG d   1       0.916  76.257 115.519  0.00  0.00    -0.090 HD
ATOM     20  H   LIG d   1      -0.004  76.174 114.182  0.00  0.00    -0.090 HD
ATOM     21  H   LIG d   1      -0.377  75.257 115.487  0.00  0.00    -0.090 HD
ENDBRANCH   5  18
BRANCH   3  22
ATOM     22  C   LIG d   1      -2.354  80.157 114.031  0.00  0.00     0.382 C 
ATOM     23  O   LIG d   1      -3.464  80.642 113.705  0.00  0.00    -0.241 OA
ATOM     24  O   LIG d   1      -1.307  80.680 113.606  0.00  0.00    -0.241 OA
ENDBRANCH   3  22
TORSDOF 7
ENDMDL
MODEL 3
REMARK VINA RESULT:      -5.3      2.437      5.564
REMARK  7 active torsions:
REMARK  status: ('A' for Active; 'I' for Inactive)
REMARK    1  A    between atoms: C_2  and  C_3 
REMARK    2  A    between atoms: C_3  and  O_6 
REMARK    3  A    between atoms: C_3  and  C_4 
REMARK    4  A    between atoms: C_7  and  O_6 
REMARK    5  A    between atoms: C_9  and  C_10 
REMARK    6  A    between atoms: N_15  and  C_14 
REMARK    7  A    between atoms: N_20  and  C_19 
REMARK       I    between atoms: C_22  and  N_20 
ROOT
ATOM      1  C   LIG d   1      -4.277  77.212 115.631  0.00  0.00     0.161 C 
ATOM      2  C   LIG d   1      -3.429  76.107 115.444  0.00  0.00     0.016 C 
ATOM      3  C   LIG d   1      -2.470  75.692 116.396  0.00  0.00     0.038 C 
ATOM      4  C   LIG d   1      -2.398  76.265 117.674  0.00  0.00     0.028 C 
ATOM      5  C   LIG d   1      -2.890  77.708 117.720  0.00  0.00    -0.047 C 
ATOM      6  C   LIG d   1      -4.289  77.781 117.065  0.00  0.00     0.091 C 
ENDROOT
BRANCH   1   7
ATOM      7  O   LIG d   1      -5.615  76.877 115.214  0.00  0.00    -0.368 OA
BRANCH   7   8
ATOM      8  C   LIG d   1      -6.331  75.942 116.059  0.00  0.00     0.119 C 
BRANCH   8   9
ATOM      9  C   LIG d   1      -6.311  74.572 115.355  0.00  0.00     0.028 C 
ATOM     10  C   LIG d   1      -7.079  73.497 116.141  0.00  0.00     0.006 C 
ENDBRANCH   8   9
BRANCH   8  11
ATOM     11  C   LIG d   1      -7.812  76.317 116.174  0.00  0.00     0.028 C 
ATOM     12  C   LIG d   1      -8.062  77.459 117.172  0.00  0.00     0.006 C 
ENDBRANCH   8  11
ENDBRANCH   7   8
ENDBRANCH   1   7
BRANCH   6  13
ATOM     13  N   LIG d   1      -4.808  79.172 116.993  0.00  0.00    -0.311 N 
ATOM     14  C   LIG d   1      -5.501  79.748 117.973  0.00  0.00     0.210 C 
ATOM     15  C   LIG d   1      -5.960  81.181 117.686  0.00  0.00     0.109 C 
ATOM     16  O   LIG d   1      -5.752  79.219 119.067  0.00  0.00    -0.276 OA
ATOM     17  H   LIG d   1      -4.623  79.684 116.153  0.00  0.00     0.149 HD
ENDBRANCH   6  13
BRANCH   5  18
ATOM     18  N   LIG d   1      -2.889  78.135 119.132  0.00  0.00     0.381 N 
ATOM     19  H   LIG d   1      -3.041  79.122 119.187  0.00  0.00    -0.090 HD
ATOM     20  H   LIG d   1      -1.991  77.930 119.532  0.00  0.00    -0.090 HD
ATOM     21  H   LIG d   1      -3.603  77.653 119.634  0.00  0.00    -0.090 HD
ENDBRANCH   5  18
BRANCH   3  22
ATOM     22  C   LIG d   1      -1.544  74.717 116.058  0.00  0.00     0.382 C 
ATOM     23  O   LIG d   1      -1.178  74.587 114.865  0.00  0.00    -0.241 OA
ATOM     24  O   LIG d   1      -1.102  73.938 116.923  0.00  0.00    -0.241 OA
ENDBRANCH   3  22
TORSDOF 7
ENDMDL
MODEL 4
REMARK VINA RESULT:      -5.2      3.994      6.000
REMARK  7 active torsions:
REMARK  status: ('A' for Active; 'I' for Inactive)
REMARK    1  A    between atoms: C_2  and  C_3 
REMARK    2  A    between atoms: C_3  and  O_6 
REMARK    3  A    between atoms: C_3  and  C_4 
REMARK    4  A    between atoms: C_7  and  O_6 
REMARK    5  A    between atoms: C_9  and  C_10 
REMARK    6  A    between atoms: N_15  and  C_14 
REMARK    7  A    between atoms: N_20  and  C_19 
REMARK       I    between atoms: C_22  and  N_20 
ROOT
ATOM      1  C   LIG d   1      -2.791  75.820 116.002  0.00  0.00     0.161 C 
ATOM      2  C   LIG d   1      -2.390  74.972 117.048  0.00  0.00     0.016 C 
ATOM      3  C   LIG d   1      -1.239  75.200 117.836  0.00  0.00     0.038 C 
ATOM      4  C   LIG d   1      -0.488  76.380 117.729  0.00  0.00     0.028 C 
ATOM      5  C   LIG d   1      -0.563  77.022 116.348  0.00  0.00    -0.047 C 
ATOM      6  C   LIG d   1      -2.047  77.171 115.944  0.00  0.00     0.091 C 
ENDROOT
BRANCH   1   7
ATOM      7  O   LIG d   1      -4.215  76.035 116.065  0.00  0.00    -0.368 OA
BRANCH   7   8
ATOM      8  C   LIG d   1      -5.046  74.918 115.664  0.00  0.00     0.119 C 
BRANCH   8   9
ATOM      9  C   LIG d   1      -5.346  75.081 114.161  0.00  0.00     0.028 C 
ATOM     10  C   LIG d   1      -6.074  76.398 113.847  0.00  0.00     0.006 C 
ENDBRANCH   8   9
BRANCH   8  11
ATOM     11  C   LIG d   1      -6.411  74.962 116.357  0.00  0.00     0.028 C 
ATOM     12  C   LIG d   1      -7.222  73.672 116.157  0.00  0.00     0.006 C 
ENDBRANCH   8  11
ENDBRANCH   7   8
ENDBRANCH   1   7
BRANCH   6  13
ATOM     13  N   LIG d   1      -2.208  77.714 114.569  0.00  0.00    -0.311 N 
ATOM     14  C   LIG d   1      -2.858  78.845 114.300  0.00  0.00     0.210 C 
ATOM     15  C   LIG d   1      -2.925  79.214 112.814  0.00  0.00     0.109 C 
ATOM     16  O   LIG d   1      -3.358  79.594 115.152  0.00  0.00    -0.276 OA
ATOM     17  H   LIG d   1      -1.806  77.185 113.820  0.00  0.00     0.149 HD
ENDBRANCH   6  13
BRANCH   5  18
ATOM     18  N   LIG d   1       0.150  78.312 116.418  0.00  0.00     0.381 N 
ATOM     19  H   LIG d   1       0.371  78.626 115.494  0.00  0.00    -0.090 HD
ATOM     20  H   LIG d   1       1.010  78.182 116.921  0.00  0.00    -0.090 HD
ATOM     21  H   LIG d   1      -0.415  78.989 116.880  0.00  0.00    -0.090 HD
ENDBRANCH   5  18
BRANCH   3  22
ATOM     22  C   LIG d   1      -0.805  74.221 118.717  0.00  0.00     0.382 C 
ATOM     23  O   LIG d   1       0.092  74.483 119.554  0.00  0.00    -0.241 OA
ATOM     24  O   LIG d   1      -1.267  73.065 118.655  0.00  0.00    -0.241 OA
ENDBRANCH   3  22
TORSDOF 7
ENDMDL
MODEL 5
REMARK VINA RESULT:      -5.1      2.245      3.331
REMARK  7 active torsions:
REMARK  status: ('A' for Active; 'I' for Inactive)
REMARK    1  A    between atoms: C_2  and  C_3 
REMARK    2  A    between atoms: C_3  and  O_6 
REMARK    3  A    between atoms: C_3  and  C_4 
REMARK    4  A    between atoms: C_7  and  O_6 
REMARK    5  A    between atoms: C_9  and  C_10 
REMARK    6  A    between atoms: N_15  and  C_14 
REMARK    7  A    between atoms: N_20  and  C_19 
REMARK       I    between atoms: C_22  and  N_20 
ROOT
ATOM      1  C   LIG d   1      -4.742  76.729 117.705  0.00  0.00     0.161 C 
ATOM      2  C   LIG d   1      -5.688  77.762 117.604  0.00  0.00     0.016 C 
ATOM      3  C   LIG d   1      -5.361  79.083 117.221  0.00  0.00     0.038 C 
ATOM      4  C   LIG d   1      -4.080  79.426 116.764  0.00  0.00     0.028 C 
ATOM      5  C   LIG d   1      -2.977  78.538 117.330  0.00  0.00    -0.047 C 
ATOM      6  C   LIG d   1      -3.359  77.057 117.104  0.00  0.00     0.091 C 
ENDROOT
BRANCH   1   7
ATOM      7  O   LIG d   1      -5.270  75.523 117.118  0.00  0.00    -0.368 OA
BRANCH   7   8
ATOM      8  C   LIG d   1      -6.152  75.700 115.982  0.00  0.00     0.119 C 
BRANCH   8   9
ATOM      9  C   LIG d   1      -7.357  74.760 116.181  0.00  0.00     0.028 C 
ATOM     10  C   LIG d   1      -6.970  73.277 116.058  0.00  0.00     0.006 C 
ENDBRANCH   8   9
BRANCH   8  11
ATOM     11  C   LIG d   1      -5.486  75.238 114.683  0.00  0.00     0.028 C 
ATOM     12  C   LIG d   1      -4.958  76.406 113.835  0.00  0.00     0.006 C 
ENDBRANCH   8  11
ENDBRANCH   7   8
ENDBRANCH   1   7
BRANCH   6  13
ATOM     13  N   LIG d   1      -2.374  76.119 117.702  0.00  0.00    -0.311 N 
ATOM     14  C   LIG d   1      -1.847  75.089 117.042  0.00  0.00     0.210 C 
ATOM     15  C   LIG d   1      -0.866  74.236 117.852  0.00  0.00     0.109 C 
ATOM     16  O   LIG d   1      -2.075  74.821 115.853  0.00  0.00    -0.276 OA
ATOM     17  H   LIG d   1      -2.109  76.282 118.654  0.00  0.00     0.149 HD
ENDBRANCH   6  13
BRANCH   5  18
ATOM     18  N   LIG d   1      -1.715  78.917 116.666  0.00  0.00     0.381 N 
ATOM     19  H   LIG d   1      -1.091  79.325 117.333  0.00  0.00    -0.090 HD
ATOM     20  H   LIG d   1      -1.913  79.602 115.959  0.00  0.00    -0.090 HD
ATOM     21  H   LIG d   1      -1.293  78.114 116.253  0.00  0.00    -0.090 HD
ENDBRANCH   5  18
BRANCH   3  22
ATOM     22  C   LIG d   1      -6.311  80.086 117.331  0.00  0.00     0.382 C 
ATOM     23  O   LIG d   1      -7.527  79.790 117.423  0.00  0.00    -0.241 OA
ATOM     24  O   LIG d   1      -5.972  81.284 117.296  0.00  0.00    -0.241 OA
ENDBRANCH   3  22
TORSDOF 7
ENDMDL
MODEL 6
REMARK VINA RESULT:      -5.1      2.945      4.810
REMARK  7 active torsions:
REMARK  status: ('A' for Active; 'I' for Inactive)
REMARK    1  A    between atoms: C_2  and  C_3 
REMARK    2  A    between atoms: C_3  and  O_6 
REMARK    3  A    between atoms: C_3  and  C_4 
REMARK    4  A    between atoms: C_7  and  O_6 
REMARK    5  A    between atoms: C_9  and  C_10 
REMARK    6  A    between atoms: N_15  and  C_14 
REMARK    7  A    between atoms: N_20  and  C_19 
REMARK       I    between atoms: C_22  and  N_20 
ROOT
ATOM      1  C   LIG d   1      -4.602  75.846 116.569  0.00  0.00     0.161 C 
ATOM      2  C   LIG d   1      -5.259  74.667 116.180  0.00  0.00     0.016 C 
ATOM      3  C   LIG d   1      -6.666  74.528 116.164  0.00  0.00     0.038 C 
ATOM      4  C   LIG d   1      -7.520  75.617 116.394  0.00  0.00     0.028 C 
ATOM      5  C   LIG d   1      -6.905  76.693 117.282  0.00  0.00    -0.047 C 
ATOM      6  C   LIG d   1      -5.519  77.078 116.716  0.00  0.00     0.091 C 
ENDROOT
BRANCH   1   7
ATOM      7  O   LIG d   1      -3.524  76.130 115.655  0.00  0.00    -0.368 OA
BRANCH   7   8
ATOM      8  C   LIG d   1      -2.196  76.176 116.231  0.00  0.00     0.119 C 
BRANCH   8   9
ATOM      9  C   LIG d   1      -1.308  77.002 115.281  0.00  0.00     0.028 C 
ATOM     10  C   LIG d   1      -2.060  77.452 114.017  0.00  0.00     0.006 C 
ENDBRANCH   8   9
BRANCH   8  11
ATOM     11  C   LIG d   1      -1.558  74.784 116.274  0.00  0.00     0.028 C 
ATOM     12  C   LIG d   1      -1.196  74.338 117.700  0.00  0.00     0.006 C 
ENDBRANCH   8  11
ENDBRANCH   7   8
ENDBRANCH   1   7
BRANCH   6  13
ATOM     13  N   LIG d   1      -4.812  78.065 117.573  0.00  0.00    -0.311 N 
ATOM     14  C   LIG d   1      -4.213  79.155 117.095  0.00  0.00     0.210 C 
ATOM     15  C   LIG d   1      -3.525  80.029 118.148  0.00  0.00     0.109 C 
ATOM     16  O   LIG d   1      -4.215  79.498 115.903  0.00  0.00    -0.276 OA
ATOM     17  H   LIG d   1      -4.788  77.882 118.557  0.00  0.00     0.149 HD
ENDBRANCH   6  13
BRANCH   5  18
ATOM     18  N   LIG d   1      -7.847  77.827 117.326  0.00  0.00     0.381 N 
ATOM     19  H   LIG d   1      -8.700  77.543 117.766  0.00  0.00    -0.090 HD
ATOM     20  H   LIG d   1      -8.057  78.112 116.385  0.00  0.00    -0.090 HD
ATOM     21  H   LIG d   1      -7.443  78.587 117.828  0.00  0.00    -0.090 HD
ENDBRANCH   5  18
BRANCH   3  22
ATOM     22  C   LIG d   1      -7.231  73.280 115.955  0.00  0.00     0.382 C 
ATOM     23  O   LIG d   1      -8.449  73.095 116.194  0.00  0.00    -0.241 OA
ATOM     24  O   LIG d   1      -6.529  72.324 115.574  0.00  0.00    -0.241 OA
ENDBRANCH   3  22
TORSDOF 7
ENDMDL
MODEL 7
REMARK VINA RESULT:      -5.0     12.963     15.886
REMARK  7 active torsions:
REMARK  status: ('A' for Active; 'I' for Inactive)
REMARK    1  A    between atoms: C_2  and  C_3 
REMARK    2  A    between atoms: C_3  and  O_6 
REMARK    3  A    between atoms: C_3  and  C_4 
REMARK    4  A    between atoms: C_7  and  O_6 
REMARK    5  A    between atoms: C_9  and  C_10 
REMARK    6  A    between atoms: N_15  and  C_14 
REMARK    7  A    between atoms: N_20  and  C_19 
REMARK       I    between atoms: C_22  and  N_20 
ROOT
ATOM      1  C   LIG d   1     -16.095  65.810 114.957  0.00  0.00     0.161 C 
ATOM      2  C   LIG d   1     -15.612  66.841 114.134  0.00  0.00     0.016 C 
ATOM      3  C   LIG d   1     -14.820  67.911 114.611  0.00  0.00     0.038 C 
ATOM      4  C   LIG d   1     -14.328  67.941 115.925  0.00  0.00     0.028 C 
ATOM      5  C   LIG d   1     -15.206  67.186 116.918  0.00  0.00    -0.047 C 
ATOM      6  C   LIG d   1     -15.476  65.766 116.370  0.00  0.00     0.091 C 
ENDROOT
BRANCH   1   7
ATOM      7  O   LIG d   1     -15.927  64.539 114.297  0.00  0.00    -0.368 OA
BRANCH   7   8
ATOM      8  C   LIG d   1     -17.119  63.965 113.707  0.00  0.00     0.119 C 
BRANCH   8   9
ATOM      9  C   LIG d   1     -18.329  64.748 114.252  0.00  0.00     0.028 C 
ATOM     10  C   LIG d   1     -19.202  65.335 113.131  0.00  0.00     0.006 C 
ENDBRANCH   8   9
BRANCH   8  11
ATOM     11  C   LIG d   1     -17.330  62.520 114.170  0.00  0.00     0.028 C 
ATOM     12  C   LIG d   1     -18.569  62.356 115.065  0.00  0.00     0.006 C 
ENDBRANCH   8  11
ENDBRANCH   7   8
ENDBRANCH   1   7
BRANCH   6  13
ATOM     13  N   LIG d   1     -16.396  64.988 117.240  0.00  0.00    -0.311 N 
ATOM     14  C   LIG d   1     -16.179  63.722 117.590  0.00  0.00     0.210 C 
ATOM     15  C   LIG d   1     -17.263  63.101 118.477  0.00  0.00     0.109 C 
ATOM     16  O   LIG d   1     -15.175  63.064 117.277  0.00  0.00    -0.276 OA
ATOM     17  H   LIG d   1     -17.220  65.455 117.565  0.00  0.00     0.149 HD
ENDBRANCH   6  13
BRANCH   5  18
ATOM     18  N   LIG d   1     -14.507  67.181 118.216  0.00  0.00     0.381 N 
ATOM     19  H   LIG d   1     -13.718  66.566 118.175  0.00  0.00    -0.090 HD
ATOM     20  H   LIG d   1     -15.135  66.841 118.923  0.00  0.00    -0.090 HD
ATOM     21  H   LIG d   1     -14.206  68.103 118.445  0.00  0.00    -0.090 HD
ENDBRANCH   5  18
BRANCH   3  22
ATOM     22  C   LIG d   1     -14.546  68.987 113.781  0.00  0.00     0.382 C 
ATOM     23  O   LIG d   1     -15.297  69.233 112.806  0.00  0.00    -0.241 OA
ATOM     24  O   LIG d   1     -13.533  69.687 113.968  0.00  0.00    -0.241 OA
ENDBRANCH   3  22
TORSDOF 7
ENDMDL
MODEL 8
REMARK VINA RESULT:      -4.9      2.676      5.972
REMARK  7 active torsions:
REMARK  status: ('A' for Active; 'I' for Inactive)
REMARK    1  A    between atoms: C_2  and  C_3 
REMARK    2  A    between atoms: C_3  and  O_6 
REMARK    3  A    between atoms: C_3  and  C_4 
REMARK    4  A    between atoms: C_7  and  O_6 
REMARK    5  A    between atoms: C_9  and  C_10 
REMARK    6  A    between atoms: N_15  and  C_14 
REMARK    7  A    between atoms: N_20  and  C_19 
REMARK       I    between atoms: C_22  and  N_20 
ROOT
ATOM      1  C   LIG d   1      -3.773  78.799 116.901  0.00  0.00     0.161 C 
ATOM      2  C   LIG d   1      -2.882  79.733 117.454  0.00  0.00     0.016 C 
ATOM      3  C   LIG d   1      -1.525  79.838 117.069  0.00  0.00     0.038 C 
ATOM      4  C   LIG d   1      -1.003  79.110 115.990  0.00  0.00     0.028 C 
ATOM      5  C   LIG d   1      -1.732  77.795 115.737  0.00  0.00    -0.047 C 
ATOM      6  C   LIG d   1      -3.250  78.072 115.645  0.00  0.00     0.091 C 
ENDROOT
BRANCH   1   7
ATOM      7  O   LIG d   1      -5.037  79.433 116.624  0.00  0.00    -0.368 OA
BRANCH   7   8
ATOM      8  C   LIG d   1      -6.075  79.249 117.617  0.00  0.00     0.119 C 
BRANCH   8   9
ATOM      9  C   LIG d   1      -7.022  78.149 117.099  0.00  0.00     0.028 C 
ATOM     10  C   LIG d   1      -6.813  76.807 117.820  0.00  0.00     0.006 C 
ENDBRANCH   8   9
BRANCH   8  11
ATOM     11  C   LIG d   1      -6.944  80.502 117.754  0.00  0.00     0.028 C 
ATOM     12  C   LIG d   1      -8.434  80.175 117.948  0.00  0.00     0.006 C 
ENDBRANCH   8  11
ENDBRANCH   7   8
ENDBRANCH   1   7
BRANCH   6  13
ATOM     13  N   LIG d   1      -4.045  76.826 115.482  0.00  0.00    -0.311 N 
ATOM     14  C   LIG d   1      -4.396  76.330 114.297  0.00  0.00     0.210 C 
ATOM     15  C   LIG d   1      -5.231  75.048 114.355  0.00  0.00     0.109 C 
ATOM     16  O   LIG d   1      -4.067  76.813 113.203  0.00  0.00    -0.276 OA
ATOM     17  H   LIG d   1      -4.327  76.353 116.318  0.00  0.00     0.149 HD
ENDBRANCH   6  13
BRANCH   5  18
ATOM     18  N   LIG d   1      -1.176  77.207 114.504  0.00  0.00     0.381 N 
ATOM     19  H   LIG d   1      -0.176  77.200 114.553  0.00  0.00    -0.090 HD
ATOM     20  H   LIG d   1      -1.449  77.774 113.721  0.00  0.00    -0.090 HD
ATOM     21  H   LIG d   1      -1.516  76.278 114.385  0.00  0.00    -0.090 HD
ENDBRANCH   5  18
BRANCH   3  22
ATOM     22  C   LIG d   1      -0.666  80.649 117.794  0.00  0.00     0.382 C 
ATOM     23  O   LIG d   1       0.290  81.223 117.218  0.00  0.00    -0.241 OA
ATOM     24  O   LIG d   1      -0.807  80.780 119.024  0.00  0.00    -0.241 OA
ENDBRANCH   3  22
TORSDOF 7
ENDMDL
MODEL 9
REMARK VINA RESULT:      -4.8      3.263      6.120
REMARK  7 active torsions:
REMARK  status: ('A' for Active; 'I' for Inactive)
REMARK    1  A    between atoms: C_2  and  C_3 
REMARK    2  A    between atoms: C_3  and  O_6 
REMARK    3  A    between atoms: C_3  and  C_4 
REMARK    4  A    between atoms: C_7  and  O_6 
REMARK    5  A    between atoms: C_9  and  C_10 
REMARK    6  A    between atoms: N_15  and  C_14 
REMARK    7  A    between atoms: N_20  and  C_19 
REMARK       I    between atoms: C_22  and  N_20 
ROOT
ATOM      1  C   LIG d   1      -3.482  77.454 114.851  0.00  0.00     0.161 C 
ATOM      2  C   LIG d   1      -2.993  76.167 115.125  0.00  0.00     0.016 C 
ATOM      3  C   LIG d   1      -1.710  75.921 115.667  0.00  0.00     0.038 C 
ATOM      4  C   LIG d   1      -0.883  76.961 116.116  0.00  0.00     0.028 C 
ATOM      5  C   LIG d   1      -1.127  78.283 115.395  0.00  0.00    -0.047 C 
ATOM      6  C   LIG d   1      -2.639  78.606 115.437  0.00  0.00     0.091 C 
ENDROOT
BRANCH   1   7
ATOM      7  O   LIG d   1      -4.850  77.561 115.293  0.00  0.00    -0.368 OA
BRANCH   7   8
ATOM      8  C   LIG d   1      -5.252  76.654 116.349  0.00  0.00     0.119 C 
BRANCH   8   9
ATOM      9  C   LIG d   1      -6.634  76.087 115.972  0.00  0.00     0.028 C 
ATOM     10  C   LIG d   1      -6.606  74.565 115.757  0.00  0.00     0.006 C 
ENDBRANCH   8   9
BRANCH   8  11
ATOM     11  C   LIG d   1      -5.465  77.397 117.671  0.00  0.00     0.028 C 
ATOM     12  C   LIG d   1      -4.207  77.414 118.554  0.00  0.00     0.006 C 
ENDBRANCH   8  11
ENDBRANCH   7   8
ENDBRANCH   1   7
BRANCH   6  13
ATOM     13  N   LIG d   1      -2.976  79.840 114.682  0.00  0.00    -0.311 N 
ATOM     14  C   LIG d   1      -2.442  80.145 113.500  0.00  0.00     0.210 C 
ATOM     15  C   LIG d   1      -2.912  81.475 112.903  0.00  0.00     0.109 C 
ATOM     16  O   LIG d   1      -1.649  79.426 112.875  0.00  0.00    -0.276 OA
ATOM     17  H   LIG d   1      -3.635  80.466 115.102  0.00  0.00     0.149 HD
ENDBRANCH   6  13
BRANCH   5  18
ATOM     18  N   LIG d   1      -0.298  79.310 116.054  0.00  0.00     0.381 N 
ATOM     19  H   LIG d   1      -0.878  80.063 116.368  0.00  0.00    -0.090 HD
ATOM     20  H   LIG d   1       0.359  79.674 115.387  0.00  0.00    -0.090 HD
ATOM     21  H   LIG d   1       0.188  78.911 116.827  0.00  0.00    -0.090 HD
ENDBRANCH   5  18
BRANCH   3  22
ATOM     22  C   LIG d   1      -1.227  74.623 115.728  0.00  0.00     0.382 C 
ATOM     23  O   LIG d   1      -0.807  74.061 114.688  0.00  0.00    -0.241 OA
ATOM     24  O   LIG d   1      -1.246  73.991 116.801  0.00  0.00    -0.241 OA
ENDBRANCH   3  22
TORSDOF 7
ENDMDL
