MODEL 1
REMARK VINA RESULT:      -6.0      0.000      0.000
REMARK  7 active torsions:
REMARK  status: ('A' for Active; 'I' for Inactive)
REMARK    1  A    between atoms: C_2  and  C_3 
REMARK    2  A    between atoms: C_3  and  O_6 
REMARK    3  A    between atoms: C_3  and  C_4 
REMARK    4  A    between atoms: C_7  and  O_6 
REMARK    5  A    between atoms: C_9  and  C_10 
REMARK    6  A    between atoms: N_15  and  C_14 
REMARK    7  A    between atoms: N_20  and  C_19 
REMARK       I    between atoms: C_22  and  N_20 
ROOT
ATOM      1  C   LIG d   1      -7.429  74.486 117.670  0.00  0.00     0.161 C 
ATOM      2  C   LIG d   1      -8.606  75.207 117.934  0.00  0.00     0.016 C 
ATOM      3  C   LIG d   1      -8.680  76.618 117.893  0.00  0.00     0.038 C 
ATOM      4  C   LIG d   1      -7.611  77.404 117.434  0.00  0.00     0.028 C 
ATOM      5  C   LIG d   1      -6.248  76.752 117.641  0.00  0.00    -0.047 C 
ATOM      6  C   LIG d   1      -6.283  75.320 117.060  0.00  0.00     0.091 C 
ENDROOT
BRANCH   1   7
ATOM      7  O   LIG d   1      -7.727  73.354 116.829  0.00  0.00    -0.368 OA
BRANCH   7   8
ATOM      8  C   LIG d   1      -7.921  72.089 117.508  0.00  0.00     0.119 C 
BRANCH   8   9
ATOM      9  C   LIG d   1      -6.962  71.068 116.867  0.00  0.00     0.028 C 
ATOM     10  C   LIG d   1      -6.271  71.621 115.610  0.00  0.00     0.006 C 
ENDBRANCH   8   9
BRANCH   8  11
ATOM     11  C   LIG d   1      -9.328  71.534 117.262  0.00  0.00     0.028 C 
ATOM     12  C   LIG d   1      -9.365  69.998 117.228  0.00  0.00     0.006 C 
ENDBRANCH   8  11
ENDBRANCH   7   8
ENDBRANCH   1   7
BRANCH   6  13
ATOM     13  N   LIG d   1      -5.015  74.582 117.295  0.00  0.00    -0.311 N 
ATOM     14  C   LIG d   1      -4.043  74.487 116.390  0.00  0.00     0.210 C 
ATOM     15  C   LIG d   1      -2.828  73.663 116.829  0.00  0.00     0.109 C 
ATOM     16  O   LIG d   1      -4.057  75.033 115.277  0.00  0.00    -0.276 OA
ATOM     17  H   LIG d   1      -4.906  74.134 118.184  0.00  0.00     0.149 HD
ENDBRANCH   6  13
BRANCH   5  18
ATOM     18  N   LIG d   1      -5.240  77.614 116.996  0.00  0.00     0.381 N 
ATOM     19  H   LIG d   1      -4.971  77.220 116.116  0.00  0.00    -0.090 HD
ATOM     20  H   LIG d   1      -4.426  77.658 117.583  0.00  0.00    -0.090 HD
ATOM     21  H   LIG d   1      -5.610  78.529 116.860  0.00  0.00    -0.090 HD
ENDBRANCH   5  18
BRANCH   3  22
ATOM     22  C   LIG d   1      -9.820  77.260 118.352  0.00  0.00     0.382 C 
ATOM     23  O   LIG d   1     -10.930  76.678 118.302  0.00  0.00    -0.241 OA
ATOM     24  O   LIG d   1      -9.759  78.431 118.774  0.00  0.00    -0.241 OA
ENDBRANCH   3  22
TORSDOF 7
ENDMDL
MODEL 2
REMARK VINA RESULT:      -5.8      0.713      1.748
REMARK  7 active torsions:
REMARK  status: ('A' for Active; 'I' for Inactive)
REMARK    1  A    between atoms: C_2  and  C_3 
REMARK    2  A    between atoms: C_3  and  O_6 
REMARK    3  A    between atoms: C_3  and  C_4 
REMARK    4  A    between atoms: C_7  and  O_6 
REMARK    5  A    between atoms: C_9  and  C_10 
REMARK    6  A    between atoms: N_15  and  C_14 
REMARK    7  A    between atoms: N_20  and  C_19 
REMARK       I    between atoms: C_22  and  N_20 
ROOT
ATOM      1  C   LIG d   1      -6.976  74.372 118.383  0.00  0.00     0.161 C 
ATOM      2  C   LIG d   1      -8.191  75.062 118.526  0.00  0.00     0.016 C 
ATOM      3  C   LIG d   1      -8.490  76.262 117.840  0.00  0.00     0.038 C 
ATOM      4  C   LIG d   1      -7.648  76.776 116.843  0.00  0.00     0.028 C 
ATOM      5  C   LIG d   1      -6.184  76.389 117.028  0.00  0.00    -0.047 C 
ATOM      6  C   LIG d   1      -6.090  74.858 117.217  0.00  0.00     0.091 C 
ENDROOT
BRANCH   1   7
ATOM      7  O   LIG d   1      -7.228  72.958 118.267  0.00  0.00    -0.368 OA
BRANCH   7   8
ATOM      8  C   LIG d   1      -7.766  72.509 116.999  0.00  0.00     0.119 C 
BRANCH   8   9
ATOM      9  C   LIG d   1      -9.210  72.034 117.251  0.00  0.00     0.028 C 
ATOM     10  C   LIG d   1      -9.344  70.504 117.187  0.00  0.00     0.006 C 
ENDBRANCH   8   9
BRANCH   8  11
ATOM     11  C   LIG d   1      -7.019  71.277 116.481  0.00  0.00     0.028 C 
ATOM     12  C   LIG d   1      -6.061  71.603 115.324  0.00  0.00     0.006 C 
ENDBRANCH   8  11
ENDBRANCH   7   8
ENDBRANCH   1   7
BRANCH   6  13
ATOM     13  N   LIG d   1      -4.701  74.404 117.489  0.00  0.00    -0.311 N 
ATOM     14  C   LIG d   1      -3.812  74.148 116.530  0.00  0.00     0.210 C 
ATOM     15  C   LIG d   1      -2.443  73.673 117.027  0.00  0.00     0.109 C 
ATOM     16  O   LIG d   1      -4.018  74.300 115.316  0.00  0.00    -0.276 OA
ATOM     17  H   LIG d   1      -4.439  74.285 118.448  0.00  0.00     0.149 HD
ENDBRANCH   6  13
BRANCH   5  18
ATOM     18  N   LIG d   1      -5.442  76.873 115.849  0.00  0.00     0.381 N 
ATOM     19  H   LIG d   1      -4.607  76.335 115.730  0.00  0.00    -0.090 HD
ATOM     20  H   LIG d   1      -5.181  77.831 116.000  0.00  0.00    -0.090 HD
ATOM     21  H   LIG d   1      -6.012  76.800 115.034  0.00  0.00    -0.090 HD
ENDBRANCH   5  18
BRANCH   3  22
ATOM     22  C   LIG d   1      -9.626  76.983 118.178  0.00  0.00     0.382 C 
ATOM     23  O   LIG d   1      -9.518  78.155 118.611  0.00  0.00    -0.241 OA
ATOM     24  O   LIG d   1     -10.753  76.459 118.098  0.00  0.00    -0.241 OA
ENDBRANCH   3  22
TORSDOF 7
ENDMDL
MODEL 3
REMARK VINA RESULT:      -5.2      3.551      5.242
REMARK  7 active torsions:
REMARK  status: ('A' for Active; 'I' for Inactive)
REMARK    1  A    between atoms: C_2  and  C_3 
REMARK    2  A    between atoms: C_3  and  O_6 
REMARK    3  A    between atoms: C_3  and  C_4 
REMARK    4  A    between atoms: C_7  and  O_6 
REMARK    5  A    between atoms: C_9  and  C_10 
REMARK    6  A    between atoms: N_15  and  C_14 
REMARK    7  A    between atoms: N_20  and  C_19 
REMARK       I    between atoms: C_22  and  N_20 
ROOT
ATOM      1  C   LIG d   1      -3.277  74.734 116.813  0.00  0.00     0.161 C 
ATOM      2  C   LIG d   1      -3.816  75.673 115.917  0.00  0.00     0.016 C 
ATOM      3  C   LIG d   1      -3.025  76.539 115.128  0.00  0.00     0.038 C 
ATOM      4  C   LIG d   1      -1.628  76.419 115.069  0.00  0.00     0.028 C 
ATOM      5  C   LIG d   1      -1.017  75.825 116.333  0.00  0.00    -0.047 C 
ATOM      6  C   LIG d   1      -1.756  74.512 116.680  0.00  0.00     0.091 C 
ENDROOT
BRANCH   1   7
ATOM      7  O   LIG d   1      -3.979  73.481 116.688  0.00  0.00    -0.368 OA
BRANCH   7   8
ATOM      8  C   LIG d   1      -5.411  73.570 116.488  0.00  0.00     0.119 C 
BRANCH   8   9
ATOM      9  C   LIG d   1      -6.086  73.274 117.842  0.00  0.00     0.028 C 
ATOM     10  C   LIG d   1      -6.830  74.496 118.406  0.00  0.00     0.006 C 
ENDBRANCH   8   9
BRANCH   8  11
ATOM     11  C   LIG d   1      -5.911  72.477 115.539  0.00  0.00     0.028 C 
ATOM     12  C   LIG d   1      -6.743  71.401 116.254  0.00  0.00     0.006 C 
ENDBRANCH   8  11
ENDBRANCH   7   8
ENDBRANCH   1   7
BRANCH   6  13
ATOM     13  N   LIG d   1      -1.276  73.910 117.951  0.00  0.00    -0.311 N 
ATOM     14  C   LIG d   1      -0.364  72.941 118.004  0.00  0.00     0.210 C 
ATOM     15  C   LIG d   1      -0.026  72.449 119.415  0.00  0.00     0.109 C 
ATOM     16  O   LIG d   1       0.221  72.465 117.020  0.00  0.00    -0.276 OA
ATOM     17  H   LIG d   1      -1.676  74.259 118.800  0.00  0.00     0.149 HD
ENDBRANCH   6  13
BRANCH   5  18
ATOM     18  N   LIG d   1       0.423  75.629 116.083  0.00  0.00     0.381 N 
ATOM     19  H   LIG d   1       0.561  74.818 115.513  0.00  0.00    -0.090 HD
ATOM     20  H   LIG d   1       0.889  75.480 116.961  0.00  0.00    -0.090 HD
ATOM     21  H   LIG d   1       0.803  76.431 115.629  0.00  0.00    -0.090 HD
ENDBRANCH   5  18
BRANCH   3  22
ATOM     22  C   LIG d   1      -3.628  77.564 114.416  0.00  0.00     0.382 C 
ATOM     23  O   LIG d   1      -3.522  78.750 114.813  0.00  0.00    -0.241 OA
ATOM     24  O   LIG d   1      -4.316  77.314 113.408  0.00  0.00    -0.241 OA
ENDBRANCH   3  22
TORSDOF 7
ENDMDL
MODEL 4
REMARK VINA RESULT:      -5.1      2.455      5.516
REMARK  7 active torsions:
REMARK  status: ('A' for Active; 'I' for Inactive)
REMARK    1  A    between atoms: C_2  and  C_3 
REMARK    2  A    between atoms: C_3  and  O_6 
REMARK    3  A    between atoms: C_3  and  C_4 
REMARK    4  A    between atoms: C_7  and  O_6 
REMARK    5  A    between atoms: C_9  and  C_10 
REMARK    6  A    between atoms: N_15  and  C_14 
REMARK    7  A    between atoms: N_20  and  C_19 
REMARK       I    between atoms: C_22  and  N_20 
ROOT
ATOM      1  C   LIG d   1      -6.446  73.604 118.138  0.00  0.00     0.161 C 
ATOM      2  C   LIG d   1      -5.390  74.491 117.870  0.00  0.00     0.016 C 
ATOM      3  C   LIG d   1      -4.588  74.417 116.708  0.00  0.00     0.038 C 
ATOM      4  C   LIG d   1      -4.885  73.538 115.656  0.00  0.00     0.028 C 
ATOM      5  C   LIG d   1      -5.632  72.286 116.106  0.00  0.00    -0.047 C 
ATOM      6  C   LIG d   1      -6.856  72.708 116.950  0.00  0.00     0.091 C 
ENDROOT
BRANCH   1   7
ATOM      7  O   LIG d   1      -7.586  74.335 118.631  0.00  0.00    -0.368 OA
BRANCH   7   8
ATOM      8  C   LIG d   1      -8.074  75.403 117.781  0.00  0.00     0.119 C 
BRANCH   8   9
ATOM      9  C   LIG d   1      -8.060  76.700 118.613  0.00  0.00     0.028 C 
ATOM     10  C   LIG d   1      -7.102  77.756 118.037  0.00  0.00     0.006 C 
ENDBRANCH   8   9
BRANCH   8  11
ATOM     11  C   LIG d   1      -9.540  75.183 117.397  0.00  0.00     0.028 C 
ATOM     12  C   LIG d   1     -10.482  76.222 118.024  0.00  0.00     0.006 C 
ENDBRANCH   8  11
ENDBRANCH   7   8
ENDBRANCH   1   7
BRANCH   6  13
ATOM     13  N   LIG d   1      -7.594  71.541 117.500  0.00  0.00    -0.311 N 
ATOM     14  C   LIG d   1      -8.827  71.209 117.120  0.00  0.00     0.210 C 
ATOM     15  C   LIG d   1      -9.412  69.982 117.827  0.00  0.00     0.109 C 
ATOM     16  O   LIG d   1      -9.478  71.794 116.242  0.00  0.00    -0.276 OA
ATOM     17  H   LIG d   1      -7.128  70.993 118.196  0.00  0.00     0.149 HD
ENDBRANCH   6  13
BRANCH   5  18
ATOM     18  N   LIG d   1      -5.998  71.527 114.895  0.00  0.00     0.381 N 
ATOM     19  H   LIG d   1      -5.909  70.546 115.070  0.00  0.00    -0.090 HD
ATOM     20  H   LIG d   1      -5.367  71.774 114.153  0.00  0.00    -0.090 HD
ATOM     21  H   LIG d   1      -6.934  71.741 114.629  0.00  0.00    -0.090 HD
ENDBRANCH   5  18
BRANCH   3  22
ATOM     22  C   LIG d   1      -3.449  75.202 116.609  0.00  0.00     0.382 C 
ATOM     23  O   LIG d   1      -2.823  75.264 115.523  0.00  0.00    -0.241 OA
ATOM     24  O   LIG d   1      -3.015  75.814 117.603  0.00  0.00    -0.241 OA
ENDBRANCH   3  22
TORSDOF 7
ENDMDL
MODEL 5
REMARK VINA RESULT:      -5.0      2.278      4.827
REMARK  7 active torsions:
REMARK  status: ('A' for Active; 'I' for Inactive)
REMARK    1  A    between atoms: C_2  and  C_3 
REMARK    2  A    between atoms: C_3  and  O_6 
REMARK    3  A    between atoms: C_3  and  C_4 
REMARK    4  A    between atoms: C_7  and  O_6 
REMARK    5  A    between atoms: C_9  and  C_10 
REMARK    6  A    between atoms: N_15  and  C_14 
REMARK    7  A    between atoms: N_20  and  C_19 
REMARK       I    between atoms: C_22  and  N_20 
ROOT
ATOM      1  C   LIG d   1      -6.544  74.406 118.208  0.00  0.00     0.161 C 
ATOM      2  C   LIG d   1      -6.948  73.125 117.796  0.00  0.00     0.016 C 
ATOM      3  C   LIG d   1      -8.260  72.825 117.362  0.00  0.00     0.038 C 
ATOM      4  C   LIG d   1      -9.223  73.826 117.164  0.00  0.00     0.028 C 
ATOM      5  C   LIG d   1      -9.011  75.052 118.046  0.00  0.00    -0.047 C 
ATOM      6  C   LIG d   1      -7.550  75.533 117.894  0.00  0.00     0.091 C 
ENDROOT
BRANCH   1   7
ATOM      7  O   LIG d   1      -5.254  74.715 117.646  0.00  0.00    -0.368 OA
BRANCH   7   8
ATOM      8  C   LIG d   1      -4.712  73.742 116.719  0.00  0.00     0.119 C 
BRANCH   8   9
ATOM      9  C   LIG d   1      -3.181  73.918 116.705  0.00  0.00     0.028 C 
ATOM     10  C   LIG d   1      -2.686  74.838 117.833  0.00  0.00     0.006 C 
ENDBRANCH   8   9
BRANCH   8  11
ATOM     11  C   LIG d   1      -5.166  74.025 115.284  0.00  0.00     0.028 C 
ATOM     12  C   LIG d   1      -5.002  75.501 114.888  0.00  0.00     0.006 C 
ENDBRANCH   8  11
ENDBRANCH   7   8
ENDBRANCH   1   7
BRANCH   6  13
ATOM     13  N   LIG d   1      -7.234  76.679 118.787  0.00  0.00    -0.311 N 
ATOM     14  C   LIG d   1      -6.621  77.786 118.371  0.00  0.00     0.210 C 
ATOM     15  C   LIG d   1      -6.374  78.836 119.458  0.00  0.00     0.109 C 
ATOM     16  O   LIG d   1      -6.288  78.011 117.198  0.00  0.00    -0.276 OA
ATOM     17  H   LIG d   1      -7.498  76.593 119.749  0.00  0.00     0.149 HD
ENDBRANCH   6  13
BRANCH   5  18
ATOM     18  N   LIG d   1     -10.000  76.069 117.640  0.00  0.00     0.381 N 
ATOM     19  H   LIG d   1     -10.582  75.705 116.913  0.00  0.00    -0.090 HD
ATOM     20  H   LIG d   1      -9.512  76.872 117.282  0.00  0.00    -0.090 HD
ATOM     21  H   LIG d   1     -10.558  76.333 118.422  0.00  0.00    -0.090 HD
ENDBRANCH   5  18
BRANCH   3  22
ATOM     22  C   LIG d   1      -8.631  71.505 117.157  0.00  0.00     0.382 C 
ATOM     23  O   LIG d   1      -9.696  71.069 117.657  0.00  0.00    -0.241 OA
ATOM     24  O   LIG d   1      -7.893  70.733 116.517  0.00  0.00    -0.241 OA
ENDBRANCH   3  22
TORSDOF 7
ENDMDL
MODEL 6
REMARK VINA RESULT:      -5.0      2.000      5.085
REMARK  7 active torsions:
REMARK  status: ('A' for Active; 'I' for Inactive)
REMARK    1  A    between atoms: C_2  and  C_3 
REMARK    2  A    between atoms: C_3  and  O_6 
REMARK    3  A    between atoms: C_3  and  C_4 
REMARK    4  A    between atoms: C_7  and  O_6 
REMARK    5  A    between atoms: C_9  and  C_10 
REMARK    6  A    between atoms: N_15  and  C_14 
REMARK    7  A    between atoms: N_20  and  C_19 
REMARK       I    between atoms: C_22  and  N_20 
ROOT
ATOM      1  C   LIG d   1      -7.336  75.184 117.753  0.00  0.00     0.161 C 
ATOM      2  C   LIG d   1      -7.955  73.931 117.618  0.00  0.00     0.016 C 
ATOM      3  C   LIG d   1      -7.420  72.877 116.842  0.00  0.00     0.038 C 
ATOM      4  C   LIG d   1      -6.143  72.956 116.266  0.00  0.00     0.028 C 
ATOM      5  C   LIG d   1      -5.705  74.383 115.956  0.00  0.00    -0.047 C 
ATOM      6  C   LIG d   1      -5.888  75.250 117.223  0.00  0.00     0.091 C 
ENDROOT
BRANCH   1   7
ATOM      7  O   LIG d   1      -7.385  75.608 119.130  0.00  0.00    -0.368 OA
BRANCH   7   8
ATOM      8  C   LIG d   1      -8.233  76.747 119.416  0.00  0.00     0.119 C 
BRANCH   8   9
ATOM      9  C   LIG d   1      -9.137  76.972 118.188  0.00  0.00     0.028 C 
ATOM     10  C   LIG d   1     -10.606  76.613 118.468  0.00  0.00     0.006 C 
ENDBRANCH   8   9
BRANCH   8  11
ATOM     11  C   LIG d   1      -7.411  78.032 119.555  0.00  0.00     0.028 C 
ATOM     12  C   LIG d   1      -7.784  79.094 118.508  0.00  0.00     0.006 C 
ENDBRANCH   8  11
ENDBRANCH   7   8
ENDBRANCH   1   7
BRANCH   6  13
ATOM     13  N   LIG d   1      -5.563  76.681 116.983  0.00  0.00    -0.311 N 
ATOM     14  C   LIG d   1      -4.366  77.211 117.228  0.00  0.00     0.210 C 
ATOM     15  C   LIG d   1      -4.249  78.709 116.929  0.00  0.00     0.109 C 
ATOM     16  O   LIG d   1      -3.381  76.577 117.636  0.00  0.00    -0.276 OA
ATOM     17  H   LIG d   1      -6.295  77.261 116.623  0.00  0.00     0.149 HD
ENDBRANCH   6  13
BRANCH   5  18
ATOM     18  N   LIG d   1      -4.307  74.329 115.490  0.00  0.00     0.381 N 
ATOM     19  H   LIG d   1      -3.719  74.834 116.123  0.00  0.00    -0.090 HD
ATOM     20  H   LIG d   1      -4.248  74.768 114.588  0.00  0.00    -0.090 HD
ATOM     21  H   LIG d   1      -4.004  73.382 115.427  0.00  0.00    -0.090 HD
ENDBRANCH   5  18
BRANCH   3  22
ATOM     22  C   LIG d   1      -8.182  71.744 116.602  0.00  0.00     0.382 C 
ATOM     23  O   LIG d   1      -9.431  71.832 116.531  0.00  0.00    -0.241 OA
ATOM     24  O   LIG d   1      -7.638  70.627 116.501  0.00  0.00    -0.241 OA
ENDBRANCH   3  22
TORSDOF 7
ENDMDL
MODEL 7
REMARK VINA RESULT:      -4.9      2.055      5.043
REMARK  7 active torsions:
REMARK  status: ('A' for Active; 'I' for Inactive)
REMARK    1  A    between atoms: C_2  and  C_3 
REMARK    2  A    between atoms: C_3  and  O_6 
REMARK    3  A    between atoms: C_3  and  C_4 
REMARK    4  A    between atoms: C_7  and  O_6 
REMARK    5  A    between atoms: C_9  and  C_10 
REMARK    6  A    between atoms: N_15  and  C_14 
REMARK    7  A    between atoms: N_20  and  C_19 
REMARK       I    between atoms: C_22  and  N_20 
ROOT
ATOM      1  C   LIG d   1      -5.554  74.011 117.389  0.00  0.00     0.161 C 
ATOM      2  C   LIG d   1      -4.323  73.571 116.876  0.00  0.00     0.016 C 
ATOM      3  C   LIG d   1      -3.083  74.160 117.215  0.00  0.00     0.038 C 
ATOM      4  C   LIG d   1      -2.976  75.139 118.214  0.00  0.00     0.028 C 
ATOM      5  C   LIG d   1      -4.246  75.963 118.393  0.00  0.00    -0.047 C 
ATOM      6  C   LIG d   1      -5.447  75.005 118.565  0.00  0.00     0.091 C 
ENDROOT
BRANCH   1   7
ATOM      7  O   LIG d   1      -6.361  72.877 117.764  0.00  0.00    -0.368 OA
BRANCH   7   8
ATOM      8  C   LIG d   1      -7.460  72.555 116.876  0.00  0.00     0.119 C 
BRANCH   8   9
ATOM      9  C   LIG d   1      -8.769  72.845 117.636  0.00  0.00     0.028 C 
ATOM     10  C   LIG d   1      -9.524  74.056 117.063  0.00  0.00     0.006 C 
ENDBRANCH   8   9
BRANCH   8  11
ATOM     11  C   LIG d   1      -7.499  71.058 116.558  0.00  0.00     0.028 C 
ATOM     12  C   LIG d   1      -8.821  70.394 116.975  0.00  0.00     0.006 C 
ENDBRANCH   8  11
ENDBRANCH   7   8
ENDBRANCH   1   7
BRANCH   6  13
ATOM     13  N   LIG d   1      -6.741  75.729 118.661  0.00  0.00    -0.311 N 
ATOM     14  C   LIG d   1      -7.041  76.797 117.924  0.00  0.00     0.210 C 
ATOM     15  C   LIG d   1      -8.421  77.404 118.195  0.00  0.00     0.109 C 
ATOM     16  O   LIG d   1      -6.307  77.279 117.047  0.00  0.00    -0.276 OA
ATOM     17  H   LIG d   1      -7.407  75.386 119.325  0.00  0.00     0.149 HD
ENDBRANCH   6  13
BRANCH   5  18
ATOM     18  N   LIG d   1      -4.043  76.849 119.554  0.00  0.00     0.381 N 
ATOM     19  H   LIG d   1      -4.928  77.104 119.945  0.00  0.00    -0.090 HD
ATOM     20  H   LIG d   1      -3.581  77.687 119.247  0.00  0.00    -0.090 HD
ATOM     21  H   LIG d   1      -3.488  76.388 120.241  0.00  0.00    -0.090 HD
ENDBRANCH   5  18
BRANCH   3  22
ATOM     22  C   LIG d   1      -1.938  73.797 116.522  0.00  0.00     0.382 C 
ATOM     23  O   LIG d   1      -1.744  74.231 115.361  0.00  0.00    -0.241 OA
ATOM     24  O   LIG d   1      -1.118  73.006 117.027  0.00  0.00    -0.241 OA
ENDBRANCH   3  22
TORSDOF 7
ENDMDL
MODEL 8
REMARK VINA RESULT:      -4.8      3.715      6.776
REMARK  7 active torsions:
REMARK  status: ('A' for Active; 'I' for Inactive)
REMARK    1  A    between atoms: C_2  and  C_3 
REMARK    2  A    between atoms: C_3  and  O_6 
REMARK    3  A    between atoms: C_3  and  C_4 
REMARK    4  A    between atoms: C_7  and  O_6 
REMARK    5  A    between atoms: C_9  and  C_10 
REMARK    6  A    between atoms: N_15  and  C_14 
REMARK    7  A    between atoms: N_20  and  C_19 
REMARK       I    between atoms: C_22  and  N_20 
ROOT
ATOM      1  C   LIG d   1      -2.242  74.364 116.339  0.00  0.00     0.161 C 
ATOM      2  C   LIG d   1      -1.653  73.445 117.223  0.00  0.00     0.016 C 
ATOM      3  C   LIG d   1      -0.407  73.662 117.856  0.00  0.00     0.038 C 
ATOM      4  C   LIG d   1       0.267  74.889 117.765  0.00  0.00     0.028 C 
ATOM      5  C   LIG d   1      -0.041  75.655 116.483  0.00  0.00    -0.047 C 
ATOM      6  C   LIG d   1      -1.575  75.755 116.314  0.00  0.00     0.091 C 
ENDROOT
BRANCH   1   7
ATOM      7  O   LIG d   1      -3.648  74.488 116.629  0.00  0.00    -0.368 OA
BRANCH   7   8
ATOM      8  C   LIG d   1      -4.547  73.782 115.739  0.00  0.00     0.119 C 
BRANCH   8   9
ATOM      9  C   LIG d   1      -5.290  74.837 114.897  0.00  0.00     0.028 C 
ATOM     10  C   LIG d   1      -5.902  75.952 115.762  0.00  0.00     0.006 C 
ENDBRANCH   8   9
BRANCH   8  11
ATOM     11  C   LIG d   1      -5.639  73.044 116.520  0.00  0.00     0.028 C 
ATOM     12  C   LIG d   1      -6.200  71.832 115.759  0.00  0.00     0.006 C 
ENDBRANCH   8  11
ENDBRANCH   7   8
ENDBRANCH   1   7
BRANCH   6  13
ATOM     13  N   LIG d   1      -1.963  76.418 115.042  0.00  0.00    -0.311 N 
ATOM     14  C   LIG d   1      -2.671  77.544 114.988  0.00  0.00     0.210 C 
ATOM     15  C   LIG d   1      -2.980  78.047 113.574  0.00  0.00     0.109 C 
ATOM     16  O   LIG d   1      -3.046  78.192 115.977  0.00  0.00    -0.276 OA
ATOM     17  H   LIG d   1      -1.673  75.976 114.191  0.00  0.00     0.149 HD
ENDBRANCH   6  13
BRANCH   5  18
ATOM     18  N   LIG d   1       0.617  76.972 116.582  0.00  0.00     0.381 N 
ATOM     19  H   LIG d   1       1.582  76.887 116.334  0.00  0.00    -0.090 HD
ATOM     20  H   LIG d   1       0.562  77.292 117.533  0.00  0.00    -0.090 HD
ATOM     21  H   LIG d   1       0.167  77.624 115.978  0.00  0.00    -0.090 HD
ENDBRANCH   5  18
BRANCH   3  22
ATOM     22  C   LIG d   1       0.196  72.630 118.559  0.00  0.00     0.382 C 
ATOM     23  O   LIG d   1      -0.399  71.533 118.695  0.00  0.00    -0.241 OA
ATOM     24  O   LIG d   1       1.307  72.796 119.095  0.00  0.00    -0.241 OA
ENDBRANCH   3  22
TORSDOF 7
ENDMDL
MODEL 9
REMARK VINA RESULT:      -4.8      3.676      6.099
REMARK  7 active torsions:
REMARK  status: ('A' for Active; 'I' for Inactive)
REMARK    1  A    between atoms: C_2  and  C_3 
REMARK    2  A    between atoms: C_3  and  O_6 
REMARK    3  A    between atoms: C_3  and  C_4 
REMARK    4  A    between atoms: C_7  and  O_6 
REMARK    5  A    between atoms: C_9  and  C_10 
REMARK    6  A    between atoms: N_15  and  C_14 
REMARK    7  A    between atoms: N_20  and  C_19 
REMARK       I    between atoms: C_22  and  N_20 
ROOT
ATOM      1  C   LIG d   1      -3.073  74.213 116.772  0.00  0.00     0.161 C 
ATOM      2  C   LIG d   1      -4.022  73.183 116.883  0.00  0.00     0.016 C 
ATOM      3  C   LIG d   1      -5.252  73.179 116.186  0.00  0.00     0.038 C 
ATOM      4  C   LIG d   1      -5.552  74.138 115.207  0.00  0.00     0.028 C 
ATOM      5  C   LIG d   1      -4.846  75.471 115.428  0.00  0.00    -0.047 C 
ATOM      6  C   LIG d   1      -3.334  75.211 115.624  0.00  0.00     0.091 C 
ENDROOT
BRANCH   1   7
ATOM      7  O   LIG d   1      -1.752  73.650 116.654  0.00  0.00    -0.368 OA
BRANCH   7   8
ATOM      8  C   LIG d   1      -0.736  74.223 117.514  0.00  0.00     0.119 C 
BRANCH   8   9
ATOM      9  C   LIG d   1       0.631  73.963 116.851  0.00  0.00     0.028 C 
ATOM     10  C   LIG d   1       1.584  75.163 116.982  0.00  0.00     0.006 C 
ENDBRANCH   8   9
BRANCH   8  11
ATOM     11  C   LIG d   1      -0.676  73.502 118.863  0.00  0.00     0.028 C 
ATOM     12  C   LIG d   1       0.075  72.162 118.791  0.00  0.00     0.006 C 
ENDBRANCH   8  11
ENDBRANCH   7   8
ENDBRANCH   1   7
BRANCH   6  13
ATOM     13  N   LIG d   1      -2.581  76.455 115.930  0.00  0.00    -0.311 N 
ATOM     14  C   LIG d   1      -1.539  76.876 115.215  0.00  0.00     0.210 C 
ATOM     15  C   LIG d   1      -0.893  78.173 115.714  0.00  0.00     0.109 C 
ATOM     16  O   LIG d   1      -1.109  76.316 114.196  0.00  0.00    -0.276 OA
ATOM     17  H   LIG d   1      -2.882  76.988 116.723  0.00  0.00     0.149 HD
ENDBRANCH   6  13
BRANCH   5  18
ATOM     18  N   LIG d   1      -5.138  76.329 114.264  0.00  0.00     0.381 N 
ATOM     19  H   LIG d   1      -5.575  77.176 114.569  0.00  0.00    -0.090 HD
ATOM     20  H   LIG d   1      -5.777  75.846 113.657  0.00  0.00    -0.090 HD
ATOM     21  H   LIG d   1      -4.297  76.538 113.774  0.00  0.00    -0.090 HD
ENDBRANCH   5  18
BRANCH   3  22
ATOM     22  C   LIG d   1      -6.214  72.229 116.495  0.00  0.00     0.382 C 
ATOM     23  O   LIG d   1      -6.629  72.118 117.673  0.00  0.00    -0.241 OA
ATOM     24  O   LIG d   1      -6.639  71.452 115.619  0.00  0.00    -0.241 OA
ENDBRANCH   3  22
TORSDOF 7
ENDMDL
