MODEL 1
REMARK VINA RESULT:      -5.2      0.000      0.000
REMARK  7 active torsions:
REMARK  status: ('A' for Active; 'I' for Inactive)
REMARK    1  A    between atoms: C_2  and  C_3 
REMARK    2  A    between atoms: C_3  and  O_6 
REMARK    3  A    between atoms: C_3  and  C_4 
REMARK    4  A    between atoms: C_7  and  O_6 
REMARK    5  A    between atoms: C_9  and  C_10 
REMARK    6  A    between atoms: N_15  and  C_14 
REMARK    7  A    between atoms: N_20  and  C_19 
REMARK       I    between atoms: C_22  and  N_20 
ROOT
ATOM      1  C   LIG d   1      -5.618  77.391 116.921  0.00  0.00     0.161 C 
ATOM      2  C   LIG d   1      -6.992  77.148 117.084  0.00  0.00     0.016 C 
ATOM      3  C   LIG d   1      -7.854  78.007 117.804  0.00  0.00     0.038 C 
ATOM      4  C   LIG d   1      -7.426  79.253 118.286  0.00  0.00     0.028 C 
ATOM      5  C   LIG d   1      -5.931  79.307 118.582  0.00  0.00    -0.047 C 
ATOM      6  C   LIG d   1      -5.156  78.801 117.344  0.00  0.00     0.091 C 
ENDROOT
BRANCH   1   7
ATOM      7  O   LIG d   1      -5.234  77.126 115.557  0.00  0.00    -0.368 OA
BRANCH   7   8
ATOM      8  C   LIG d   1      -4.873  75.757 115.250  0.00  0.00     0.119 C 
BRANCH   8   9
ATOM      9  C   LIG d   1      -3.402  75.758 114.789  0.00  0.00     0.028 C 
ATOM     10  C   LIG d   1      -2.430  75.408 115.927  0.00  0.00     0.006 C 
ENDBRANCH   8   9
BRANCH   8  11
ATOM     11  C   LIG d   1      -5.672  75.223 114.058  0.00  0.00     0.028 C 
ATOM     12  C   LIG d   1      -6.258  76.344 113.184  0.00  0.00     0.006 C 
ENDBRANCH   8  11
ENDBRANCH   7   8
ENDBRANCH   1   7
BRANCH   6  13
ATOM     13  N   LIG d   1      -3.690  78.741 117.579  0.00  0.00    -0.311 N 
ATOM     14  C   LIG d   1      -2.785  79.050 116.651  0.00  0.00     0.210 C 
ATOM     15  C   LIG d   1      -1.327  78.902 117.095  0.00  0.00     0.109 C 
ATOM     16  O   LIG d   1      -3.053  79.463 115.513  0.00  0.00    -0.276 OA
ATOM     17  H   LIG d   1      -3.384  78.446 118.486  0.00  0.00     0.149 HD
ENDBRANCH   6  13
BRANCH   5  18
ATOM     18  N   LIG d   1      -5.598  80.697 118.944  0.00  0.00     0.381 N 
ATOM     19  H   LIG d   1      -4.615  80.848 118.842  0.00  0.00    -0.090 HD
ATOM     20  H   LIG d   1      -5.842  80.850 119.907  0.00  0.00    -0.090 HD
ATOM     21  H   LIG d   1      -6.101  81.331 118.363  0.00  0.00    -0.090 HD
ENDBRANCH   5  18
BRANCH   3  22
ATOM     22  C   LIG d   1      -9.151  77.602 118.084  0.00  0.00     0.382 C 
ATOM     23  O   LIG d   1      -9.486  76.406 117.910  0.00  0.00    -0.241 OA
ATOM     24  O   LIG d   1     -10.001  78.428 118.465  0.00  0.00    -0.241 OA
ENDBRANCH   3  22
TORSDOF 7
ENDMDL
MODEL 2
REMARK VINA RESULT:      -5.0      3.173      5.930
REMARK  7 active torsions:
REMARK  status: ('A' for Active; 'I' for Inactive)
REMARK    1  A    between atoms: C_2  and  C_3 
REMARK    2  A    between atoms: C_3  and  O_6 
REMARK    3  A    between atoms: C_3  and  C_4 
REMARK    4  A    between atoms: C_7  and  O_6 
REMARK    5  A    between atoms: C_9  and  C_10 
REMARK    6  A    between atoms: N_15  and  C_14 
REMARK    7  A    between atoms: N_20  and  C_19 
REMARK       I    between atoms: C_22  and  N_20 
ROOT
ATOM      1  C   LIG d   1      -2.723  77.010 116.212  0.00  0.00     0.161 C 
ATOM      2  C   LIG d   1      -2.928  78.056 115.297  0.00  0.00     0.016 C 
ATOM      3  C   LIG d   1      -1.940  78.499 114.387  0.00  0.00     0.038 C 
ATOM      4  C   LIG d   1      -0.722  77.820 114.227  0.00  0.00     0.028 C 
ATOM      5  C   LIG d   1      -0.276  77.073 115.479  0.00  0.00    -0.047 C 
ATOM      6  C   LIG d   1      -1.441  76.186 115.976  0.00  0.00     0.091 C 
ENDROOT
BRANCH   1   7
ATOM      7  O   LIG d   1      -3.877  76.147 116.233  0.00  0.00    -0.368 OA
BRANCH   7   8
ATOM      8  C   LIG d   1      -5.029  76.604 115.481  0.00  0.00     0.119 C 
BRANCH   8   9
ATOM      9  C   LIG d   1      -6.204  76.738 116.469  0.00  0.00     0.028 C 
ATOM     10  C   LIG d   1      -6.137  78.038 117.288  0.00  0.00     0.006 C 
ENDBRANCH   8   9
BRANCH   8  11
ATOM     11  C   LIG d   1      -5.477  75.556 114.458  0.00  0.00     0.028 C 
ATOM     12  C   LIG d   1      -6.080  74.303 115.112  0.00  0.00     0.006 C 
ENDBRANCH   8  11
ENDBRANCH   7   8
ENDBRANCH   1   7
BRANCH   6  13
ATOM     13  N   LIG d   1      -1.118  75.484 117.245  0.00  0.00    -0.311 N 
ATOM     14  C   LIG d   1      -0.577  74.267 117.293  0.00  0.00     0.210 C 
ATOM     15  C   LIG d   1      -0.343  73.719 118.705  0.00  0.00     0.109 C 
ATOM     16  O   LIG d   1      -0.240  73.604 116.302  0.00  0.00    -0.276 OA
ATOM     17  H   LIG d   1      -1.330  75.963 118.098  0.00  0.00     0.149 HD
ENDBRANCH   6  13
BRANCH   5  18
ATOM     18  N   LIG d   1       0.931  76.300 115.131  0.00  0.00     0.381 N 
ATOM     19  H   LIG d   1       0.936  76.102 114.150  0.00  0.00    -0.090 HD
ATOM     20  H   LIG d   1       0.913  75.427 115.629  0.00  0.00    -0.090 HD
ATOM     21  H   LIG d   1       1.748  76.814 115.377  0.00  0.00    -0.090 HD
ENDBRANCH   5  18
BRANCH   3  22
ATOM     22  C   LIG d   1      -2.150  79.656 113.654  0.00  0.00     0.382 C 
ATOM     23  O   LIG d   1      -3.265  79.867 113.120  0.00  0.00    -0.241 OA
ATOM     24  O   LIG d   1      -1.224  80.472 113.482  0.00  0.00    -0.241 OA
ENDBRANCH   3  22
TORSDOF 7
ENDMDL
MODEL 3
REMARK VINA RESULT:      -4.9     14.622     16.622
REMARK  7 active torsions:
REMARK  status: ('A' for Active; 'I' for Inactive)
REMARK    1  A    between atoms: C_2  and  C_3 
REMARK    2  A    between atoms: C_3  and  O_6 
REMARK    3  A    between atoms: C_3  and  C_4 
REMARK    4  A    between atoms: C_7  and  O_6 
REMARK    5  A    between atoms: C_9  and  C_10 
REMARK    6  A    between atoms: N_15  and  C_14 
REMARK    7  A    between atoms: N_20  and  C_19 
REMARK       I    between atoms: C_22  and  N_20 
ROOT
ATOM      1  C   LIG d   1     -16.281  65.467 116.613  0.00  0.00     0.161 C 
ATOM      2  C   LIG d   1     -16.220  66.819 116.239  0.00  0.00     0.016 C 
ATOM      3  C   LIG d   1     -15.414  67.774 116.901  0.00  0.00     0.038 C 
ATOM      4  C   LIG d   1     -14.494  67.407 117.895  0.00  0.00     0.028 C 
ATOM      5  C   LIG d   1     -14.888  66.140 118.647  0.00  0.00    -0.047 C 
ATOM      6  C   LIG d   1     -15.200  65.025 117.623  0.00  0.00     0.091 C 
ENDROOT
BRANCH   1   7
ATOM      7  O   LIG d   1     -16.239  64.633 115.438  0.00  0.00    -0.368 OA
BRANCH   7   8
ATOM      8  C   LIG d   1     -17.521  64.256 114.879  0.00  0.00     0.119 C 
BRANCH   8   9
ATOM      9  C   LIG d   1     -17.466  62.747 114.569  0.00  0.00     0.028 C 
ATOM     10  C   LIG d   1     -17.390  61.889 115.843  0.00  0.00     0.006 C 
ENDBRANCH   8   9
BRANCH   8  11
ATOM     11  C   LIG d   1     -17.762  64.938 113.529  0.00  0.00     0.028 C 
ATOM     12  C   LIG d   1     -19.241  65.284 113.291  0.00  0.00     0.006 C 
ENDBRANCH   8  11
ENDBRANCH   7   8
ENDBRANCH   1   7
BRANCH   6  13
ATOM     13  N   LIG d   1     -15.675  63.776 118.272  0.00  0.00    -0.311 N 
ATOM     14  C   LIG d   1     -14.881  62.740 118.538  0.00  0.00     0.210 C 
ATOM     15  C   LIG d   1     -15.577  61.543 119.193  0.00  0.00     0.109 C 
ATOM     16  O   LIG d   1     -13.660  62.712 118.323  0.00  0.00    -0.276 OA
ATOM     17  H   LIG d   1     -16.647  63.726 118.509  0.00  0.00     0.149 HD
ENDBRANCH   6  13
BRANCH   5  18
ATOM     18  N   LIG d   1     -13.777  65.797 119.554  0.00  0.00     0.381 N 
ATOM     19  H   LIG d   1     -12.909  65.836 119.057  0.00  0.00    -0.090 HD
ATOM     20  H   LIG d   1     -13.907  64.858 119.887  0.00  0.00    -0.090 HD
ATOM     21  H   LIG d   1     -13.756  66.430 120.323  0.00  0.00    -0.090 HD
ENDBRANCH   5  18
BRANCH   3  22
ATOM     22  C   LIG d   1     -15.554  69.120 116.599  0.00  0.00     0.382 C 
ATOM     23  O   LIG d   1     -15.034  69.586 115.557  0.00  0.00    -0.241 OA
ATOM     24  O   LIG d   1     -16.157  69.883 117.377  0.00  0.00    -0.241 OA
ENDBRANCH   3  22
TORSDOF 7
ENDMDL
MODEL 4
REMARK VINA RESULT:      -4.7     11.420     13.109
REMARK  7 active torsions:
REMARK  status: ('A' for Active; 'I' for Inactive)
REMARK    1  A    between atoms: C_2  and  C_3 
REMARK    2  A    between atoms: C_3  and  O_6 
REMARK    3  A    between atoms: C_3  and  C_4 
REMARK    4  A    between atoms: C_7  and  O_6 
REMARK    5  A    between atoms: C_9  and  C_10 
REMARK    6  A    between atoms: N_15  and  C_14 
REMARK    7  A    between atoms: N_20  and  C_19 
REMARK       I    between atoms: C_22  and  N_20 
ROOT
ATOM      1  C   LIG d   1       0.999  88.409 117.056  0.00  0.00     0.161 C 
ATOM      2  C   LIG d   1      -0.399  88.282 117.112  0.00  0.00     0.016 C 
ATOM      3  C   LIG d   1      -1.231  89.152 117.854  0.00  0.00     0.038 C 
ATOM      4  C   LIG d   1      -0.730  90.308 118.473  0.00  0.00     0.028 C 
ATOM      5  C   LIG d   1       0.739  90.197 118.863  0.00  0.00    -0.047 C 
ATOM      6  C   LIG d   1       1.552  89.729 117.635  0.00  0.00     0.091 C 
ENDROOT
BRANCH   1   7
ATOM      7  O   LIG d   1       1.452  88.227 115.701  0.00  0.00    -0.368 OA
BRANCH   7   8
ATOM      8  C   LIG d   1       2.310  87.084 115.463  0.00  0.00     0.119 C 
BRANCH   8   9
ATOM      9  C   LIG d   1       3.229  87.433 114.277  0.00  0.00     0.028 C 
ATOM     10  C   LIG d   1       4.206  88.573 114.607  0.00  0.00     0.006 C 
ENDBRANCH   8   9
BRANCH   8  11
ATOM     11  C   LIG d   1       1.501  85.866 115.006  0.00  0.00     0.028 C 
ATOM     12  C   LIG d   1       1.802  85.462 113.554  0.00  0.00     0.006 C 
ENDBRANCH   8  11
ENDBRANCH   7   8
ENDBRANCH   1   7
BRANCH   6  13
ATOM     13  N   LIG d   1       2.987  89.514 117.952  0.00  0.00    -0.311 N 
ATOM     14  C   LIG d   1       3.917  90.459 117.821  0.00  0.00     0.210 C 
ATOM     15  C   LIG d   1       5.339  90.021 118.184  0.00  0.00     0.109 C 
ATOM     16  O   LIG d   1       3.693  91.627 117.469  0.00  0.00    -0.276 OA
ATOM     17  H   LIG d   1       3.252  88.603 118.275  0.00  0.00     0.149 HD
ENDBRANCH   6  13
BRANCH   5  18
ATOM     18  N   LIG d   1       1.166  91.515 119.370  0.00  0.00     0.381 N 
ATOM     19  H   LIG d   1       0.894  92.230 118.726  0.00  0.00    -0.090 HD
ATOM     20  H   LIG d   1       2.168  91.525 119.448  0.00  0.00    -0.090 HD
ATOM     21  H   LIG d   1       0.755  91.687 120.261  0.00  0.00    -0.090 HD
ENDBRANCH   5  18
BRANCH   3  22
ATOM     22  C   LIG d   1      -2.574  88.848 118.015  0.00  0.00     0.382 C 
ATOM     23  O   LIG d   1      -2.953  88.197 119.018  0.00  0.00    -0.241 OA
ATOM     24  O   LIG d   1      -3.405  89.178 117.148  0.00  0.00    -0.241 OA
ENDBRANCH   3  22
TORSDOF 7
ENDMDL
MODEL 5
REMARK VINA RESULT:      -4.6     13.866     16.239
REMARK  7 active torsions:
REMARK  status: ('A' for Active; 'I' for Inactive)
REMARK    1  A    between atoms: C_2  and  C_3 
REMARK    2  A    between atoms: C_3  and  O_6 
REMARK    3  A    between atoms: C_3  and  C_4 
REMARK    4  A    between atoms: C_7  and  O_6 
REMARK    5  A    between atoms: C_9  and  C_10 
REMARK    6  A    between atoms: N_15  and  C_14 
REMARK    7  A    between atoms: N_20  and  C_19 
REMARK       I    between atoms: C_22  and  N_20 
ROOT
ATOM      1  C   LIG d   1     -16.172  66.362 116.662  0.00  0.00     0.161 C 
ATOM      2  C   LIG d   1     -15.417  66.763 115.547  0.00  0.00     0.016 C 
ATOM      3  C   LIG d   1     -15.067  68.108 115.287  0.00  0.00     0.038 C 
ATOM      4  C   LIG d   1     -15.323  69.132 116.210  0.00  0.00     0.028 C 
ATOM      5  C   LIG d   1     -16.524  68.854 117.107  0.00  0.00    -0.047 C 
ATOM      6  C   LIG d   1     -16.365  67.452 117.738  0.00  0.00     0.091 C 
ENDROOT
BRANCH   1   7
ATOM      7  O   LIG d   1     -15.592  65.179 117.246  0.00  0.00    -0.368 OA
BRANCH   7   8
ATOM      8  C   LIG d   1     -16.069  63.913 116.727  0.00  0.00     0.119 C 
BRANCH   8   9
ATOM      9  C   LIG d   1     -17.591  64.042 116.521  0.00  0.00     0.028 C 
ATOM     10  C   LIG d   1     -18.395  63.373 117.649  0.00  0.00     0.006 C 
ENDBRANCH   8   9
BRANCH   8  11
ATOM     11  C   LIG d   1     -15.893  62.789 117.752  0.00  0.00     0.028 C 
ATOM     12  C   LIG d   1     -14.505  62.797 118.412  0.00  0.00     0.006 C 
ENDBRANCH   8  11
ENDBRANCH   7   8
ENDBRANCH   1   7
BRANCH   6  13
ATOM     13  N   LIG d   1     -17.538  67.065 118.564  0.00  0.00    -0.311 N 
ATOM     14  C   LIG d   1     -18.791  67.083 118.112  0.00  0.00     0.210 C 
ATOM     15  C   LIG d   1     -19.853  66.666 119.135  0.00  0.00     0.109 C 
ATOM     16  O   LIG d   1     -19.120  67.373 116.953  0.00  0.00    -0.276 OA
ATOM     17  H   LIG d   1     -17.358  66.786 119.509  0.00  0.00     0.149 HD
ENDBRANCH   6  13
BRANCH   5  18
ATOM     18  N   LIG d   1     -16.592  69.934 118.109  0.00  0.00     0.381 N 
ATOM     19  H   LIG d   1     -15.886  70.617 117.919  0.00  0.00    -0.090 HD
ATOM     20  H   LIG d   1     -16.418  69.545 119.019  0.00  0.00    -0.090 HD
ATOM     21  H   LIG d   1     -17.492  70.362 118.089  0.00  0.00    -0.090 HD
ENDBRANCH   5  18
BRANCH   3  22
ATOM     22  C   LIG d   1     -14.490  68.444 114.072  0.00  0.00     0.382 C 
ATOM     23  O   LIG d   1     -14.355  67.574 113.179  0.00  0.00    -0.241 OA
ATOM     24  O   LIG d   1     -14.061  69.597 113.874  0.00  0.00    -0.241 OA
ENDBRANCH   3  22
TORSDOF 7
ENDMDL
MODEL 6
REMARK VINA RESULT:      -4.6     18.322     20.701
REMARK  7 active torsions:
REMARK  status: ('A' for Active; 'I' for Inactive)
REMARK    1  A    between atoms: C_2  and  C_3 
REMARK    2  A    between atoms: C_3  and  O_6 
REMARK    3  A    between atoms: C_3  and  C_4 
REMARK    4  A    between atoms: C_7  and  O_6 
REMARK    5  A    between atoms: C_9  and  C_10 
REMARK    6  A    between atoms: N_15  and  C_14 
REMARK    7  A    between atoms: N_20  and  C_19 
REMARK       I    between atoms: C_22  and  N_20 
ROOT
ATOM      1  C   LIG d   1     -24.052  83.989 114.797  0.00  0.00     0.161 C 
ATOM      2  C   LIG d   1     -23.121  85.040 114.765  0.00  0.00     0.016 C 
ATOM      3  C   LIG d   1     -23.370  86.282 114.137  0.00  0.00     0.038 C 
ATOM      4  C   LIG d   1     -24.634  86.613 113.625  0.00  0.00     0.028 C 
ATOM      5  C   LIG d   1     -25.447  85.399 113.187  0.00  0.00    -0.047 C 
ATOM      6  C   LIG d   1     -25.475  84.371 114.341  0.00  0.00     0.091 C 
ENDROOT
BRANCH   1   7
ATOM      7  O   LIG d   1     -24.087  83.408 116.116  0.00  0.00    -0.368 OA
BRANCH   7   8
ATOM      8  C   LIG d   1     -23.420  82.131 116.268  0.00  0.00     0.119 C 
BRANCH   8   9
ATOM      9  C   LIG d   1     -24.427  81.156 116.910  0.00  0.00     0.028 C 
ATOM     10  C   LIG d   1     -24.810  80.003 115.967  0.00  0.00     0.006 C 
ENDBRANCH   8   9
BRANCH   8  11
ATOM     11  C   LIG d   1     -22.257  82.224 117.260  0.00  0.00     0.028 C 
ATOM     12  C   LIG d   1     -22.290  83.513 118.097  0.00  0.00     0.006 C 
ENDBRANCH   8  11
ENDBRANCH   7   8
ENDBRANCH   1   7
BRANCH   6  13
ATOM     13  N   LIG d   1     -26.180  83.118 113.967  0.00  0.00    -0.311 N 
ATOM     14  C   LIG d   1     -27.175  82.594 114.680  0.00  0.00     0.210 C 
ATOM     15  C   LIG d   1     -27.749  81.286 114.128  0.00  0.00     0.109 C 
ATOM     16  O   LIG d   1     -27.659  83.107 115.701  0.00  0.00    -0.276 OA
ATOM     17  H   LIG d   1     -25.872  82.653 113.135  0.00  0.00     0.149 HD
ENDBRANCH   6  13
BRANCH   5  18
ATOM     18  N   LIG d   1     -26.789  85.877 112.805  0.00  0.00     0.381 N 
ATOM     19  H   LIG d   1     -27.488  85.292 113.220  0.00  0.00    -0.090 HD
ATOM     20  H   LIG d   1     -26.883  85.819 111.806  0.00  0.00    -0.090 HD
ATOM     21  H   LIG d   1     -26.914  86.819 113.104  0.00  0.00    -0.090 HD
ENDBRANCH   5  18
BRANCH   3  22
ATOM     22  C   LIG d   1     -22.337  87.193 113.980  0.00  0.00     0.382 C 
ATOM     23  O   LIG d   1     -21.434  86.978 113.136  0.00  0.00    -0.241 OA
ATOM     24  O   LIG d   1     -22.272  88.205 114.704  0.00  0.00    -0.241 OA
ENDBRANCH   3  22
TORSDOF 7
ENDMDL
MODEL 7
REMARK VINA RESULT:      -4.5     12.548     14.872
REMARK  7 active torsions:
REMARK  status: ('A' for Active; 'I' for Inactive)
REMARK    1  A    between atoms: C_2  and  C_3 
REMARK    2  A    between atoms: C_3  and  O_6 
REMARK    3  A    between atoms: C_3  and  C_4 
REMARK    4  A    between atoms: C_7  and  O_6 
REMARK    5  A    between atoms: C_9  and  C_10 
REMARK    6  A    between atoms: N_15  and  C_14 
REMARK    7  A    between atoms: N_20  and  C_19 
REMARK       I    between atoms: C_22  and  N_20 
ROOT
ATOM      1  C   LIG d   1       4.496  86.948 116.799  0.00  0.00     0.161 C 
ATOM      2  C   LIG d   1       3.737  88.130 116.852  0.00  0.00     0.016 C 
ATOM      3  C   LIG d   1       4.276  89.384 117.221  0.00  0.00     0.038 C 
ATOM      4  C   LIG d   1       5.652  89.571 117.418  0.00  0.00     0.028 C 
ATOM      5  C   LIG d   1       6.377  88.307 117.868  0.00  0.00    -0.047 C 
ATOM      6  C   LIG d   1       6.021  87.154 116.902  0.00  0.00     0.091 C 
ENDROOT
BRANCH   1   7
ATOM      7  O   LIG d   1       4.169  86.211 115.604  0.00  0.00    -0.368 OA
BRANCH   7   8
ATOM      8  C   LIG d   1       3.348  86.904 114.632  0.00  0.00     0.119 C 
BRANCH   8   9
ATOM      9  C   LIG d   1       2.167  85.979 114.281  0.00  0.00     0.028 C 
ATOM     10  C   LIG d   1       2.178  85.547 112.805  0.00  0.00     0.006 C 
ENDBRANCH   8   9
BRANCH   8  11
ATOM     11  C   LIG d   1       4.102  87.117 113.316  0.00  0.00     0.028 C 
ATOM     12  C   LIG d   1       5.219  88.166 113.432  0.00  0.00     0.006 C 
ENDBRANCH   8  11
ENDBRANCH   7   8
ENDBRANCH   1   7
BRANCH   6  13
ATOM     13  N   LIG d   1       6.622  85.860 117.319  0.00  0.00    -0.311 N 
ATOM     14  C   LIG d   1       7.793  85.416 116.866  0.00  0.00     0.210 C 
ATOM     15  C   LIG d   1       8.220  84.048 117.408  0.00  0.00     0.109 C 
ATOM     16  O   LIG d   1       8.534  86.039 116.091  0.00  0.00    -0.276 OA
ATOM     17  H   LIG d   1       6.103  85.304 117.970  0.00  0.00     0.149 HD
ENDBRANCH   6  13
BRANCH   5  18
ATOM     18  N   LIG d   1       7.820  88.610 117.901  0.00  0.00     0.381 N 
ATOM     19  H   LIG d   1       8.203  88.536 116.979  0.00  0.00    -0.090 HD
ATOM     20  H   LIG d   1       8.280  87.936 118.488  0.00  0.00    -0.090 HD
ATOM     21  H   LIG d   1       7.968  89.528 118.258  0.00  0.00    -0.090 HD
ENDBRANCH   5  18
BRANCH   3  22
ATOM     22  C   LIG d   1       3.427  90.459 117.436  0.00  0.00     0.382 C 
ATOM     23  O   LIG d   1       2.185  90.284 117.458  0.00  0.00    -0.241 OA
ATOM     24  O   LIG d   1       3.886  91.610 117.564  0.00  0.00    -0.241 OA
ENDBRANCH   3  22
TORSDOF 7
ENDMDL
MODEL 8
REMARK VINA RESULT:      -4.3      1.332      2.184
REMARK  7 active torsions:
REMARK  status: ('A' for Active; 'I' for Inactive)
REMARK    1  A    between atoms: C_2  and  C_3 
REMARK    2  A    between atoms: C_3  and  O_6 
REMARK    3  A    between atoms: C_3  and  C_4 
REMARK    4  A    between atoms: C_7  and  O_6 
REMARK    5  A    between atoms: C_9  and  C_10 
REMARK    6  A    between atoms: N_15  and  C_14 
REMARK    7  A    between atoms: N_20  and  C_19 
REMARK       I    between atoms: C_22  and  N_20 
ROOT
ATOM      1  C   LIG d   1      -5.511  77.660 117.057  0.00  0.00     0.161 C 
ATOM      2  C   LIG d   1      -6.872  77.320 117.135  0.00  0.00     0.016 C 
ATOM      3  C   LIG d   1      -7.813  78.047 117.899  0.00  0.00     0.038 C 
ATOM      4  C   LIG d   1      -7.485  79.261 118.521  0.00  0.00     0.028 C 
ATOM      5  C   LIG d   1      -6.009  79.374 118.886  0.00  0.00    -0.047 C 
ATOM      6  C   LIG d   1      -5.157  79.045 117.639  0.00  0.00     0.091 C 
ENDROOT
BRANCH   1   7
ATOM      7  O   LIG d   1      -5.059  77.560 115.692  0.00  0.00    -0.368 OA
BRANCH   7   8
ATOM      8  C   LIG d   1      -4.063  76.543 115.423  0.00  0.00     0.119 C 
BRANCH   8   9
ATOM      9  C   LIG d   1      -4.579  75.687 114.251  0.00  0.00     0.028 C 
ATOM     10  C   LIG d   1      -5.788  74.822 114.645  0.00  0.00     0.006 C 
ENDBRANCH   8   9
BRANCH   8  11
ATOM     11  C   LIG d   1      -3.923  75.575 116.602  0.00  0.00     0.028 C 
ATOM     12  C   LIG d   1      -2.493  75.033 116.761  0.00  0.00     0.006 C 
ENDBRANCH   8  11
ENDBRANCH   7   8
ENDBRANCH   1   7
BRANCH   6  13
ATOM     13  N   LIG d   1      -3.699  79.050 117.931  0.00  0.00    -0.311 N 
ATOM     14  C   LIG d   1      -3.134  78.277 118.857  0.00  0.00     0.210 C 
ATOM     15  C   LIG d   1      -1.620  78.454 119.010  0.00  0.00     0.109 C 
ATOM     16  O   LIG d   1      -3.738  77.438 119.542  0.00  0.00    -0.276 OA
ATOM     17  H   LIG d   1      -3.130  79.678 117.399  0.00  0.00     0.149 HD
ENDBRANCH   6  13
BRANCH   5  18
ATOM     18  N   LIG d   1      -5.780  80.738 119.399  0.00  0.00     0.381 N 
ATOM     19  H   LIG d   1      -6.041  81.409 118.704  0.00  0.00    -0.090 HD
ATOM     20  H   LIG d   1      -4.801  80.851 119.596  0.00  0.00    -0.090 HD
ATOM     21  H   LIG d   1      -6.312  80.884 120.228  0.00  0.00    -0.090 HD
ENDBRANCH   5  18
BRANCH   3  22
ATOM     22  C   LIG d   1      -9.091  77.539 118.079  0.00  0.00     0.382 C 
ATOM     23  O   LIG d   1     -10.035  78.308 118.381  0.00  0.00    -0.241 OA
ATOM     24  O   LIG d   1      -9.303  76.315 117.987  0.00  0.00    -0.241 OA
ENDBRANCH   3  22
TORSDOF 7
ENDMDL
MODEL 9
REMARK VINA RESULT:      -4.2     14.916     17.449
REMARK  7 active torsions:
REMARK  status: ('A' for Active; 'I' for Inactive)
REMARK    1  A    between atoms: C_2  and  C_3 
REMARK    2  A    between atoms: C_3  and  O_6 
REMARK    3  A    between atoms: C_3  and  C_4 
REMARK    4  A    between atoms: C_7  and  O_6 
REMARK    5  A    between atoms: C_9  and  C_10 
REMARK    6  A    between atoms: N_15  and  C_14 
REMARK    7  A    between atoms: N_20  and  C_19 
REMARK       I    between atoms: C_22  and  N_20 
ROOT
ATOM      1  C   LIG d   1     -15.973  65.042 117.415  0.00  0.00     0.161 C 
ATOM      2  C   LIG d   1     -15.392  66.300 117.644  0.00  0.00     0.016 C 
ATOM      3  C   LIG d   1     -15.167  67.251 116.622  0.00  0.00     0.038 C 
ATOM      4  C   LIG d   1     -15.650  67.066 115.318  0.00  0.00     0.028 C 
ATOM      5  C   LIG d   1     -15.794  65.599 114.928  0.00  0.00    -0.047 C 
ATOM      6  C   LIG d   1     -16.608  64.867 116.019  0.00  0.00     0.091 C 
ENDROOT
BRANCH   1   7
ATOM      7  O   LIG d   1     -16.940  64.756 118.444  0.00  0.00    -0.368 OA
BRANCH   7   8
ATOM      8  C   LIG d   1     -18.271  65.289 118.235  0.00  0.00     0.119 C 
BRANCH   8   9
ATOM      9  C   LIG d   1     -18.576  66.244 119.405  0.00  0.00     0.028 C 
ATOM     10  C   LIG d   1     -18.558  67.722 118.977  0.00  0.00     0.006 C 
ENDBRANCH   8   9
BRANCH   8  11
ATOM     11  C   LIG d   1     -19.333  64.189 118.322  0.00  0.00     0.028 C 
ATOM     12  C   LIG d   1     -20.593  64.511 117.503  0.00  0.00     0.006 C 
ENDBRANCH   8  11
ENDBRANCH   7   8
ENDBRANCH   1   7
BRANCH   6  13
ATOM     13  N   LIG d   1     -16.724  63.409 115.757  0.00  0.00    -0.311 N 
ATOM     14  C   LIG d   1     -17.761  62.857 115.131  0.00  0.00     0.210 C 
ATOM     15  C   LIG d   1     -17.691  61.333 114.982  0.00  0.00     0.109 C 
ATOM     16  O   LIG d   1     -18.718  63.487 114.657  0.00  0.00    -0.276 OA
ATOM     17  H   LIG d   1     -15.976  62.826 116.081  0.00  0.00     0.149 HD
ENDBRANCH   6  13
BRANCH   5  18
ATOM     18  N   LIG d   1     -16.436  65.553 113.600  0.00  0.00     0.381 N 
ATOM     19  H   LIG d   1     -15.766  65.780 112.892  0.00  0.00    -0.090 HD
ATOM     20  H   LIG d   1     -17.171  66.237 113.570  0.00  0.00    -0.090 HD
ATOM     21  H   LIG d   1     -16.810  64.644 113.434  0.00  0.00    -0.090 HD
ENDBRANCH   5  18
BRANCH   3  22
ATOM     22  C   LIG d   1     -14.417  68.385 116.892  0.00  0.00     0.382 C 
ATOM     23  O   LIG d   1     -14.984  69.497 117.017  0.00  0.00    -0.241 OA
ATOM     24  O   LIG d   1     -13.175  68.318 116.968  0.00  0.00    -0.241 OA
ENDBRANCH   3  22
TORSDOF 7
ENDMDL
