MODEL 1
REMARK VINA RESULT:      -5.6      0.000      0.000
REMARK  7 active torsions:
REMARK  status: ('A' for Active; 'I' for Inactive)
REMARK    1  A    between atoms: C_2  and  C_3 
REMARK    2  A    between atoms: C_3  and  O_6 
REMARK    3  A    between atoms: C_3  and  C_4 
REMARK    4  A    between atoms: C_7  and  O_6 
REMARK    5  A    between atoms: C_9  and  C_10 
REMARK    6  A    between atoms: N_15  and  C_14 
REMARK    7  A    between atoms: N_20  and  C_19 
REMARK       I    between atoms: C_22  and  N_20 
ROOT
ATOM      1  C   LIG d   1      -4.199  91.888 117.521  0.00  0.00     0.161 C 
ATOM      2  C   LIG d   1      -5.074  91.010 116.859  0.00  0.00     0.016 C 
ATOM      3  C   LIG d   1      -6.284  91.424 116.257  0.00  0.00     0.038 C 
ATOM      4  C   LIG d   1      -6.630  92.779 116.144  0.00  0.00     0.028 C 
ATOM      5  C   LIG d   1      -6.026  93.652 117.239  0.00  0.00    -0.047 C 
ATOM      6  C   LIG d   1      -4.505  93.386 117.311  0.00  0.00     0.091 C 
ENDROOT
BRANCH   1   7
ATOM      7  O   LIG d   1      -2.838  91.597 117.146  0.00  0.00    -0.368 OA
BRANCH   7   8
ATOM      8  C   LIG d   1      -1.947  91.219 118.224  0.00  0.00     0.119 C 
BRANCH   8   9
ATOM      9  C   LIG d   1      -0.543  91.746 117.870  0.00  0.00     0.028 C 
ATOM     10  C   LIG d   1       0.167  90.870 116.825  0.00  0.00     0.006 C 
ENDBRANCH   8   9
BRANCH   8  11
ATOM     11  C   LIG d   1      -1.798  89.697 118.314  0.00  0.00     0.028 C 
ATOM     12  C   LIG d   1      -2.720  89.070 119.372  0.00  0.00     0.006 C 
ENDBRANCH   8  11
ENDBRANCH   7   8
ENDBRANCH   1   7
BRANCH   6  13
ATOM     13  N   LIG d   1      -3.850  94.138 118.414  0.00  0.00    -0.311 N 
ATOM     14  C   LIG d   1      -2.667  94.737 118.290  0.00  0.00     0.210 C 
ATOM     15  C   LIG d   1      -2.164  95.440 119.555  0.00  0.00     0.109 C 
ATOM     16  O   LIG d   1      -2.002  94.780 117.245  0.00  0.00    -0.276 OA
ATOM     17  H   LIG d   1      -4.336  94.179 119.288  0.00  0.00     0.149 HD
ENDBRANCH   6  13
BRANCH   5  18
ATOM     18  N   LIG d   1      -6.353  95.055 116.921  0.00  0.00     0.381 N 
ATOM     19  H   LIG d   1      -6.961  95.428 117.623  0.00  0.00    -0.090 HD
ATOM     20  H   LIG d   1      -6.834  95.085 116.039  0.00  0.00    -0.090 HD
ATOM     21  H   LIG d   1      -5.519  95.597 116.872  0.00  0.00    -0.090 HD
ENDBRANCH   5  18
BRANCH   3  22
ATOM     22  C   LIG d   1      -7.182  90.474 115.795  0.00  0.00     0.382 C 
ATOM     23  O   LIG d   1      -8.157  90.134 116.507  0.00  0.00    -0.241 OA
ATOM     24  O   LIG d   1      -7.005  89.921 114.693  0.00  0.00    -0.241 OA
ENDBRANCH   3  22
TORSDOF 7
ENDMDL
MODEL 2
REMARK VINA RESULT:      -5.3     12.654     14.761
REMARK  7 active torsions:
REMARK  status: ('A' for Active; 'I' for Inactive)
REMARK    1  A    between atoms: C_2  and  C_3 
REMARK    2  A    between atoms: C_3  and  O_6 
REMARK    3  A    between atoms: C_3  and  C_4 
REMARK    4  A    between atoms: C_7  and  O_6 
REMARK    5  A    between atoms: C_9  and  C_10 
REMARK    6  A    between atoms: N_15  and  C_14 
REMARK    7  A    between atoms: N_20  and  C_19 
REMARK       I    between atoms: C_22  and  N_20 
ROOT
ATOM      1  C   LIG d   1      -7.031  77.904 118.250  0.00  0.00     0.161 C 
ATOM      2  C   LIG d   1      -8.387  78.136 118.535  0.00  0.00     0.016 C 
ATOM      3  C   LIG d   1      -8.949  79.428 118.646  0.00  0.00     0.038 C 
ATOM      4  C   LIG d   1      -8.220  80.583 118.327  0.00  0.00     0.028 C 
ATOM      5  C   LIG d   1      -6.716  80.425 118.525  0.00  0.00    -0.047 C 
ATOM      6  C   LIG d   1      -6.245  79.149 117.790  0.00  0.00     0.091 C 
ENDROOT
BRANCH   1   7
ATOM      7  O   LIG d   1      -6.910  76.847 117.277  0.00  0.00    -0.368 OA
BRANCH   7   8
ATOM      8  C   LIG d   1      -7.727  75.673 117.506  0.00  0.00     0.119 C 
BRANCH   8   9
ATOM      9  C   LIG d   1      -6.783  74.523 117.906  0.00  0.00     0.028 C 
ATOM     10  C   LIG d   1      -7.011  73.257 117.063  0.00  0.00     0.006 C 
ENDBRANCH   8   9
BRANCH   8  11
ATOM     11  C   LIG d   1      -8.409  75.208 116.216  0.00  0.00     0.028 C 
ATOM     12  C   LIG d   1      -9.943  75.227 116.313  0.00  0.00     0.006 C 
ENDBRANCH   8  11
ENDBRANCH   7   8
ENDBRANCH   1   7
BRANCH   6  13
ATOM     13  N   LIG d   1      -4.800  78.873 118.002  0.00  0.00    -0.311 N 
ATOM     14  C   LIG d   1      -3.839  79.351 117.214  0.00  0.00     0.210 C 
ATOM     15  C   LIG d   1      -2.418  78.929 117.599  0.00  0.00     0.109 C 
ATOM     16  O   LIG d   1      -4.026  80.109 116.250  0.00  0.00    -0.276 OA
ATOM     17  H   LIG d   1      -4.557  78.292 118.780  0.00  0.00     0.149 HD
ENDBRANCH   6  13
BRANCH   5  18
ATOM     18  N   LIG d   1      -6.069  81.653 118.026  0.00  0.00     0.381 N 
ATOM     19  H   LIG d   1      -6.387  81.850 117.099  0.00  0.00    -0.090 HD
ATOM     20  H   LIG d   1      -5.075  81.506 117.994  0.00  0.00    -0.090 HD
ATOM     21  H   LIG d   1      -6.280  82.418 118.628  0.00  0.00    -0.090 HD
ENDBRANCH   5  18
BRANCH   3  22
ATOM     22  C   LIG d   1     -10.244  79.576 119.118  0.00  0.00     0.382 C 
ATOM     23  O   LIG d   1     -11.045  78.612 119.066  0.00  0.00    -0.241 OA
ATOM     24  O   LIG d   1     -10.636  80.675 119.555  0.00  0.00    -0.241 OA
ENDBRANCH   3  22
TORSDOF 7
ENDMDL
MODEL 3
REMARK VINA RESULT:      -5.2     14.630     16.962
REMARK  7 active torsions:
REMARK  status: ('A' for Active; 'I' for Inactive)
REMARK    1  A    between atoms: C_2  and  C_3 
REMARK    2  A    between atoms: C_3  and  O_6 
REMARK    3  A    between atoms: C_3  and  C_4 
REMARK    4  A    between atoms: C_7  and  O_6 
REMARK    5  A    between atoms: C_9  and  C_10 
REMARK    6  A    between atoms: N_15  and  C_14 
REMARK    7  A    between atoms: N_20  and  C_19 
REMARK       I    between atoms: C_22  and  N_20 
ROOT
ATOM      1  C   LIG d   1      -6.262  75.634 118.516  0.00  0.00     0.161 C 
ATOM      2  C   LIG d   1      -7.333  76.516 118.732  0.00  0.00     0.016 C 
ATOM      3  C   LIG d   1      -7.345  77.853 118.274  0.00  0.00     0.038 C 
ATOM      4  C   LIG d   1      -6.342  78.357 117.432  0.00  0.00     0.028 C 
ATOM      5  C   LIG d   1      -4.997  77.660 117.607  0.00  0.00    -0.047 C 
ATOM      6  C   LIG d   1      -5.208  76.132 117.505  0.00  0.00     0.091 C 
ENDROOT
BRANCH   1   7
ATOM      7  O   LIG d   1      -6.764  74.342 118.121  0.00  0.00    -0.368 OA
BRANCH   7   8
ATOM      8  C   LIG d   1      -7.174  74.213 116.737  0.00  0.00     0.119 C 
BRANCH   8   9
ATOM      9  C   LIG d   1      -8.662  73.813 116.730  0.00  0.00     0.028 C 
ATOM     10  C   LIG d   1      -9.586  74.994 116.389  0.00  0.00     0.006 C 
ENDBRANCH   8   9
BRANCH   8  11
ATOM     11  C   LIG d   1      -6.440  73.061 116.043  0.00  0.00     0.028 C 
ATOM     12  C   LIG d   1      -6.963  71.680 116.469  0.00  0.00     0.006 C 
ENDBRANCH   8  11
ENDBRANCH   7   8
ENDBRANCH   1   7
BRANCH   6  13
ATOM     13  N   LIG d   1      -3.955  75.369 117.748  0.00  0.00    -0.311 N 
ATOM     14  C   LIG d   1      -3.191  74.884 116.771  0.00  0.00     0.210 C 
ATOM     15  C   LIG d   1      -1.955  74.111 117.241  0.00  0.00     0.109 C 
ATOM     16  O   LIG d   1      -3.403  75.048 115.560  0.00  0.00    -0.276 OA
ATOM     17  H   LIG d   1      -3.692  75.217 118.702  0.00  0.00     0.149 HD
ENDBRANCH   6  13
BRANCH   5  18
ATOM     18  N   LIG d   1      -4.084  78.188 116.576  0.00  0.00     0.381 N 
ATOM     19  H   LIG d   1      -3.917  79.161 116.738  0.00  0.00    -0.090 HD
ATOM     20  H   LIG d   1      -4.518  78.088 115.675  0.00  0.00    -0.090 HD
ATOM     21  H   LIG d   1      -3.223  77.687 116.595  0.00  0.00    -0.090 HD
ENDBRANCH   5  18
BRANCH   3  22
ATOM     22  C   LIG d   1      -8.348  78.714 118.691  0.00  0.00     0.382 C 
ATOM     23  O   LIG d   1      -8.066  79.889 119.029  0.00  0.00    -0.241 OA
ATOM     24  O   LIG d   1      -9.526  78.317 118.777  0.00  0.00    -0.241 OA
ENDBRANCH   3  22
TORSDOF 7
ENDMDL
MODEL 4
REMARK VINA RESULT:      -5.1     15.082     17.491
REMARK  7 active torsions:
REMARK  status: ('A' for Active; 'I' for Inactive)
REMARK    1  A    between atoms: C_2  and  C_3 
REMARK    2  A    between atoms: C_3  and  O_6 
REMARK    3  A    between atoms: C_3  and  C_4 
REMARK    4  A    between atoms: C_7  and  O_6 
REMARK    5  A    between atoms: C_9  and  C_10 
REMARK    6  A    between atoms: N_15  and  C_14 
REMARK    7  A    between atoms: N_20  and  C_19 
REMARK       I    between atoms: C_22  and  N_20 
ROOT
ATOM      1  C   LIG d   1      -5.328  75.829 115.992  0.00  0.00     0.161 C 
ATOM      2  C   LIG d   1      -4.150  75.144 115.650  0.00  0.00     0.016 C 
ATOM      3  C   LIG d   1      -3.000  75.116 116.471  0.00  0.00     0.038 C 
ATOM      4  C   LIG d   1      -3.002  75.650 117.768  0.00  0.00     0.028 C 
ATOM      5  C   LIG d   1      -4.000  76.787 117.954  0.00  0.00    -0.047 C 
ATOM      6  C   LIG d   1      -5.387  76.324 117.452  0.00  0.00     0.091 C 
ENDROOT
BRANCH   1   7
ATOM      7  O   LIG d   1      -6.475  75.008 115.694  0.00  0.00    -0.368 OA
BRANCH   7   8
ATOM      8  C   LIG d   1      -6.878  74.077 116.728  0.00  0.00     0.119 C 
BRANCH   8   9
ATOM      9  C   LIG d   1      -6.526  72.659 116.238  0.00  0.00     0.028 C 
ATOM     10  C   LIG d   1      -7.624  71.634 116.568  0.00  0.00     0.006 C 
ENDBRANCH   8   9
BRANCH   8  11
ATOM     11  C   LIG d   1      -8.398  74.075 116.915  0.00  0.00     0.028 C 
ATOM     12  C   LIG d   1      -9.075  75.311 116.300  0.00  0.00     0.006 C 
ENDBRANCH   8  11
ENDBRANCH   7   8
ENDBRANCH   1   7
BRANCH   6  13
ATOM     13  N   LIG d   1      -6.405  77.405 117.520  0.00  0.00    -0.311 N 
ATOM     14  C   LIG d   1      -7.254  77.550 118.535  0.00  0.00     0.210 C 
ATOM     15  C   LIG d   1      -8.234  78.719 118.396  0.00  0.00     0.109 C 
ATOM     16  O   LIG d   1      -7.267  76.842 119.553  0.00  0.00    -0.276 OA
ATOM     17  H   LIG d   1      -6.443  78.044 116.750  0.00  0.00     0.149 HD
ENDBRANCH   6  13
BRANCH   5  18
ATOM     18  N   LIG d   1      -3.996  77.156 119.382  0.00  0.00     0.381 N 
ATOM     19  H   LIG d   1      -3.196  77.723 119.582  0.00  0.00    -0.090 HD
ATOM     20  H   LIG d   1      -3.935  76.319 119.934  0.00  0.00    -0.090 HD
ATOM     21  H   LIG d   1      -4.829  77.652 119.609  0.00  0.00    -0.090 HD
ENDBRANCH   5  18
BRANCH   3  22
ATOM     22  C   LIG d   1      -1.817  74.583 115.980  0.00  0.00     0.382 C 
ATOM     23  O   LIG d   1      -1.321  73.561 116.512  0.00  0.00    -0.241 OA
ATOM     24  O   LIG d   1      -1.217  75.138 115.040  0.00  0.00    -0.241 OA
ENDBRANCH   3  22
TORSDOF 7
ENDMDL
MODEL 5
REMARK VINA RESULT:      -5.0      2.475      4.964
REMARK  7 active torsions:
REMARK  status: ('A' for Active; 'I' for Inactive)
REMARK    1  A    between atoms: C_2  and  C_3 
REMARK    2  A    between atoms: C_3  and  O_6 
REMARK    3  A    between atoms: C_3  and  C_4 
REMARK    4  A    between atoms: C_7  and  O_6 
REMARK    5  A    between atoms: C_9  and  C_10 
REMARK    6  A    between atoms: N_15  and  C_14 
REMARK    7  A    between atoms: N_20  and  C_19 
REMARK       I    between atoms: C_22  and  N_20 
ROOT
ATOM      1  C   LIG d   1      -4.558  93.781 117.621  0.00  0.00     0.161 C 
ATOM      2  C   LIG d   1      -4.659  94.977 118.351  0.00  0.00     0.016 C 
ATOM      3  C   LIG d   1      -5.874  95.677 118.533  0.00  0.00     0.038 C 
ATOM      4  C   LIG d   1      -7.105  95.145 118.123  0.00  0.00     0.028 C 
ATOM      5  C   LIG d   1      -6.988  94.188 116.941  0.00  0.00    -0.047 C 
ATOM      6  C   LIG d   1      -5.909  93.128 117.260  0.00  0.00     0.091 C 
ENDROOT
BRANCH   1   7
ATOM      7  O   LIG d   1      -3.722  92.845 118.329  0.00  0.00    -0.368 OA
BRANCH   7   8
ATOM      8  C   LIG d   1      -2.443  92.544 117.719  0.00  0.00     0.119 C 
BRANCH   8   9
ATOM      9  C   LIG d   1      -2.080  91.094 118.096  0.00  0.00     0.028 C 
ATOM     10  C   LIG d   1      -3.185  90.095 117.714  0.00  0.00     0.006 C 
ENDBRANCH   8   9
BRANCH   8  11
ATOM     11  C   LIG d   1      -1.326  93.408 118.312  0.00  0.00     0.028 C 
ATOM     12  C   LIG d   1      -0.644  94.301 117.263  0.00  0.00     0.006 C 
ENDBRANCH   8  11
ENDBRANCH   7   8
ENDBRANCH   1   7
BRANCH   6  13
ATOM     13  N   LIG d   1      -5.671  92.202 116.122  0.00  0.00    -0.311 N 
ATOM     14  C   LIG d   1      -6.303  91.038 115.980  0.00  0.00     0.210 C 
ATOM     15  C   LIG d   1      -5.894  90.227 114.746  0.00  0.00     0.109 C 
ATOM     16  O   LIG d   1      -7.186  90.615 116.741  0.00  0.00    -0.276 OA
ATOM     17  H   LIG d   1      -4.992  92.481 115.441  0.00  0.00     0.149 HD
ENDBRANCH   6  13
BRANCH   5  18
ATOM     18  N   LIG d   1      -8.322  93.603 116.707  0.00  0.00     0.381 N 
ATOM     19  H   LIG d   1      -8.844  94.189 116.087  0.00  0.00    -0.090 HD
ATOM     20  H   LIG d   1      -8.813  93.554 117.583  0.00  0.00    -0.090 HD
ATOM     21  H   LIG d   1      -8.230  92.691 116.317  0.00  0.00    -0.090 HD
ENDBRANCH   5  18
BRANCH   3  22
ATOM     22  C   LIG d   1      -5.859  96.943 119.098  0.00  0.00     0.382 C 
ATOM     23  O   LIG d   1      -6.919  97.611 119.169  0.00  0.00    -0.241 OA
ATOM     24  O   LIG d   1      -4.790  97.445 119.497  0.00  0.00    -0.241 OA
ENDBRANCH   3  22
TORSDOF 7
ENDMDL
MODEL 6
REMARK VINA RESULT:      -4.9     13.409     15.750
REMARK  7 active torsions:
REMARK  status: ('A' for Active; 'I' for Inactive)
REMARK    1  A    between atoms: C_2  and  C_3 
REMARK    2  A    between atoms: C_3  and  O_6 
REMARK    3  A    between atoms: C_3  and  C_4 
REMARK    4  A    between atoms: C_7  and  O_6 
REMARK    5  A    between atoms: C_9  and  C_10 
REMARK    6  A    between atoms: N_15  and  C_14 
REMARK    7  A    between atoms: N_20  and  C_19 
REMARK       I    between atoms: C_22  and  N_20 
ROOT
ATOM      1  C   LIG d   1      -5.692  77.001 117.326  0.00  0.00     0.161 C 
ATOM      2  C   LIG d   1      -6.501  78.097 117.671  0.00  0.00     0.016 C 
ATOM      3  C   LIG d   1      -6.022  79.425 117.746  0.00  0.00     0.038 C 
ATOM      4  C   LIG d   1      -4.727  79.771 117.330  0.00  0.00     0.028 C 
ATOM      5  C   LIG d   1      -3.725  78.628 117.456  0.00  0.00    -0.047 C 
ATOM      6  C   LIG d   1      -4.305  77.374 116.762  0.00  0.00     0.091 C 
ENDROOT
BRANCH   1   7
ATOM      7  O   LIG d   1      -6.395  76.146 116.403  0.00  0.00    -0.368 OA
BRANCH   7   8
ATOM      8  C   LIG d   1      -6.679  74.804 116.868  0.00  0.00     0.119 C 
BRANCH   8   9
ATOM      9  C   LIG d   1      -6.019  73.822 115.880  0.00  0.00     0.028 C 
ATOM     10  C   LIG d   1      -5.630  74.498 114.555  0.00  0.00     0.006 C 
ENDBRANCH   8   9
BRANCH   8  11
ATOM     11  C   LIG d   1      -8.178  74.497 116.804  0.00  0.00     0.028 C 
ATOM     12  C   LIG d   1      -9.002  75.667 116.242  0.00  0.00     0.006 C 
ENDBRANCH   8  11
ENDBRANCH   7   8
ENDBRANCH   1   7
BRANCH   6  13
ATOM     13  N   LIG d   1      -3.425  76.186 116.911  0.00  0.00    -0.311 N 
ATOM     14  C   LIG d   1      -2.587  75.770 115.963  0.00  0.00     0.210 C 
ATOM     15  C   LIG d   1      -1.785  74.513 116.314  0.00  0.00     0.109 C 
ATOM     16  O   LIG d   1      -2.407  76.343 114.878  0.00  0.00    -0.276 OA
ATOM     17  H   LIG d   1      -3.483  75.680 117.774  0.00  0.00     0.149 HD
ENDBRANCH   6  13
BRANCH   5  18
ATOM     18  N   LIG d   1      -2.454  79.082 116.861  0.00  0.00     0.381 N 
ATOM     19  H   LIG d   1      -2.615  79.891 116.295  0.00  0.00    -0.090 HD
ATOM     20  H   LIG d   1      -2.091  78.352 116.273  0.00  0.00    -0.090 HD
ATOM     21  H   LIG d   1      -1.798  79.296 117.580  0.00  0.00    -0.090 HD
ENDBRANCH   5  18
BRANCH   3  22
ATOM     22  C   LIG d   1      -6.829  80.418 118.278  0.00  0.00     0.382 C 
ATOM     23  O   LIG d   1      -7.216  80.341 119.469  0.00  0.00    -0.241 OA
ATOM     24  O   LIG d   1      -7.213  81.368 117.569  0.00  0.00    -0.241 OA
ENDBRANCH   3  22
TORSDOF 7
ENDMDL
MODEL 7
REMARK VINA RESULT:      -4.7      2.700      4.834
REMARK  7 active torsions:
REMARK  status: ('A' for Active; 'I' for Inactive)
REMARK    1  A    between atoms: C_2  and  C_3 
REMARK    2  A    between atoms: C_3  and  O_6 
REMARK    3  A    between atoms: C_3  and  C_4 
REMARK    4  A    between atoms: C_7  and  O_6 
REMARK    5  A    between atoms: C_9  and  C_10 
REMARK    6  A    between atoms: N_15  and  C_14 
REMARK    7  A    between atoms: N_20  and  C_19 
REMARK       I    between atoms: C_22  and  N_20 
ROOT
ATOM      1  C   LIG d   1      -4.741  94.065 117.656  0.00  0.00     0.161 C 
ATOM      2  C   LIG d   1      -5.075  95.276 118.285  0.00  0.00     0.016 C 
ATOM      3  C   LIG d   1      -6.397  95.773 118.364  0.00  0.00     0.038 C 
ATOM      4  C   LIG d   1      -7.501  95.013 117.950  0.00  0.00     0.028 C 
ATOM      5  C   LIG d   1      -7.166  94.007 116.853  0.00  0.00    -0.047 C 
ATOM      6  C   LIG d   1      -5.945  93.169 117.296  0.00  0.00     0.091 C 
ENDROOT
BRANCH   1   7
ATOM      7  O   LIG d   1      -3.800  93.336 118.469  0.00  0.00    -0.368 OA
BRANCH   7   8
ATOM      8  C   LIG d   1      -2.561  94.021 118.779  0.00  0.00     0.119 C 
BRANCH   8   9
ATOM      9  C   LIG d   1      -1.851  94.320 117.445  0.00  0.00     0.028 C 
ATOM     10  C   LIG d   1      -0.361  94.652 117.634  0.00  0.00     0.006 C 
ENDBRANCH   8   9
BRANCH   8  11
ATOM     11  C   LIG d   1      -1.602  93.114 119.555  0.00  0.00     0.028 C 
ATOM     12  C   LIG d   1      -2.042  91.641 119.553  0.00  0.00     0.006 C 
ENDBRANCH   8  11
ENDBRANCH   7   8
ENDBRANCH   1   7
BRANCH   6  13
ATOM     13  N   LIG d   1      -5.499  92.217 116.246  0.00  0.00    -0.311 N 
ATOM     14  C   LIG d   1      -5.992  90.987 116.114  0.00  0.00     0.210 C 
ATOM     15  C   LIG d   1      -5.379  90.163 114.977  0.00  0.00     0.109 C 
ATOM     16  O   LIG d   1      -6.901  90.511 116.811  0.00  0.00    -0.276 OA
ATOM     17  H   LIG d   1      -4.787  92.533 115.617  0.00  0.00     0.149 HD
ENDBRANCH   6  13
BRANCH   5  18
ATOM     18  N   LIG d   1      -8.372  93.191 116.615  0.00  0.00     0.381 N 
ATOM     19  H   LIG d   1      -8.456  92.495 117.329  0.00  0.00    -0.090 HD
ATOM     20  H   LIG d   1      -8.279  92.725 115.729  0.00  0.00    -0.090 HD
ATOM     21  H   LIG d   1      -9.181  93.771 116.609  0.00  0.00    -0.090 HD
ENDBRANCH   5  18
BRANCH   3  22
ATOM     22  C   LIG d   1      -6.620  97.060 118.827  0.00  0.00     0.382 C 
ATOM     23  O   LIG d   1      -7.741  97.599 118.665  0.00  0.00    -0.241 OA
ATOM     24  O   LIG d   1      -5.701  97.706 119.366  0.00  0.00    -0.241 OA
ENDBRANCH   3  22
TORSDOF 7
ENDMDL
MODEL 8
REMARK VINA RESULT:      -4.7      7.197      9.632
REMARK  7 active torsions:
REMARK  status: ('A' for Active; 'I' for Inactive)
REMARK    1  A    between atoms: C_2  and  C_3 
REMARK    2  A    between atoms: C_3  and  O_6 
REMARK    3  A    between atoms: C_3  and  C_4 
REMARK    4  A    between atoms: C_7  and  O_6 
REMARK    5  A    between atoms: C_9  and  C_10 
REMARK    6  A    between atoms: N_15  and  C_14 
REMARK    7  A    between atoms: N_20  and  C_19 
REMARK       I    between atoms: C_22  and  N_20 
ROOT
ATOM      1  C   LIG d   1       4.275  90.023 115.340  0.00  0.00     0.161 C 
ATOM      2  C   LIG d   1       3.308  89.176 114.773  0.00  0.00     0.016 C 
ATOM      3  C   LIG d   1       3.303  87.773 114.949  0.00  0.00     0.038 C 
ATOM      4  C   LIG d   1       4.185  87.134 115.833  0.00  0.00     0.028 C 
ATOM      5  C   LIG d   1       5.495  87.888 116.034  0.00  0.00    -0.047 C 
ATOM      6  C   LIG d   1       5.178  89.356 116.398  0.00  0.00     0.091 C 
ENDROOT
BRANCH   1   7
ATOM      7  O   LIG d   1       3.637  91.193 115.891  0.00  0.00    -0.368 OA
BRANCH   7   8
ATOM      8  C   LIG d   1       3.016  91.028 117.190  0.00  0.00     0.119 C 
BRANCH   8   9
ATOM      9  C   LIG d   1       1.535  91.427 117.049  0.00  0.00     0.028 C 
ATOM     10  C   LIG d   1       0.597  90.208 117.036  0.00  0.00     0.006 C 
ENDBRANCH   8   9
BRANCH   8  11
ATOM     11  C   LIG d   1       3.603  92.003 118.215  0.00  0.00     0.028 C 
ATOM     12  C   LIG d   1       2.741  92.126 119.481  0.00  0.00     0.006 C 
ENDBRANCH   8  11
ENDBRANCH   7   8
ENDBRANCH   1   7
BRANCH   6  13
ATOM     13  N   LIG d   1       6.405  90.185 116.529  0.00  0.00    -0.311 N 
ATOM     14  C   LIG d   1       7.006  90.426 117.693  0.00  0.00     0.210 C 
ATOM     15  C   LIG d   1       8.246  91.322 117.607  0.00  0.00     0.109 C 
ATOM     16  O   LIG d   1       6.649  89.957 118.784  0.00  0.00    -0.276 OA
ATOM     17  H   LIG d   1       6.780  90.580 115.689  0.00  0.00     0.149 HD
ENDBRANCH   6  13
BRANCH   5  18
ATOM     18  N   LIG d   1       6.259  87.184 117.081  0.00  0.00     0.381 N 
ATOM     19  H   LIG d   1       6.682  86.362 116.697  0.00  0.00    -0.090 HD
ATOM     20  H   LIG d   1       5.627  86.902 117.810  0.00  0.00    -0.090 HD
ATOM     21  H   LIG d   1       6.961  87.785 117.453  0.00  0.00    -0.090 HD
ENDBRANCH   5  18
BRANCH   3  22
ATOM     22  C   LIG d   1       2.435  86.990 114.203  0.00  0.00     0.382 C 
ATOM     23  O   LIG d   1       1.923  87.447 113.153  0.00  0.00    -0.241 OA
ATOM     24  O   LIG d   1       2.123  85.849 114.591  0.00  0.00    -0.241 OA
ENDBRANCH   3  22
TORSDOF 7
ENDMDL
MODEL 9
REMARK VINA RESULT:      -4.7     19.192     21.921
REMARK  7 active torsions:
REMARK  status: ('A' for Active; 'I' for Inactive)
REMARK    1  A    between atoms: C_2  and  C_3 
REMARK    2  A    between atoms: C_3  and  O_6 
REMARK    3  A    between atoms: C_3  and  C_4 
REMARK    4  A    between atoms: C_7  and  O_6 
REMARK    5  A    between atoms: C_9  and  C_10 
REMARK    6  A    between atoms: N_15  and  C_14 
REMARK    7  A    between atoms: N_20  and  C_19 
REMARK       I    between atoms: C_22  and  N_20 
ROOT
ATOM      1  C   LIG d   1      10.215  75.598 114.809  0.00  0.00     0.161 C 
ATOM      2  C   LIG d   1       8.964  76.193 114.571  0.00  0.00     0.016 C 
ATOM      3  C   LIG d   1       8.150  76.728 115.595  0.00  0.00     0.038 C 
ATOM      4  C   LIG d   1       8.601  76.842 116.918  0.00  0.00     0.028 C 
ATOM      5  C   LIG d   1       9.649  75.799 117.293  0.00  0.00    -0.047 C 
ATOM      6  C   LIG d   1      10.773  75.814 116.232  0.00  0.00     0.091 C 
ENDROOT
BRANCH   1   7
ATOM      7  O   LIG d   1      11.166  76.050 113.824  0.00  0.00    -0.368 OA
BRANCH   7   8
ATOM      8  C   LIG d   1      12.078  77.091 114.250  0.00  0.00     0.119 C 
BRANCH   8   9
ATOM      9  C   LIG d   1      11.526  78.432 113.729  0.00  0.00     0.028 C 
ATOM     10  C   LIG d   1      12.522  79.159 112.809  0.00  0.00     0.006 C 
ENDBRANCH   8   9
BRANCH   8  11
ATOM     11  C   LIG d   1      13.451  76.934 113.590  0.00  0.00     0.028 C 
ATOM     12  C   LIG d   1      14.576  76.680 114.606  0.00  0.00     0.006 C 
ENDBRANCH   8  11
ENDBRANCH   7   8
ENDBRANCH   1   7
BRANCH   6  13
ATOM     13  N   LIG d   1      11.797  74.765 116.477  0.00  0.00    -0.311 N 
ATOM     14  C   LIG d   1      12.882  74.960 117.224  0.00  0.00     0.210 C 
ATOM     15  C   LIG d   1      13.819  73.753 117.331  0.00  0.00     0.109 C 
ATOM     16  O   LIG d   1      13.140  76.007 117.835  0.00  0.00    -0.276 OA
ATOM     17  H   LIG d   1      11.650  73.874 116.044  0.00  0.00     0.149 HD
ENDBRANCH   6  13
BRANCH   5  18
ATOM     18  N   LIG d   1      10.131  76.119 118.650  0.00  0.00     0.381 N 
ATOM     19  H   LIG d   1       9.352  76.234 119.267  0.00  0.00    -0.090 HD
ATOM     20  H   LIG d   1      10.639  76.986 118.618  0.00  0.00    -0.090 HD
ATOM     21  H   LIG d   1      10.722  75.390 118.982  0.00  0.00    -0.090 HD
ENDBRANCH   5  18
BRANCH   3  22
ATOM     22  C   LIG d   1       6.852  77.121 115.306  0.00  0.00     0.382 C 
ATOM     23  O   LIG d   1       5.894  76.663 115.975  0.00  0.00    -0.241 OA
ATOM     24  O   LIG d   1       6.622  77.892 114.355  0.00  0.00    -0.241 OA
ENDBRANCH   3  22
TORSDOF 7
ENDMDL
