MODEL 1
REMARK VINA RESULT:      -5.5      0.000      0.000
REMARK  7 active torsions:
REMARK  status: ('A' for Active; 'I' for Inactive)
REMARK    1  A    between atoms: C_2  and  C_3 
REMARK    2  A    between atoms: C_3  and  O_6 
REMARK    3  A    between atoms: C_3  and  C_4 
REMARK    4  A    between atoms: C_7  and  O_6 
REMARK    5  A    between atoms: C_9  and  C_10 
REMARK    6  A    between atoms: N_15  and  C_14 
REMARK    7  A    between atoms: N_20  and  C_19 
REMARK       I    between atoms: C_22  and  N_20 
ROOT
ATOM      1  C   LIG d   1      -8.145  76.212 117.141  0.00  0.00     0.161 C 
ATOM      2  C   LIG d   1      -9.032  75.162 116.849  0.00  0.00     0.016 C 
ATOM      3  C   LIG d   1     -10.341  75.080 117.377  0.00  0.00     0.038 C 
ATOM      4  C   LIG d   1     -10.909  76.127 118.118  0.00  0.00     0.028 C 
ATOM      5  C   LIG d   1      -9.879  76.975 118.856  0.00  0.00    -0.047 C 
ATOM      6  C   LIG d   1      -8.786  77.419 117.857  0.00  0.00     0.091 C 
ENDROOT
BRANCH   1   7
ATOM      7  O   LIG d   1      -7.481  76.640 115.935  0.00  0.00    -0.368 OA
BRANCH   7   8
ATOM      8  C   LIG d   1      -6.033  76.609 115.960  0.00  0.00     0.119 C 
BRANCH   8   9
ATOM      9  C   LIG d   1      -5.562  75.934 114.657  0.00  0.00     0.028 C 
ATOM     10  C   LIG d   1      -5.345  74.421 114.825  0.00  0.00     0.006 C 
ENDBRANCH   8   9
BRANCH   8  11
ATOM     11  C   LIG d   1      -5.514  75.716 117.090  0.00  0.00     0.028 C 
ATOM     12  C   LIG d   1      -4.518  76.439 118.011  0.00  0.00     0.006 C 
ENDBRANCH   8  11
ENDBRANCH   7   8
ENDBRANCH   1   7
BRANCH   6  13
ATOM     13  N   LIG d   1      -7.694  78.183 118.515  0.00  0.00    -0.311 N 
ATOM     14  C   LIG d   1      -7.348  79.420 118.160  0.00  0.00     0.210 C 
ATOM     15  C   LIG d   1      -6.182  80.018 118.954  0.00  0.00     0.109 C 
ATOM     16  O   LIG d   1      -7.917  80.090 117.286  0.00  0.00    -0.276 OA
ATOM     17  H   LIG d   1      -7.200  77.726 119.256  0.00  0.00     0.149 HD
ENDBRANCH   6  13
BRANCH   5  18
ATOM     18  N   LIG d   1     -10.594  78.108 119.473  0.00  0.00     0.381 N 
ATOM     19  H   LIG d   1     -11.248  78.491 118.820  0.00  0.00    -0.090 HD
ATOM     20  H   LIG d   1      -9.928  78.823 119.709  0.00  0.00    -0.090 HD
ATOM     21  H   LIG d   1     -11.070  77.804 120.293  0.00  0.00    -0.090 HD
ENDBRANCH   5  18
BRANCH   3  22
ATOM     22  C   LIG d   1     -11.082  73.921 117.199  0.00  0.00     0.382 C 
ATOM     23  O   LIG d   1     -10.538  72.896 116.723  0.00  0.00    -0.241 OA
ATOM     24  O   LIG d   1     -12.298  73.902 117.467  0.00  0.00    -0.241 OA
ENDBRANCH   3  22
TORSDOF 7
ENDMDL
MODEL 2
REMARK VINA RESULT:      -5.3      1.726      4.913
REMARK  7 active torsions:
REMARK  status: ('A' for Active; 'I' for Inactive)
REMARK    1  A    between atoms: C_2  and  C_3 
REMARK    2  A    between atoms: C_3  and  O_6 
REMARK    3  A    between atoms: C_3  and  C_4 
REMARK    4  A    between atoms: C_7  and  O_6 
REMARK    5  A    between atoms: C_9  and  C_10 
REMARK    6  A    between atoms: N_15  and  C_14 
REMARK    7  A    between atoms: N_20  and  C_19 
REMARK       I    between atoms: C_22  and  N_20 
ROOT
ATOM      1  C   LIG d   1      -8.307  76.449 117.010  0.00  0.00     0.161 C 
ATOM      2  C   LIG d   1      -7.691  75.883 115.881  0.00  0.00     0.016 C 
ATOM      3  C   LIG d   1      -6.342  76.122 115.529  0.00  0.00     0.038 C 
ATOM      4  C   LIG d   1      -5.470  76.828 116.371  0.00  0.00     0.028 C 
ATOM      5  C   LIG d   1      -6.179  77.839 117.266  0.00  0.00    -0.047 C 
ATOM      6  C   LIG d   1      -7.341  77.132 118.000  0.00  0.00     0.091 C 
ENDROOT
BRANCH   1   7
ATOM      7  O   LIG d   1      -9.096  75.451 117.687  0.00  0.00    -0.368 OA
BRANCH   7   8
ATOM      8  C   LIG d   1     -10.521  75.481 117.427  0.00  0.00     0.119 C 
BRANCH   8   9
ATOM      9  C   LIG d   1     -11.225  75.865 118.743  0.00  0.00     0.028 C 
ATOM     10  C   LIG d   1     -12.694  75.411 118.778  0.00  0.00     0.006 C 
ENDBRANCH   8   9
BRANCH   8  11
ATOM     11  C   LIG d   1     -11.053  74.088 117.075  0.00  0.00     0.028 C 
ATOM     12  C   LIG d   1      -9.932  73.052 116.891  0.00  0.00     0.006 C 
ENDBRANCH   8  11
ENDBRANCH   7   8
ENDBRANCH   1   7
BRANCH   6  13
ATOM     13  N   LIG d   1      -8.139  78.069 118.833  0.00  0.00    -0.311 N 
ATOM     14  C   LIG d   1      -8.406  79.324 118.474  0.00  0.00     0.210 C 
ATOM     15  C   LIG d   1      -9.229  80.125 119.487  0.00  0.00     0.109 C 
ATOM     16  O   LIG d   1      -8.067  79.839 117.398  0.00  0.00    -0.276 OA
ATOM     17  H   LIG d   1      -8.481  77.724 119.708  0.00  0.00     0.149 HD
ENDBRANCH   6  13
BRANCH   5  18
ATOM     18  N   LIG d   1      -5.172  78.403 118.186  0.00  0.00     0.381 N 
ATOM     19  H   LIG d   1      -4.590  77.671 118.540  0.00  0.00    -0.090 HD
ATOM     20  H   LIG d   1      -5.645  78.833 118.961  0.00  0.00    -0.090 HD
ATOM     21  H   LIG d   1      -4.616  79.079 117.710  0.00  0.00    -0.090 HD
ENDBRANCH   5  18
BRANCH   3  22
ATOM     22  C   LIG d   1      -5.865  75.685 114.303  0.00  0.00     0.382 C 
ATOM     23  O   LIG d   1      -5.108  74.686 114.245  0.00  0.00    -0.241 OA
ATOM     24  O   LIG d   1      -6.145  76.305 113.259  0.00  0.00    -0.241 OA
ENDBRANCH   3  22
TORSDOF 7
ENDMDL
MODEL 3
REMARK VINA RESULT:      -5.3      4.732      8.072
REMARK  7 active torsions:
REMARK  status: ('A' for Active; 'I' for Inactive)
REMARK    1  A    between atoms: C_2  and  C_3 
REMARK    2  A    between atoms: C_3  and  O_6 
REMARK    3  A    between atoms: C_3  and  C_4 
REMARK    4  A    between atoms: C_7  and  O_6 
REMARK    5  A    between atoms: C_9  and  C_10 
REMARK    6  A    between atoms: N_15  and  C_14 
REMARK    7  A    between atoms: N_20  and  C_19 
REMARK       I    between atoms: C_22  and  N_20 
ROOT
ATOM      1  C   LIG d   1      -2.953  77.372 116.338  0.00  0.00     0.161 C 
ATOM      2  C   LIG d   1      -3.132  78.427 115.427  0.00  0.00     0.016 C 
ATOM      3  C   LIG d   1      -2.239  78.698 114.365  0.00  0.00     0.038 C 
ATOM      4  C   LIG d   1      -1.179  77.835 114.049  0.00  0.00     0.028 C 
ATOM      5  C   LIG d   1      -0.667  77.042 115.246  0.00  0.00    -0.047 C 
ATOM      6  C   LIG d   1      -1.863  76.354 115.942  0.00  0.00     0.091 C 
ENDROOT
BRANCH   1   7
ATOM      7  O   LIG d   1      -4.209  76.701 116.561  0.00  0.00    -0.368 OA
BRANCH   7   8
ATOM      8  C   LIG d   1      -5.008  76.435 115.382  0.00  0.00     0.119 C 
BRANCH   8   9
ATOM      9  C   LIG d   1      -6.480  76.704 115.751  0.00  0.00     0.028 C 
ATOM     10  C   LIG d   1      -6.622  77.719 116.897  0.00  0.00     0.006 C 
ENDBRANCH   8   9
BRANCH   8  11
ATOM     11  C   LIG d   1      -4.951  74.954 114.993  0.00  0.00     0.028 C 
ATOM     12  C   LIG d   1      -5.410  74.022 116.126  0.00  0.00     0.006 C 
ENDBRANCH   8  11
ENDBRANCH   7   8
ENDBRANCH   1   7
BRANCH   6  13
ATOM     13  N   LIG d   1      -1.461  75.624 117.172  0.00  0.00    -0.311 N 
ATOM     14  C   LIG d   1      -1.221  74.315 117.203  0.00  0.00     0.210 C 
ATOM     15  C   LIG d   1      -0.839  73.759 118.579  0.00  0.00     0.109 C 
ATOM     16  O   LIG d   1      -1.258  73.566 116.215  0.00  0.00    -0.276 OA
ATOM     17  H   LIG d   1      -1.377  76.161 118.014  0.00  0.00     0.149 HD
ENDBRANCH   6  13
BRANCH   5  18
ATOM     18  N   LIG d   1       0.340  76.085 114.748  0.00  0.00     0.381 N 
ATOM     19  H   LIG d   1       0.627  75.479 115.490  0.00  0.00    -0.090 HD
ATOM     20  H   LIG d   1       1.145  76.597 114.431  0.00  0.00    -0.090 HD
ATOM     21  H   LIG d   1      -0.039  75.550 113.999  0.00  0.00    -0.090 HD
ENDBRANCH   5  18
BRANCH   3  22
ATOM     22  C   LIG d   1      -2.379  79.866 113.631  0.00  0.00     0.382 C 
ATOM     23  O   LIG d   1      -1.372  80.569 113.373  0.00  0.00    -0.241 OA
ATOM     24  O   LIG d   1      -3.505  80.249 113.262  0.00  0.00    -0.241 OA
ENDBRANCH   3  22
TORSDOF 7
ENDMDL
MODEL 4
REMARK VINA RESULT:      -5.2      0.827      1.528
REMARK  7 active torsions:
REMARK  status: ('A' for Active; 'I' for Inactive)
REMARK    1  A    between atoms: C_2  and  C_3 
REMARK    2  A    between atoms: C_3  and  O_6 
REMARK    3  A    between atoms: C_3  and  C_4 
REMARK    4  A    between atoms: C_7  and  O_6 
REMARK    5  A    between atoms: C_9  and  C_10 
REMARK    6  A    between atoms: N_15  and  C_14 
REMARK    7  A    between atoms: N_20  and  C_19 
REMARK       I    between atoms: C_22  and  N_20 
ROOT
ATOM      1  C   LIG d   1      -7.816  76.404 117.317  0.00  0.00     0.161 C 
ATOM      2  C   LIG d   1      -8.591  75.287 116.965  0.00  0.00     0.016 C 
ATOM      3  C   LIG d   1      -9.944  75.128 117.344  0.00  0.00     0.038 C 
ATOM      4  C   LIG d   1     -10.662  76.153 117.978  0.00  0.00     0.028 C 
ATOM      5  C   LIG d   1      -9.782  77.092 118.797  0.00  0.00    -0.047 C 
ATOM      6  C   LIG d   1      -8.613  77.583 117.913  0.00  0.00     0.091 C 
ENDROOT
BRANCH   1   7
ATOM      7  O   LIG d   1      -7.047  76.844 116.180  0.00  0.00    -0.368 OA
BRANCH   7   8
ATOM      8  C   LIG d   1      -5.641  76.494 116.188  0.00  0.00     0.119 C 
BRANCH   8   9
ATOM      9  C   LIG d   1      -4.843  77.787 116.447  0.00  0.00     0.028 C 
ATOM     10  C   LIG d   1      -3.590  77.891 115.562  0.00  0.00     0.006 C 
ENDBRANCH   8   9
BRANCH   8  11
ATOM     11  C   LIG d   1      -5.181  76.003 114.811  0.00  0.00     0.028 C 
ATOM     12  C   LIG d   1      -5.330  74.483 114.641  0.00  0.00     0.006 C 
ENDBRANCH   8  11
ENDBRANCH   7   8
ENDBRANCH   1   7
BRANCH   6  13
ATOM     13  N   LIG d   1      -7.658  78.440 118.662  0.00  0.00    -0.311 N 
ATOM     14  C   LIG d   1      -7.321  79.671 118.279  0.00  0.00     0.210 C 
ATOM     15  C   LIG d   1      -6.304  80.374 119.184  0.00  0.00     0.109 C 
ATOM     16  O   LIG d   1      -7.792  80.259 117.294  0.00  0.00    -0.276 OA
ATOM     17  H   LIG d   1      -7.251  78.053 119.491  0.00  0.00     0.149 HD
ENDBRANCH   6  13
BRANCH   5  18
ATOM     18  N   LIG d   1     -10.637  78.189 119.288  0.00  0.00     0.381 N 
ATOM     19  H   LIG d   1     -11.415  77.813 119.792  0.00  0.00    -0.090 HD
ATOM     20  H   LIG d   1     -10.992  78.702 118.500  0.00  0.00    -0.090 HD
ATOM     21  H   LIG d   1     -10.110  78.794 119.878  0.00  0.00    -0.090 HD
ENDBRANCH   5  18
BRANCH   3  22
ATOM     22  C   LIG d   1     -10.581  73.916 117.125  0.00  0.00     0.382 C 
ATOM     23  O   LIG d   1      -9.911  72.904 116.806  0.00  0.00    -0.241 OA
ATOM     24  O   LIG d   1     -11.821  73.832 117.199  0.00  0.00    -0.241 OA
ENDBRANCH   3  22
TORSDOF 7
ENDMDL
MODEL 5
REMARK VINA RESULT:      -5.1      2.139      3.976
REMARK  7 active torsions:
REMARK  status: ('A' for Active; 'I' for Inactive)
REMARK    1  A    between atoms: C_2  and  C_3 
REMARK    2  A    between atoms: C_3  and  O_6 
REMARK    3  A    between atoms: C_3  and  C_4 
REMARK    4  A    between atoms: C_7  and  O_6 
REMARK    5  A    between atoms: C_9  and  C_10 
REMARK    6  A    between atoms: N_15  and  C_14 
REMARK    7  A    between atoms: N_20  and  C_19 
REMARK       I    between atoms: C_22  and  N_20 
ROOT
ATOM      1  C   LIG d   1      -7.631  76.795 117.198  0.00  0.00     0.161 C 
ATOM      2  C   LIG d   1      -8.992  76.584 117.475  0.00  0.00     0.016 C 
ATOM      3  C   LIG d   1      -9.582  75.302 117.549  0.00  0.00     0.038 C 
ATOM      4  C   LIG d   1      -8.814  74.129 117.501  0.00  0.00     0.028 C 
ATOM      5  C   LIG d   1      -7.514  74.287 116.719  0.00  0.00    -0.047 C 
ATOM      6  C   LIG d   1      -6.756  75.525 117.252  0.00  0.00     0.091 C 
ENDROOT
BRANCH   1   7
ATOM      7  O   LIG d   1      -7.103  77.805 118.080  0.00  0.00    -0.368 OA
BRANCH   7   8
ATOM      8  C   LIG d   1      -6.637  79.022 117.448  0.00  0.00     0.119 C 
BRANCH   8   9
ATOM      9  C   LIG d   1      -5.130  79.150 117.745  0.00  0.00     0.028 C 
ATOM     10  C   LIG d   1      -4.320  79.566 116.505  0.00  0.00     0.006 C 
ENDBRANCH   8   9
BRANCH   8  11
ATOM     11  C   LIG d   1      -7.281  80.260 118.080  0.00  0.00     0.028 C 
ATOM     12  C   LIG d   1      -8.798  80.329 117.843  0.00  0.00     0.006 C 
ENDBRANCH   8  11
ENDBRANCH   7   8
ENDBRANCH   1   7
BRANCH   6  13
ATOM     13  N   LIG d   1      -5.513  75.801 116.486  0.00  0.00    -0.311 N 
ATOM     14  C   LIG d   1      -5.507  76.155 115.202  0.00  0.00     0.210 C 
ATOM     15  C   LIG d   1      -4.116  76.374 114.598  0.00  0.00     0.109 C 
ATOM     16  O   LIG d   1      -6.523  76.341 114.514  0.00  0.00    -0.276 OA
ATOM     17  H   LIG d   1      -4.645  75.705 116.975  0.00  0.00     0.149 HD
ENDBRANCH   6  13
BRANCH   5  18
ATOM     18  N   LIG d   1      -6.750  73.034 116.866  0.00  0.00     0.381 N 
ATOM     19  H   LIG d   1      -6.602  72.839 117.836  0.00  0.00    -0.090 HD
ATOM     20  H   LIG d   1      -5.853  73.147 116.426  0.00  0.00    -0.090 HD
ATOM     21  H   LIG d   1      -7.245  72.281 116.440  0.00  0.00    -0.090 HD
ENDBRANCH   5  18
BRANCH   3  22
ATOM     22  C   LIG d   1     -10.960  75.183 117.634  0.00  0.00     0.382 C 
ATOM     23  O   LIG d   1     -11.516  74.099 117.333  0.00  0.00    -0.241 OA
ATOM     24  O   LIG d   1     -11.659  76.160 117.965  0.00  0.00    -0.241 OA
ENDBRANCH   3  22
TORSDOF 7
ENDMDL
MODEL 6
REMARK VINA RESULT:      -5.1      1.777      4.926
REMARK  7 active torsions:
REMARK  status: ('A' for Active; 'I' for Inactive)
REMARK    1  A    between atoms: C_2  and  C_3 
REMARK    2  A    between atoms: C_3  and  O_6 
REMARK    3  A    between atoms: C_3  and  C_4 
REMARK    4  A    between atoms: C_7  and  O_6 
REMARK    5  A    between atoms: C_9  and  C_10 
REMARK    6  A    between atoms: N_15  and  C_14 
REMARK    7  A    between atoms: N_20  and  C_19 
REMARK       I    between atoms: C_22  and  N_20 
ROOT
ATOM      1  C   LIG d   1      -7.412  77.295 117.196  0.00  0.00     0.161 C 
ATOM      2  C   LIG d   1      -6.723  78.515 117.300  0.00  0.00     0.016 C 
ATOM      3  C   LIG d   1      -7.251  79.653 117.951  0.00  0.00     0.038 C 
ATOM      4  C   LIG d   1      -8.449  79.601 118.680  0.00  0.00     0.028 C 
ATOM      5  C   LIG d   1      -9.418  78.536 118.178  0.00  0.00    -0.047 C 
ATOM      6  C   LIG d   1      -8.671  77.186 118.080  0.00  0.00     0.091 C 
ENDROOT
BRANCH   1   7
ATOM      7  O   LIG d   1      -6.512  76.202 117.468  0.00  0.00    -0.368 OA
BRANCH   7   8
ATOM      8  C   LIG d   1      -5.888  75.588 116.314  0.00  0.00     0.119 C 
BRANCH   8   9
ATOM      9  C   LIG d   1      -6.783  75.878 115.094  0.00  0.00     0.028 C 
ATOM     10  C   LIG d   1      -5.987  75.922 113.779  0.00  0.00     0.006 C 
ENDBRANCH   8   9
BRANCH   8  11
ATOM     11  C   LIG d   1      -5.859  74.062 116.442  0.00  0.00     0.028 C 
ATOM     12  C   LIG d   1      -7.178  73.484 116.979  0.00  0.00     0.006 C 
ENDBRANCH   8  11
ENDBRANCH   7   8
ENDBRANCH   1   7
BRANCH   6  13
ATOM     13  N   LIG d   1      -9.524  76.106 117.517  0.00  0.00    -0.311 N 
ATOM     14  C   LIG d   1     -10.239  75.270 118.268  0.00  0.00     0.210 C 
ATOM     15  C   LIG d   1     -11.033  74.218 117.487  0.00  0.00     0.109 C 
ATOM     16  O   LIG d   1     -10.316  75.320 119.505  0.00  0.00    -0.276 OA
ATOM     17  H   LIG d   1      -9.545  76.015 116.520  0.00  0.00     0.149 HD
ENDBRANCH   6  13
BRANCH   5  18
ATOM     18  N   LIG d   1     -10.561  78.499 119.110  0.00  0.00     0.381 N 
ATOM     19  H   LIG d   1     -10.336  77.926 119.899  0.00  0.00    -0.090 HD
ATOM     20  H   LIG d   1     -11.350  78.091 118.640  0.00  0.00    -0.090 HD
ATOM     21  H   LIG d   1     -10.784  79.421 119.412  0.00  0.00    -0.090 HD
ENDBRANCH   5  18
BRANCH   3  22
ATOM     22  C   LIG d   1      -6.598  80.871 117.844  0.00  0.00     0.382 C 
ATOM     23  O   LIG d   1      -6.857  81.640 116.887  0.00  0.00    -0.241 OA
ATOM     24  O   LIG d   1      -5.720  81.192 118.668  0.00  0.00    -0.241 OA
ENDBRANCH   3  22
TORSDOF 7
ENDMDL
MODEL 7
REMARK VINA RESULT:      -4.8     17.203     20.486
REMARK  7 active torsions:
REMARK  status: ('A' for Active; 'I' for Inactive)
REMARK    1  A    between atoms: C_2  and  C_3 
REMARK    2  A    between atoms: C_3  and  O_6 
REMARK    3  A    between atoms: C_3  and  C_4 
REMARK    4  A    between atoms: C_7  and  O_6 
REMARK    5  A    between atoms: C_9  and  C_10 
REMARK    6  A    between atoms: N_15  and  C_14 
REMARK    7  A    between atoms: N_20  and  C_19 
REMARK       I    between atoms: C_22  and  N_20 
ROOT
ATOM      1  C   LIG d   1      10.967  77.790 115.458  0.00  0.00     0.161 C 
ATOM      2  C   LIG d   1      11.257  78.985 114.778  0.00  0.00     0.016 C 
ATOM      3  C   LIG d   1      12.436  79.185 114.023  0.00  0.00     0.038 C 
ATOM      4  C   LIG d   1      13.340  78.142 113.771  0.00  0.00     0.028 C 
ATOM      5  C   LIG d   1      13.342  77.067 114.852  0.00  0.00    -0.047 C 
ATOM      6  C   LIG d   1      11.888  76.604 115.103  0.00  0.00     0.091 C 
ENDROOT
BRANCH   1   7
ATOM      7  O   LIG d   1       9.587  77.432 115.249  0.00  0.00    -0.368 OA
BRANCH   7   8
ATOM      8  C   LIG d   1       8.627  78.040 116.149  0.00  0.00     0.119 C 
BRANCH   8   9
ATOM      9  C   LIG d   1       8.420  77.071 117.328  0.00  0.00     0.028 C 
ATOM     10  C   LIG d   1       9.131  77.542 118.608  0.00  0.00     0.006 C 
ENDBRANCH   8   9
BRANCH   8  11
ATOM     11  C   LIG d   1       7.252  78.175 115.489  0.00  0.00     0.028 C 
ATOM     12  C   LIG d   1       6.099  78.162 116.505  0.00  0.00     0.006 C 
ENDBRANCH   8  11
ENDBRANCH   7   8
ENDBRANCH   1   7
BRANCH   6  13
ATOM     13  N   LIG d   1      11.791  75.613 116.206  0.00  0.00    -0.311 N 
ATOM     14  C   LIG d   1      11.873  74.297 116.018  0.00  0.00     0.210 C 
ATOM     15  C   LIG d   1      11.727  73.453 117.288  0.00  0.00     0.109 C 
ATOM     16  O   LIG d   1      12.084  73.750 114.925  0.00  0.00    -0.276 OA
ATOM     17  H   LIG d   1      11.650  75.972 117.130  0.00  0.00     0.149 HD
ENDBRANCH   6  13
BRANCH   5  18
ATOM     18  N   LIG d   1      14.225  75.977 114.396  0.00  0.00     0.381 N 
ATOM     19  H   LIG d   1      13.881  75.601 113.534  0.00  0.00    -0.090 HD
ATOM     20  H   LIG d   1      14.220  75.245 115.084  0.00  0.00    -0.090 HD
ATOM     21  H   LIG d   1      15.152  76.319 114.271  0.00  0.00    -0.090 HD
ENDBRANCH   5  18
BRANCH   3  22
ATOM     22  C   LIG d   1      12.739  80.450 113.545  0.00  0.00     0.382 C 
ATOM     23  O   LIG d   1      11.924  81.053 112.805  0.00  0.00    -0.241 OA
ATOM     24  O   LIG d   1      13.837  80.978 113.807  0.00  0.00    -0.241 OA
ENDBRANCH   3  22
TORSDOF 7
ENDMDL
MODEL 8
REMARK VINA RESULT:      -4.6     18.075     20.806
REMARK  7 active torsions:
REMARK  status: ('A' for Active; 'I' for Inactive)
REMARK    1  A    between atoms: C_2  and  C_3 
REMARK    2  A    between atoms: C_3  and  O_6 
REMARK    3  A    between atoms: C_3  and  C_4 
REMARK    4  A    between atoms: C_7  and  O_6 
REMARK    5  A    between atoms: C_9  and  C_10 
REMARK    6  A    between atoms: N_15  and  C_14 
REMARK    7  A    between atoms: N_20  and  C_19 
REMARK       I    between atoms: C_22  and  N_20 
ROOT
ATOM      1  C   LIG d   1      11.823  77.985 114.667  0.00  0.00     0.161 C 
ATOM      2  C   LIG d   1      10.534  78.470 114.947  0.00  0.00     0.016 C 
ATOM      3  C   LIG d   1       9.508  77.674 115.507  0.00  0.00     0.038 C 
ATOM      4  C   LIG d   1       9.749  76.371 115.967  0.00  0.00     0.028 C 
ATOM      5  C   LIG d   1      10.896  75.675 115.243  0.00  0.00    -0.047 C 
ATOM      6  C   LIG d   1      12.136  76.598 115.265  0.00  0.00     0.091 C 
ENDROOT
BRANCH   1   7
ATOM      7  O   LIG d   1      12.809  78.947 115.090  0.00  0.00    -0.368 OA
BRANCH   7   8
ATOM      8  C   LIG d   1      13.144  79.981 114.131  0.00  0.00     0.119 C 
BRANCH   8   9
ATOM      9  C   LIG d   1      13.641  79.281 112.851  0.00  0.00     0.028 C 
ATOM     10  C   LIG d   1      15.133  78.916 112.923  0.00  0.00     0.006 C 
ENDBRANCH   8   9
BRANCH   8  11
ATOM     11  C   LIG d   1      14.325  80.828 114.614  0.00  0.00     0.028 C 
ATOM     12  C   LIG d   1      14.478  80.820 116.143  0.00  0.00     0.006 C 
ENDBRANCH   8  11
ENDBRANCH   7   8
ENDBRANCH   1   7
BRANCH   6  13
ATOM     13  N   LIG d   1      13.280  76.028 114.505  0.00  0.00    -0.311 N 
ATOM     14  C   LIG d   1      14.508  75.912 115.007  0.00  0.00     0.210 C 
ATOM     15  C   LIG d   1      15.544  75.317 114.048  0.00  0.00     0.109 C 
ATOM     16  O   LIG d   1      14.830  76.215 116.165  0.00  0.00    -0.276 OA
ATOM     17  H   LIG d   1      13.100  75.728 113.567  0.00  0.00     0.149 HD
ENDBRANCH   6  13
BRANCH   5  18
ATOM     18  N   LIG d   1      11.127  74.381 115.914  0.00  0.00     0.381 N 
ATOM     19  H   LIG d   1      11.943  73.944 115.535  0.00  0.00    -0.090 HD
ATOM     20  H   LIG d   1      10.339  73.781 115.743  0.00  0.00    -0.090 HD
ATOM     21  H   LIG d   1      11.241  74.521 116.894  0.00  0.00    -0.090 HD
ENDBRANCH   5  18
BRANCH   3  22
ATOM     22  C   LIG d   1       8.215  78.168 115.574  0.00  0.00     0.382 C 
ATOM     23  O   LIG d   1       7.925  79.056 116.412  0.00  0.00    -0.241 OA
ATOM     24  O   LIG d   1       7.323  77.706 114.837  0.00  0.00    -0.241 OA
ENDBRANCH   3  22
TORSDOF 7
ENDMDL
MODEL 9
REMARK VINA RESULT:      -4.6     17.640     20.456
REMARK  7 active torsions:
REMARK  status: ('A' for Active; 'I' for Inactive)
REMARK    1  A    between atoms: C_2  and  C_3 
REMARK    2  A    between atoms: C_3  and  O_6 
REMARK    3  A    between atoms: C_3  and  C_4 
REMARK    4  A    between atoms: C_7  and  O_6 
REMARK    5  A    between atoms: C_9  and  C_10 
REMARK    6  A    between atoms: N_15  and  C_14 
REMARK    7  A    between atoms: N_20  and  C_19 
REMARK       I    between atoms: C_22  and  N_20 
ROOT
ATOM      1  C   LIG d   1      11.147  78.544 114.567  0.00  0.00     0.161 C 
ATOM      2  C   LIG d   1       9.857  78.563 115.123  0.00  0.00     0.016 C 
ATOM      3  C   LIG d   1       9.240  77.427 115.697  0.00  0.00     0.038 C 
ATOM      4  C   LIG d   1       9.936  76.225 115.891  0.00  0.00     0.028 C 
ATOM      5  C   LIG d   1      11.067  76.011 114.890  0.00  0.00    -0.047 C 
ATOM      6  C   LIG d   1      11.963  77.270 114.869  0.00  0.00     0.091 C 
ENDROOT
BRANCH   1   7
ATOM      7  O   LIG d   1      11.875  79.716 114.983  0.00  0.00    -0.368 OA
BRANCH   7   8
ATOM      8  C   LIG d   1      12.766  79.545 116.113  0.00  0.00     0.119 C 
BRANCH   8   9
ATOM      9  C   LIG d   1      12.168  80.327 117.298  0.00  0.00     0.028 C 
ATOM     10  C   LIG d   1      12.641  81.790 117.335  0.00  0.00     0.006 C 
ENDBRANCH   8   9
BRANCH   8  11
ATOM     11  C   LIG d   1      14.130  80.190 115.849  0.00  0.00     0.028 C 
ATOM     12  C   LIG d   1      14.358  80.515 114.364  0.00  0.00     0.006 C 
ENDBRANCH   8  11
ENDBRANCH   7   8
ENDBRANCH   1   7
BRANCH   6  13
ATOM     13  N   LIG d   1      13.045  77.179 113.855  0.00  0.00    -0.311 N 
ATOM     14  C   LIG d   1      14.285  76.782 114.140  0.00  0.00     0.210 C 
ATOM     15  C   LIG d   1      15.251  76.779 112.951  0.00  0.00     0.109 C 
ATOM     16  O   LIG d   1      14.667  76.402 115.257  0.00  0.00    -0.276 OA
ATOM     17  H   LIG d   1      12.814  77.438 112.916  0.00  0.00     0.149 HD
ENDBRANCH   6  13
BRANCH   5  18
ATOM     18  N   LIG d   1      11.793  74.791 115.292  0.00  0.00     0.381 N 
ATOM     19  H   LIG d   1      12.746  75.016 115.495  0.00  0.00    -0.090 HD
ATOM     20  H   LIG d   1      11.779  74.138 114.528  0.00  0.00    -0.090 HD
ATOM     21  H   LIG d   1      11.361  74.386 116.093  0.00  0.00    -0.090 HD
ENDBRANCH   5  18
BRANCH   3  22
ATOM     22  C   LIG d   1       7.900  77.477 116.048  0.00  0.00     0.382 C 
ATOM     23  O   LIG d   1       7.039  77.791 115.192  0.00  0.00    -0.241 OA
ATOM     24  O   LIG d   1       7.545  77.253 117.221  0.00  0.00    -0.241 OA
ENDBRANCH   3  22
TORSDOF 7
ENDMDL
