MODEL 1
REMARK VINA RESULT:      -5.2      0.000      0.000
REMARK  7 active torsions:
REMARK  status: ('A' for Active; 'I' for Inactive)
REMARK    1  A    between atoms: C_2  and  C_3 
REMARK    2  A    between atoms: C_3  and  O_6 
REMARK    3  A    between atoms: C_3  and  C_4 
REMARK    4  A    between atoms: C_7  and  O_6 
REMARK    5  A    between atoms: C_9  and  C_10 
REMARK    6  A    between atoms: N_15  and  C_14 
REMARK    7  A    between atoms: N_20  and  C_19 
REMARK       I    between atoms: C_22  and  N_20 
ROOT
ATOM      1  C   LIG d   1      -2.997  77.087 117.092  0.00  0.00     0.161 C 
ATOM      2  C   LIG d   1      -2.120  77.840 117.890  0.00  0.00     0.016 C 
ATOM      3  C   LIG d   1      -0.712  77.762 117.784  0.00  0.00     0.038 C 
ATOM      4  C   LIG d   1      -0.084  77.034 116.763  0.00  0.00     0.028 C 
ATOM      5  C   LIG d   1      -0.917  75.862 116.255  0.00  0.00    -0.047 C 
ATOM      6  C   LIG d   1      -2.333  76.370 115.899  0.00  0.00     0.091 C 
ENDROOT
BRANCH   1   7
ATOM      7  O   LIG d   1      -4.081  77.921 116.636  0.00  0.00    -0.368 OA
BRANCH   7   8
ATOM      8  C   LIG d   1      -5.292  77.883 117.430  0.00  0.00     0.119 C 
BRANCH   8   9
ATOM      9  C   LIG d   1      -6.314  77.013 116.673  0.00  0.00     0.028 C 
ATOM     10  C   LIG d   1      -6.434  75.599 117.266  0.00  0.00     0.006 C 
ENDBRANCH   8   9
BRANCH   8  11
ATOM     11  C   LIG d   1      -5.935  79.269 117.531  0.00  0.00     0.028 C 
ATOM     12  C   LIG d   1      -7.417  79.211 117.937  0.00  0.00     0.006 C 
ENDBRANCH   8  11
ENDBRANCH   7   8
ENDBRANCH   1   7
BRANCH   6  13
ATOM     13  N   LIG d   1      -3.239  75.271 115.473  0.00  0.00    -0.311 N 
ATOM     14  C   LIG d   1      -3.949  75.302 114.346  0.00  0.00     0.210 C 
ATOM     15  C   LIG d   1      -4.835  74.075 114.107  0.00  0.00     0.109 C 
ATOM     16  O   LIG d   1      -3.905  76.214 113.507  0.00  0.00    -0.276 OA
ATOM     17  H   LIG d   1      -3.311  74.478 116.079  0.00  0.00     0.149 HD
ENDBRANCH   6  13
BRANCH   5  18
ATOM     18  N   LIG d   1      -0.206  75.276 115.103  0.00  0.00     0.381 N 
ATOM     19  H   LIG d   1      -0.867  74.902 114.452  0.00  0.00    -0.090 HD
ATOM     20  H   LIG d   1       0.375  74.524 115.429  0.00  0.00    -0.090 HD
ATOM     21  H   LIG d   1       0.354  75.970 114.659  0.00  0.00    -0.090 HD
ENDBRANCH   5  18
BRANCH   3  22
ATOM     22  C   LIG d   1       0.084  78.388 118.732  0.00  0.00     0.382 C 
ATOM     23  O   LIG d   1       0.792  77.702 119.508  0.00  0.00    -0.241 OA
ATOM     24  O   LIG d   1       0.069  79.628 118.850  0.00  0.00    -0.241 OA
ENDBRANCH   3  22
TORSDOF 7
ENDMDL
MODEL 2
REMARK VINA RESULT:      -4.5     19.981     21.562
REMARK  7 active torsions:
REMARK  status: ('A' for Active; 'I' for Inactive)
REMARK    1  A    between atoms: C_2  and  C_3 
REMARK    2  A    between atoms: C_3  and  O_6 
REMARK    3  A    between atoms: C_3  and  C_4 
REMARK    4  A    between atoms: C_7  and  O_6 
REMARK    5  A    between atoms: C_9  and  C_10 
REMARK    6  A    between atoms: N_15  and  C_14 
REMARK    7  A    between atoms: N_20  and  C_19 
REMARK       I    between atoms: C_22  and  N_20 
ROOT
ATOM      1  C   LIG d   1     -22.622  83.059 115.824  0.00  0.00     0.161 C 
ATOM      2  C   LIG d   1     -22.220  84.380 115.563  0.00  0.00     0.016 C 
ATOM      3  C   LIG d   1     -22.710  85.141 114.477  0.00  0.00     0.038 C 
ATOM      4  C   LIG d   1     -23.755  84.682 113.661  0.00  0.00     0.028 C 
ATOM      5  C   LIG d   1     -23.836  83.162 113.578  0.00  0.00    -0.047 C 
ATOM      6  C   LIG d   1     -23.842  82.581 115.011  0.00  0.00     0.091 C 
ENDROOT
BRANCH   1   7
ATOM      7  O   LIG d   1     -22.863  82.893 117.235  0.00  0.00    -0.368 OA
BRANCH   7   8
ATOM      8  C   LIG d   1     -22.118  83.767 118.118  0.00  0.00     0.119 C 
BRANCH   8   9
ATOM      9  C   LIG d   1     -21.186  82.882 118.968  0.00  0.00     0.028 C 
ATOM     10  C   LIG d   1     -21.911  81.660 119.555  0.00  0.00     0.006 C 
ENDBRANCH   8   9
BRANCH   8  11
ATOM     11  C   LIG d   1     -23.041  84.465 119.121  0.00  0.00     0.028 C 
ATOM     12  C   LIG d   1     -23.295  85.940 118.771  0.00  0.00     0.006 C 
ENDBRANCH   8  11
ENDBRANCH   7   8
ENDBRANCH   1   7
BRANCH   6  13
ATOM     13  N   LIG d   1     -23.835  81.095 115.020  0.00  0.00    -0.311 N 
ATOM     14  C   LIG d   1     -24.940  80.357 115.108  0.00  0.00     0.210 C 
ATOM     15  C   LIG d   1     -24.707  78.843 115.121  0.00  0.00     0.109 C 
ATOM     16  O   LIG d   1     -26.093  80.812 115.144  0.00  0.00    -0.276 OA
ATOM     17  H   LIG d   1     -22.943  80.643 114.963  0.00  0.00     0.149 HD
ENDBRANCH   6  13
BRANCH   5  18
ATOM     18  N   LIG d   1     -25.048  82.821 112.810  0.00  0.00     0.381 N 
ATOM     19  H   LIG d   1     -25.767  83.492 112.997  0.00  0.00    -0.090 HD
ATOM     20  H   LIG d   1     -25.376  81.918 113.104  0.00  0.00    -0.090 HD
ATOM     21  H   LIG d   1     -24.842  82.807 111.836  0.00  0.00    -0.090 HD
ENDBRANCH   5  18
BRANCH   3  22
ATOM     22  C   LIG d   1     -22.125  86.361 114.174  0.00  0.00     0.382 C 
ATOM     23  O   LIG d   1     -21.110  86.404 113.438  0.00  0.00    -0.241 OA
ATOM     24  O   LIG d   1     -22.573  87.416 114.663  0.00  0.00    -0.241 OA
ENDBRANCH   3  22
TORSDOF 7
ENDMDL
MODEL 3
REMARK VINA RESULT:      -4.5     10.409     12.239
REMARK  7 active torsions:
REMARK  status: ('A' for Active; 'I' for Inactive)
REMARK    1  A    between atoms: C_2  and  C_3 
REMARK    2  A    between atoms: C_3  and  O_6 
REMARK    3  A    between atoms: C_3  and  C_4 
REMARK    4  A    between atoms: C_7  and  O_6 
REMARK    5  A    between atoms: C_9  and  C_10 
REMARK    6  A    between atoms: N_15  and  C_14 
REMARK    7  A    between atoms: N_20  and  C_19 
REMARK       I    between atoms: C_22  and  N_20 
ROOT
ATOM      1  C   LIG d   1       1.879  87.219 114.719  0.00  0.00     0.161 C 
ATOM      2  C   LIG d   1       3.028  87.548 113.981  0.00  0.00     0.016 C 
ATOM      3  C   LIG d   1       3.840  88.670 114.265  0.00  0.00     0.038 C 
ATOM      4  C   LIG d   1       3.642  89.458 115.409  0.00  0.00     0.028 C 
ATOM      5  C   LIG d   1       2.198  89.463 115.898  0.00  0.00    -0.047 C 
ATOM      6  C   LIG d   1       1.710  88.003 116.037  0.00  0.00     0.091 C 
ENDROOT
BRANCH   1   7
ATOM      7  O   LIG d   1       1.851  85.800 114.973  0.00  0.00    -0.368 OA
BRANCH   7   8
ATOM      8  C   LIG d   1       1.160  84.990 113.990  0.00  0.00     0.119 C 
BRANCH   8   9
ATOM      9  C   LIG d   1      -0.223  85.627 113.756  0.00  0.00     0.028 C 
ATOM     10  C   LIG d   1      -1.305  85.037 114.676  0.00  0.00     0.006 C 
ENDBRANCH   8   9
BRANCH   8  11
ATOM     11  C   LIG d   1       0.874  83.585 114.529  0.00  0.00     0.028 C 
ATOM     12  C   LIG d   1       1.366  82.475 113.588  0.00  0.00     0.006 C 
ENDBRANCH   8  11
ENDBRANCH   7   8
ENDBRANCH   1   7
BRANCH   6  13
ATOM     13  N   LIG d   1       0.279  87.919 116.431  0.00  0.00    -0.311 N 
ATOM     14  C   LIG d   1      -0.150  87.234 117.489  0.00  0.00     0.210 C 
ATOM     15  C   LIG d   1      -1.667  87.261 117.704  0.00  0.00     0.109 C 
ATOM     16  O   LIG d   1       0.583  86.633 118.288  0.00  0.00    -0.276 OA
ATOM     17  H   LIG d   1      -0.381  88.403 115.855  0.00  0.00     0.149 HD
ENDBRANCH   6  13
BRANCH   5  18
ATOM     18  N   LIG d   1       2.161  90.209 117.170  0.00  0.00     0.381 N 
ATOM     19  H   LIG d   1       2.914  89.912 117.759  0.00  0.00    -0.090 HD
ATOM     20  H   LIG d   1       1.296  90.008 117.640  0.00  0.00    -0.090 HD
ATOM     21  H   LIG d   1       2.233  91.187 116.994  0.00  0.00    -0.090 HD
ENDBRANCH   5  18
BRANCH   3  22
ATOM     22  C   LIG d   1       4.841  89.037 113.378  0.00  0.00     0.382 C 
ATOM     23  O   LIG d   1       5.816  88.271 113.181  0.00  0.00    -0.241 OA
ATOM     24  O   LIG d   1       4.803  90.142 112.805  0.00  0.00    -0.241 OA
ENDBRANCH   3  22
TORSDOF 7
ENDMDL
MODEL 4
REMARK VINA RESULT:      -4.4     19.665     22.094
REMARK  7 active torsions:
REMARK  status: ('A' for Active; 'I' for Inactive)
REMARK    1  A    between atoms: C_2  and  C_3 
REMARK    2  A    between atoms: C_3  and  O_6 
REMARK    3  A    between atoms: C_3  and  C_4 
REMARK    4  A    between atoms: C_7  and  O_6 
REMARK    5  A    between atoms: C_9  and  C_10 
REMARK    6  A    between atoms: N_15  and  C_14 
REMARK    7  A    between atoms: N_20  and  C_19 
REMARK       I    between atoms: C_22  and  N_20 
ROOT
ATOM      1  C   LIG d   1     -22.606  84.229 115.630  0.00  0.00     0.161 C 
ATOM      2  C   LIG d   1     -21.936  83.383 116.531  0.00  0.00     0.016 C 
ATOM      3  C   LIG d   1     -22.029  83.513 117.936  0.00  0.00     0.038 C 
ATOM      4  C   LIG d   1     -22.924  84.408 118.540  0.00  0.00     0.028 C 
ATOM      5  C   LIG d   1     -23.243  85.623 117.675  0.00  0.00    -0.047 C 
ATOM      6  C   LIG d   1     -23.673  85.140 116.271  0.00  0.00     0.091 C 
ENDROOT
BRANCH   1   7
ATOM      7  O   LIG d   1     -23.186  83.448 114.567  0.00  0.00    -0.368 OA
BRANCH   7   8
ATOM      8  C   LIG d   1     -24.274  82.568 114.942  0.00  0.00     0.119 C 
BRANCH   8   9
ATOM      9  C   LIG d   1     -23.793  81.120 114.726  0.00  0.00     0.028 C 
ATOM     10  C   LIG d   1     -24.788  80.083 115.275  0.00  0.00     0.006 C 
ENDBRANCH   8   9
BRANCH   8  11
ATOM     11  C   LIG d   1     -25.477  82.740 114.010  0.00  0.00     0.028 C 
ATOM     12  C   LIG d   1     -25.215  83.748 112.880  0.00  0.00     0.006 C 
ENDBRANCH   8  11
ENDBRANCH   7   8
ENDBRANCH   1   7
BRANCH   6  13
ATOM     13  N   LIG d   1     -23.922  86.268 115.335  0.00  0.00    -0.311 N 
ATOM     14  C   LIG d   1     -25.132  86.775 115.103  0.00  0.00     0.210 C 
ATOM     15  C   LIG d   1     -25.168  87.921 114.088  0.00  0.00     0.109 C 
ATOM     16  O   LIG d   1     -26.173  86.405 115.666  0.00  0.00    -0.276 OA
ATOM     17  H   LIG d   1     -23.128  86.649 114.859  0.00  0.00     0.149 HD
ENDBRANCH   6  13
BRANCH   5  18
ATOM     18  N   LIG d   1     -24.289  86.400 118.365  0.00  0.00     0.381 N 
ATOM     19  H   LIG d   1     -24.145  87.377 118.208  0.00  0.00    -0.090 HD
ATOM     20  H   LIG d   1     -24.225  86.226 119.353  0.00  0.00    -0.090 HD
ATOM     21  H   LIG d   1     -25.189  86.132 118.032  0.00  0.00    -0.090 HD
ENDBRANCH   5  18
BRANCH   3  22
ATOM     22  C   LIG d   1     -21.192  82.767 118.751  0.00  0.00     0.382 C 
ATOM     23  O   LIG d   1     -21.676  81.931 119.551  0.00  0.00    -0.241 OA
ATOM     24  O   LIG d   1     -19.960  82.953 118.729  0.00  0.00    -0.241 OA
ENDBRANCH   3  22
TORSDOF 7
ENDMDL
MODEL 5
REMARK VINA RESULT:      -4.3     10.881     12.650
REMARK  7 active torsions:
REMARK  status: ('A' for Active; 'I' for Inactive)
REMARK    1  A    between atoms: C_2  and  C_3 
REMARK    2  A    between atoms: C_3  and  O_6 
REMARK    3  A    between atoms: C_3  and  C_4 
REMARK    4  A    between atoms: C_7  and  O_6 
REMARK    5  A    between atoms: C_9  and  C_10 
REMARK    6  A    between atoms: N_15  and  C_14 
REMARK    7  A    between atoms: N_20  and  C_19 
REMARK       I    between atoms: C_22  and  N_20 
ROOT
ATOM      1  C   LIG d   1       2.952  87.555 114.770  0.00  0.00     0.161 C 
ATOM      2  C   LIG d   1       2.919  88.633 115.670  0.00  0.00     0.016 C 
ATOM      3  C   LIG d   1       3.843  89.703 115.637  0.00  0.00     0.038 C 
ATOM      4  C   LIG d   1       4.777  89.844 114.599  0.00  0.00     0.028 C 
ATOM      5  C   LIG d   1       5.175  88.519 113.958  0.00  0.00    -0.047 C 
ATOM      6  C   LIG d   1       3.894  87.748 113.564  0.00  0.00     0.091 C 
ENDROOT
BRANCH   1   7
ATOM      7  O   LIG d   1       1.617  87.253 114.320  0.00  0.00    -0.368 OA
BRANCH   7   8
ATOM      8  C   LIG d   1       1.068  85.985 114.755  0.00  0.00     0.119 C 
BRANCH   8   9
ATOM      9  C   LIG d   1       0.859  85.115 113.501  0.00  0.00     0.028 C 
ATOM     10  C   LIG d   1       1.304  83.659 113.715  0.00  0.00     0.006 C 
ENDBRANCH   8   9
BRANCH   8  11
ATOM     11  C   LIG d   1      -0.327  86.161 115.364  0.00  0.00     0.028 C 
ATOM     12  C   LIG d   1      -0.288  86.756 116.780  0.00  0.00     0.006 C 
ENDBRANCH   8  11
ENDBRANCH   7   8
ENDBRANCH   1   7
BRANCH   6  13
ATOM     13  N   LIG d   1       4.192  86.403 113.006  0.00  0.00    -0.311 N 
ATOM     14  C   LIG d   1       4.804  85.442 113.696  0.00  0.00     0.210 C 
ATOM     15  C   LIG d   1       5.032  84.138 112.925  0.00  0.00     0.109 C 
ATOM     16  O   LIG d   1       5.151  85.535 114.883  0.00  0.00    -0.276 OA
ATOM     17  H   LIG d   1       3.917  86.231 112.059  0.00  0.00     0.149 HD
ENDBRANCH   6  13
BRANCH   5  18
ATOM     18  N   LIG d   1       6.044  88.825 112.806  0.00  0.00     0.381 N 
ATOM     19  H   LIG d   1       6.997  88.628 113.039  0.00  0.00    -0.090 HD
ATOM     20  H   LIG d   1       5.967  89.804 112.592  0.00  0.00    -0.090 HD
ATOM     21  H   LIG d   1       5.768  88.282 112.017  0.00  0.00    -0.090 HD
ENDBRANCH   5  18
BRANCH   3  22
ATOM     22  C   LIG d   1       3.864  90.625 116.672  0.00  0.00     0.382 C 
ATOM     23  O   LIG d   1       3.609  90.258 117.844  0.00  0.00    -0.241 OA
ATOM     24  O   LIG d   1       4.091  91.828 116.442  0.00  0.00    -0.241 OA
ENDBRANCH   3  22
TORSDOF 7
ENDMDL
MODEL 6
REMARK VINA RESULT:      -4.3     10.322     12.289
REMARK  7 active torsions:
REMARK  status: ('A' for Active; 'I' for Inactive)
REMARK    1  A    between atoms: C_2  and  C_3 
REMARK    2  A    between atoms: C_3  and  O_6 
REMARK    3  A    between atoms: C_3  and  C_4 
REMARK    4  A    between atoms: C_7  and  O_6 
REMARK    5  A    between atoms: C_9  and  C_10 
REMARK    6  A    between atoms: N_15  and  C_14 
REMARK    7  A    between atoms: N_20  and  C_19 
REMARK       I    between atoms: C_22  and  N_20 
ROOT
ATOM      1  C   LIG d   1       1.360  87.107 115.551  0.00  0.00     0.161 C 
ATOM      2  C   LIG d   1       0.278  87.104 116.447  0.00  0.00     0.016 C 
ATOM      3  C   LIG d   1       0.054  88.124 117.400  0.00  0.00     0.038 C 
ATOM      4  C   LIG d   1       0.816  89.301 117.420  0.00  0.00     0.028 C 
ATOM      5  C   LIG d   1       2.226  89.118 116.868  0.00  0.00    -0.047 C 
ATOM      6  C   LIG d   1       2.139  88.437 115.483  0.00  0.00     0.091 C 
ENDROOT
BRANCH   1   7
ATOM      7  O   LIG d   1       0.908  86.724 114.238  0.00  0.00    -0.368 OA
BRANCH   7   8
ATOM      8  C   LIG d   1       1.095  85.332 113.880  0.00  0.00     0.119 C 
BRANCH   8   9
ATOM      9  C   LIG d   1       2.206  85.274 112.813  0.00  0.00     0.028 C 
ATOM     10  C   LIG d   1       3.439  84.489 113.292  0.00  0.00     0.006 C 
ENDBRANCH   8   9
BRANCH   8  11
ATOM     11  C   LIG d   1      -0.152  84.759 113.199  0.00  0.00     0.028 C 
ATOM     12  C   LIG d   1      -0.650  83.465 113.861  0.00  0.00     0.006 C 
ENDBRANCH   8  11
ENDBRANCH   7   8
ENDBRANCH   1   7
BRANCH   6  13
ATOM     13  N   LIG d   1       3.479  88.145 114.910  0.00  0.00    -0.311 N 
ATOM     14  C   LIG d   1       3.802  88.387 113.641  0.00  0.00     0.210 C 
ATOM     15  C   LIG d   1       5.229  87.992 113.250  0.00  0.00     0.109 C 
ATOM     16  O   LIG d   1       3.051  88.920 112.809  0.00  0.00    -0.276 OA
ATOM     17  H   LIG d   1       4.159  87.740 115.523  0.00  0.00     0.149 HD
ENDBRANCH   6  13
BRANCH   5  18
ATOM     18  N   LIG d   1       2.862  90.448 116.820  0.00  0.00     0.381 N 
ATOM     19  H   LIG d   1       3.856  90.347 116.774  0.00  0.00    -0.090 HD
ATOM     20  H   LIG d   1       2.634  90.948 117.661  0.00  0.00    -0.090 HD
ATOM     21  H   LIG d   1       2.535  90.954 116.026  0.00  0.00    -0.090 HD
ENDBRANCH   5  18
BRANCH   3  22
ATOM     22  C   LIG d   1      -0.920  87.953 118.373  0.00  0.00     0.382 C 
ATOM     23  O   LIG d   1      -0.800  88.520 119.486  0.00  0.00    -0.241 OA
ATOM     24  O   LIG d   1      -1.893  87.204 118.168  0.00  0.00    -0.241 OA
ENDBRANCH   3  22
TORSDOF 7
ENDMDL
MODEL 7
REMARK VINA RESULT:      -4.2     16.558     19.171
REMARK  7 active torsions:
REMARK  status: ('A' for Active; 'I' for Inactive)
REMARK    1  A    between atoms: C_2  and  C_3 
REMARK    2  A    between atoms: C_3  and  O_6 
REMARK    3  A    between atoms: C_3  and  C_4 
REMARK    4  A    between atoms: C_7  and  O_6 
REMARK    5  A    between atoms: C_9  and  C_10 
REMARK    6  A    between atoms: N_15  and  C_14 
REMARK    7  A    between atoms: N_20  and  C_19 
REMARK       I    between atoms: C_22  and  N_20 
ROOT
ATOM      1  C   LIG d   1     -18.490  65.410 117.486  0.00  0.00     0.161 C 
ATOM      2  C   LIG d   1     -17.689  66.376 118.117  0.00  0.00     0.016 C 
ATOM      3  C   LIG d   1     -16.578  66.992 117.496  0.00  0.00     0.038 C 
ATOM      4  C   LIG d   1     -16.282  66.792 116.140  0.00  0.00     0.028 C 
ATOM      5  C   LIG d   1     -16.758  65.445 115.608  0.00  0.00    -0.047 C 
ATOM      6  C   LIG d   1     -18.250  65.261 115.969  0.00  0.00     0.091 C 
ENDROOT
BRANCH   1   7
ATOM      7  O   LIG d   1     -19.881  65.681 117.748  0.00  0.00    -0.368 OA
BRANCH   7   8
ATOM      8  C   LIG d   1     -20.468  66.776 117.003  0.00  0.00     0.119 C 
BRANCH   8   9
ATOM      9  C   LIG d   1     -21.080  67.755 118.025  0.00  0.00     0.028 C 
ATOM     10  C   LIG d   1     -21.132  67.165 119.444  0.00  0.00     0.006 C 
ENDBRANCH   8   9
BRANCH   8  11
ATOM     11  C   LIG d   1     -21.643  66.300 116.144  0.00  0.00     0.028 C 
ATOM     12  C   LIG d   1     -22.172  64.921 116.571  0.00  0.00     0.006 C 
ENDBRANCH   8  11
ENDBRANCH   7   8
ENDBRANCH   1   7
BRANCH   6  13
ATOM     13  N   LIG d   1     -18.773  63.932 115.558  0.00  0.00    -0.311 N 
ATOM     14  C   LIG d   1     -19.368  63.708 114.388  0.00  0.00     0.210 C 
ATOM     15  C   LIG d   1     -19.852  62.270 114.174  0.00  0.00     0.109 C 
ATOM     16  O   LIG d   1     -19.513  64.555 113.495  0.00  0.00    -0.276 OA
ATOM     17  H   LIG d   1     -18.669  63.180 116.211  0.00  0.00     0.149 HD
ENDBRANCH   6  13
BRANCH   5  18
ATOM     18  N   LIG d   1     -16.508  65.426 114.154  0.00  0.00     0.381 N 
ATOM     19  H   LIG d   1     -15.923  66.197 113.901  0.00  0.00    -0.090 HD
ATOM     20  H   LIG d   1     -17.385  65.525 113.672  0.00  0.00    -0.090 HD
ATOM     21  H   LIG d   1     -16.072  64.569 113.894  0.00  0.00    -0.090 HD
ENDBRANCH   5  18
BRANCH   3  22
ATOM     22  C   LIG d   1     -15.726  67.788 118.246  0.00  0.00     0.382 C 
ATOM     23  O   LIG d   1     -14.501  67.822 117.977  0.00  0.00    -0.241 OA
ATOM     24  O   LIG d   1     -16.159  68.437 119.217  0.00  0.00    -0.241 OA
ENDBRANCH   3  22
TORSDOF 7
ENDMDL
MODEL 8
REMARK VINA RESULT:      -4.0     20.618     22.980
REMARK  7 active torsions:
REMARK  status: ('A' for Active; 'I' for Inactive)
REMARK    1  A    between atoms: C_2  and  C_3 
REMARK    2  A    between atoms: C_3  and  O_6 
REMARK    3  A    between atoms: C_3  and  C_4 
REMARK    4  A    between atoms: C_7  and  O_6 
REMARK    5  A    between atoms: C_9  and  C_10 
REMARK    6  A    between atoms: N_15  and  C_14 
REMARK    7  A    between atoms: N_20  and  C_19 
REMARK       I    between atoms: C_22  and  N_20 
ROOT
ATOM      1  C   LIG d   1     -24.173  83.827 114.901  0.00  0.00     0.161 C 
ATOM      2  C   LIG d   1     -23.128  84.766 114.917  0.00  0.00     0.016 C 
ATOM      3  C   LIG d   1     -23.208  86.030 114.288  0.00  0.00     0.038 C 
ATOM      4  C   LIG d   1     -24.403  86.503 113.725  0.00  0.00     0.028 C 
ATOM      5  C   LIG d   1     -25.328  85.391 113.244  0.00  0.00    -0.047 C 
ATOM      6  C   LIG d   1     -25.523  84.370 114.388  0.00  0.00     0.091 C 
ENDROOT
BRANCH   1   7
ATOM      7  O   LIG d   1     -24.331  83.250 116.212  0.00  0.00    -0.368 OA
BRANCH   7   8
ATOM      8  C   LIG d   1     -23.540  82.067 116.488  0.00  0.00     0.119 C 
BRANCH   8   9
ATOM      9  C   LIG d   1     -24.501  80.862 116.508  0.00  0.00     0.028 C 
ATOM     10  C   LIG d   1     -24.517  80.102 115.171  0.00  0.00     0.006 C 
ENDBRANCH   8   9
BRANCH   8  11
ATOM     11  C   LIG d   1     -22.928  82.121 117.891  0.00  0.00     0.028 C 
ATOM     12  C   LIG d   1     -21.674  83.007 117.960  0.00  0.00     0.006 C 
ENDBRANCH   8  11
ENDBRANCH   7   8
ENDBRANCH   1   7
BRANCH   6  13
ATOM     13  N   LIG d   1     -26.348  83.205 113.973  0.00  0.00    -0.311 N 
ATOM     14  C   LIG d   1     -27.335  82.706 114.715  0.00  0.00     0.210 C 
ATOM     15  C   LIG d   1     -28.046  81.490 114.110  0.00  0.00     0.109 C 
ATOM     16  O   LIG d   1     -27.711  83.173 115.800  0.00  0.00    -0.276 OA
ATOM     17  H   LIG d   1     -26.131  82.783 113.092  0.00  0.00     0.149 HD
ENDBRANCH   6  13
BRANCH   5  18
ATOM     18  N   LIG d   1     -26.590  86.019 112.809  0.00  0.00     0.381 N 
ATOM     19  H   LIG d   1     -27.092  86.359 113.605  0.00  0.00    -0.090 HD
ATOM     20  H   LIG d   1     -27.157  85.327 112.351  0.00  0.00    -0.090 HD
ATOM     21  H   LIG d   1     -26.399  86.769 112.182  0.00  0.00    -0.090 HD
ENDBRANCH   5  18
BRANCH   3  22
ATOM     22  C   LIG d   1     -22.072  86.818 114.183  0.00  0.00     0.382 C 
ATOM     23  O   LIG d   1     -22.032  87.937 114.748  0.00  0.00    -0.241 OA
ATOM     24  O   LIG d   1     -21.105  86.444 113.493  0.00  0.00    -0.241 OA
ENDBRANCH   3  22
TORSDOF 7
ENDMDL
MODEL 9
REMARK VINA RESULT:      -4.0     11.736     14.046
REMARK  7 active torsions:
REMARK  status: ('A' for Active; 'I' for Inactive)
REMARK    1  A    between atoms: C_2  and  C_3 
REMARK    2  A    between atoms: C_3  and  O_6 
REMARK    3  A    between atoms: C_3  and  C_4 
REMARK    4  A    between atoms: C_7  and  O_6 
REMARK    5  A    between atoms: C_9  and  C_10 
REMARK    6  A    between atoms: N_15  and  C_14 
REMARK    7  A    between atoms: N_20  and  C_19 
REMARK       I    between atoms: C_22  and  N_20 
ROOT
ATOM      1  C   LIG d   1       2.678  89.070 115.563  0.00  0.00     0.161 C 
ATOM      2  C   LIG d   1       3.300  90.210 116.097  0.00  0.00     0.016 C 
ATOM      3  C   LIG d   1       2.861  90.856 117.276  0.00  0.00     0.038 C 
ATOM      4  C   LIG d   1       1.855  90.312 118.089  0.00  0.00     0.028 C 
ATOM      5  C   LIG d   1       0.864  89.440 117.325  0.00  0.00    -0.047 C 
ATOM      6  C   LIG d   1       1.649  88.397 116.496  0.00  0.00     0.091 C 
ENDROOT
BRANCH   1   7
ATOM      7  O   LIG d   1       3.677  88.117 115.150  0.00  0.00    -0.368 OA
BRANCH   7   8
ATOM      8  C   LIG d   1       4.966  88.665 114.780  0.00  0.00     0.119 C 
BRANCH   8   9
ATOM      9  C   LIG d   1       5.150  88.434 113.268  0.00  0.00     0.028 C 
ATOM     10  C   LIG d   1       4.580  87.083 112.806  0.00  0.00     0.006 C 
ENDBRANCH   8   9
BRANCH   8  11
ATOM     11  C   LIG d   1       6.110  87.898 115.449  0.00  0.00     0.028 C 
ATOM     12  C   LIG d   1       6.876  88.747 116.476  0.00  0.00     0.006 C 
ENDBRANCH   8  11
ENDBRANCH   7   8
ENDBRANCH   1   7
BRANCH   6  13
ATOM     13  N   LIG d   1       0.758  87.558 115.653  0.00  0.00    -0.311 N 
ATOM     14  C   LIG d   1       0.233  86.405 116.064  0.00  0.00     0.210 C 
ATOM     15  C   LIG d   1      -0.641  85.688 115.030  0.00  0.00     0.109 C 
ATOM     16  O   LIG d   1       0.381  85.924 117.198  0.00  0.00    -0.276 OA
ATOM     17  H   LIG d   1       0.560  87.888 114.729  0.00  0.00     0.149 HD
ENDBRANCH   6  13
BRANCH   5  18
ATOM     18  N   LIG d   1      -0.045  88.829 118.313  0.00  0.00     0.381 N 
ATOM     19  H   LIG d   1      -0.062  87.836 118.188  0.00  0.00    -0.090 HD
ATOM     20  H   LIG d   1      -0.973  89.182 118.162  0.00  0.00    -0.090 HD
ATOM     21  H   LIG d   1       0.257  89.049 119.236  0.00  0.00    -0.090 HD
ENDBRANCH   5  18
BRANCH   3  22
ATOM     22  C   LIG d   1       3.404  92.082 117.631  0.00  0.00     0.382 C 
ATOM     23  O   LIG d   1       3.072  92.625 118.712  0.00  0.00    -0.241 OA
ATOM     24  O   LIG d   1       4.186  92.672 116.863  0.00  0.00    -0.241 OA
ENDBRANCH   3  22
TORSDOF 7
ENDMDL
