MODEL 1
REMARK VINA RESULT:      -5.9      0.000      0.000
REMARK  7 active torsions:
REMARK  status: ('A' for Active; 'I' for Inactive)
REMARK    1  A    between atoms: C_2  and  C_3 
REMARK    2  A    between atoms: C_3  and  O_6 
REMARK    3  A    between atoms: C_3  and  C_4 
REMARK    4  A    between atoms: C_7  and  O_6 
REMARK    5  A    between atoms: C_9  and  C_10 
REMARK    6  A    between atoms: N_15  and  C_14 
REMARK    7  A    between atoms: N_20  and  C_19 
REMARK       I    between atoms: C_22  and  N_20 
ROOT
ATOM      1  C   LIG d   1      -7.764  75.679 117.876  0.00  0.00     0.161 C 
ATOM      2  C   LIG d   1      -8.976  76.356 118.093  0.00  0.00     0.016 C 
ATOM      3  C   LIG d   1      -9.068  77.759 118.243  0.00  0.00     0.038 C 
ATOM      4  C   LIG d   1      -7.965  78.600 118.034  0.00  0.00     0.028 C 
ATOM      5  C   LIG d   1      -6.626  77.924 118.313  0.00  0.00    -0.047 C 
ATOM      6  C   LIG d   1      -6.567  76.590 117.536  0.00  0.00     0.091 C 
ENDROOT
BRANCH   1   7
ATOM      7  O   LIG d   1      -7.940  74.678 116.854  0.00  0.00    -0.368 OA
BRANCH   7   8
ATOM      8  C   LIG d   1      -7.912  73.300 117.300  0.00  0.00     0.119 C 
BRANCH   8   9
ATOM      9  C   LIG d   1      -7.010  72.516 116.326  0.00  0.00     0.028 C 
ATOM     10  C   LIG d   1      -6.370  73.423 115.261  0.00  0.00     0.006 C 
ENDBRANCH   8   9
BRANCH   8  11
ATOM     11  C   LIG d   1      -9.294  72.649 117.184  0.00  0.00     0.028 C 
ATOM     12  C   LIG d   1      -9.220  71.137 116.917  0.00  0.00     0.006 C 
ENDBRANCH   8  11
ENDBRANCH   7   8
ENDBRANCH   1   7
BRANCH   6  13
ATOM     13  N   LIG d   1      -5.325  75.824 117.819  0.00  0.00    -0.311 N 
ATOM     14  C   LIG d   1      -4.240  75.875 117.047  0.00  0.00     0.210 C 
ATOM     15  C   LIG d   1      -3.076  74.992 117.508  0.00  0.00     0.109 C 
ATOM     16  O   LIG d   1      -4.120  76.592 116.042  0.00  0.00    -0.276 OA
ATOM     17  H   LIG d   1      -5.324  75.241 118.632  0.00  0.00     0.149 HD
ENDBRANCH   6  13
BRANCH   5  18
ATOM     18  N   LIG d   1      -5.561  78.868 117.924  0.00  0.00     0.381 N 
ATOM     19  H   LIG d   1      -5.927  79.799 117.897  0.00  0.00    -0.090 HD
ATOM     20  H   LIG d   1      -5.236  78.630 117.004  0.00  0.00    -0.090 HD
ATOM     21  H   LIG d   1      -4.808  78.818 118.574  0.00  0.00    -0.090 HD
ENDBRANCH   5  18
BRANCH   3  22
ATOM     22  C   LIG d   1     -10.266  78.330 118.644  0.00  0.00     0.382 C 
ATOM     23  O   LIG d   1     -10.421  79.573 118.577  0.00  0.00    -0.241 OA
ATOM     24  O   LIG d   1     -11.177  77.623 119.113  0.00  0.00    -0.241 OA
ENDBRANCH   3  22
TORSDOF 7
ENDMDL
MODEL 2
REMARK VINA RESULT:      -5.5      1.425      2.451
REMARK  7 active torsions:
REMARK  status: ('A' for Active; 'I' for Inactive)
REMARK    1  A    between atoms: C_2  and  C_3 
REMARK    2  A    between atoms: C_3  and  O_6 
REMARK    3  A    between atoms: C_3  and  C_4 
REMARK    4  A    between atoms: C_7  and  O_6 
REMARK    5  A    between atoms: C_9  and  C_10 
REMARK    6  A    between atoms: N_15  and  C_14 
REMARK    7  A    between atoms: N_20  and  C_19 
REMARK       I    between atoms: C_22  and  N_20 
ROOT
ATOM      1  C   LIG d   1      -6.069  75.015 117.904  0.00  0.00     0.161 C 
ATOM      2  C   LIG d   1      -7.447  75.285 117.871  0.00  0.00     0.016 C 
ATOM      3  C   LIG d   1      -7.983  76.590 117.783  0.00  0.00     0.038 C 
ATOM      4  C   LIG d   1      -7.169  77.713 117.570  0.00  0.00     0.028 C 
ATOM      5  C   LIG d   1      -5.751  77.543 118.103  0.00  0.00    -0.047 C 
ATOM      6  C   LIG d   1      -5.166  76.219 117.560  0.00  0.00     0.091 C 
ENDROOT
BRANCH   1   7
ATOM      7  O   LIG d   1      -5.768  73.901 117.042  0.00  0.00    -0.368 OA
BRANCH   7   8
ATOM      8  C   LIG d   1      -6.636  73.730 115.894  0.00  0.00     0.119 C 
BRANCH   8   9
ATOM      9  C   LIG d   1      -6.918  72.223 115.746  0.00  0.00     0.028 C 
ATOM     10  C   LIG d   1      -8.193  71.789 116.489  0.00  0.00     0.006 C 
ENDBRANCH   8   9
BRANCH   8  11
ATOM     11  C   LIG d   1      -5.931  74.140 114.597  0.00  0.00     0.028 C 
ATOM     12  C   LIG d   1      -6.231  75.591 114.189  0.00  0.00     0.006 C 
ENDBRANCH   8  11
ENDBRANCH   7   8
ENDBRANCH   1   7
BRANCH   6  13
ATOM     13  N   LIG d   1      -3.812  75.934 118.101  0.00  0.00    -0.311 N 
ATOM     14  C   LIG d   1      -2.798  75.505 117.351  0.00  0.00     0.210 C 
ATOM     15  C   LIG d   1      -1.492  75.253 118.111  0.00  0.00     0.109 C 
ATOM     16  O   LIG d   1      -2.848  75.341 116.122  0.00  0.00    -0.276 OA
ATOM     17  H   LIG d   1      -3.674  76.070 119.083  0.00  0.00     0.149 HD
ENDBRANCH   6  13
BRANCH   5  18
ATOM     18  N   LIG d   1      -4.975  78.729 117.692  0.00  0.00     0.381 N 
ATOM     19  H   LIG d   1      -4.721  79.263 118.498  0.00  0.00    -0.090 HD
ATOM     20  H   LIG d   1      -5.549  79.304 117.101  0.00  0.00    -0.090 HD
ATOM     21  H   LIG d   1      -4.157  78.447 117.199  0.00  0.00    -0.090 HD
ENDBRANCH   5  18
BRANCH   3  22
ATOM     22  C   LIG d   1      -9.346  76.786 117.950  0.00  0.00     0.382 C 
ATOM     23  O   LIG d   1     -10.148  75.853 117.706  0.00  0.00    -0.241 OA
ATOM     24  O   LIG d   1      -9.786  77.898 118.299  0.00  0.00    -0.241 OA
ENDBRANCH   3  22
TORSDOF 7
ENDMDL
MODEL 3
REMARK VINA RESULT:      -5.4      2.613      4.730
REMARK  7 active torsions:
REMARK  status: ('A' for Active; 'I' for Inactive)
REMARK    1  A    between atoms: C_2  and  C_3 
REMARK    2  A    between atoms: C_3  and  O_6 
REMARK    3  A    between atoms: C_3  and  C_4 
REMARK    4  A    between atoms: C_7  and  O_6 
REMARK    5  A    between atoms: C_9  and  C_10 
REMARK    6  A    between atoms: N_15  and  C_14 
REMARK    7  A    between atoms: N_20  and  C_19 
REMARK       I    between atoms: C_22  and  N_20 
ROOT
ATOM      1  C   LIG d   1      -5.365  74.521 116.885  0.00  0.00     0.161 C 
ATOM      2  C   LIG d   1      -6.299  73.507 116.613  0.00  0.00     0.016 C 
ATOM      3  C   LIG d   1      -7.659  73.580 116.994  0.00  0.00     0.038 C 
ATOM      4  C   LIG d   1      -8.213  74.745 117.545  0.00  0.00     0.028 C 
ATOM      5  C   LIG d   1      -7.200  75.601 118.297  0.00  0.00    -0.047 C 
ATOM      6  C   LIG d   1      -5.976  75.846 117.386  0.00  0.00     0.091 C 
ENDROOT
BRANCH   1   7
ATOM      7  O   LIG d   1      -4.545  74.754 115.723  0.00  0.00    -0.368 OA
BRANCH   7   8
ATOM      8  C   LIG d   1      -4.881  75.920 114.930  0.00  0.00     0.119 C 
BRANCH   8   9
ATOM      9  C   LIG d   1      -5.550  75.421 113.635  0.00  0.00     0.028 C 
ATOM     10  C   LIG d   1      -4.882  74.152 113.080  0.00  0.00     0.006 C 
ENDBRANCH   8   9
BRANCH   8  11
ATOM     11  C   LIG d   1      -3.622  76.665 114.475  0.00  0.00     0.028 C 
ATOM     12  C   LIG d   1      -2.372  76.269 115.276  0.00  0.00     0.006 C 
ENDBRANCH   8  11
ENDBRANCH   7   8
ENDBRANCH   1   7
BRANCH   6  13
ATOM     13  N   LIG d   1      -4.900  76.606 118.075  0.00  0.00    -0.311 N 
ATOM     14  C   LIG d   1      -4.735  77.921 117.948  0.00  0.00     0.210 C 
ATOM     15  C   LIG d   1      -3.551  78.502 118.728  0.00  0.00     0.109 C 
ATOM     16  O   LIG d   1      -5.475  78.667 117.289  0.00  0.00    -0.276 OA
ATOM     17  H   LIG d   1      -4.273  76.083 118.655  0.00  0.00     0.149 HD
ENDBRANCH   6  13
BRANCH   5  18
ATOM     18  N   LIG d   1      -7.881  76.847 118.699  0.00  0.00     0.381 N 
ATOM     19  H   LIG d   1      -7.484  77.623 118.207  0.00  0.00    -0.090 HD
ATOM     20  H   LIG d   1      -7.740  76.991 119.683  0.00  0.00    -0.090 HD
ATOM     21  H   LIG d   1      -8.855  76.782 118.501  0.00  0.00    -0.090 HD
ENDBRANCH   5  18
BRANCH   3  22
ATOM     22  C   LIG d   1      -8.470  72.463 116.862  0.00  0.00     0.382 C 
ATOM     23  O   LIG d   1      -8.083  71.485 116.177  0.00  0.00    -0.241 OA
ATOM     24  O   LIG d   1      -9.601  72.438 117.383  0.00  0.00    -0.241 OA
ENDBRANCH   3  22
TORSDOF 7
ENDMDL
MODEL 4
REMARK VINA RESULT:      -5.0      3.783      5.896
REMARK  7 active torsions:
REMARK  status: ('A' for Active; 'I' for Inactive)
REMARK    1  A    between atoms: C_2  and  C_3 
REMARK    2  A    between atoms: C_3  and  O_6 
REMARK    3  A    between atoms: C_3  and  C_4 
REMARK    4  A    between atoms: C_7  and  O_6 
REMARK    5  A    between atoms: C_9  and  C_10 
REMARK    6  A    between atoms: N_15  and  C_14 
REMARK    7  A    between atoms: N_20  and  C_19 
REMARK       I    between atoms: C_22  and  N_20 
ROOT
ATOM      1  C   LIG d   1      -4.214  75.236 116.610  0.00  0.00     0.161 C 
ATOM      2  C   LIG d   1      -5.174  74.258 116.917  0.00  0.00     0.016 C 
ATOM      3  C   LIG d   1      -6.124  73.780 115.985  0.00  0.00     0.038 C 
ATOM      4  C   LIG d   1      -6.080  74.141 114.630  0.00  0.00     0.028 C 
ATOM      5  C   LIG d   1      -5.446  75.506 114.388  0.00  0.00    -0.047 C 
ATOM      6  C   LIG d   1      -4.079  75.560 115.107  0.00  0.00     0.091 C 
ENDROOT
BRANCH   1   7
ATOM      7  O   LIG d   1      -2.936  74.855 117.157  0.00  0.00    -0.368 OA
BRANCH   7   8
ATOM      8  C   LIG d   1      -2.358  75.769 118.121  0.00  0.00     0.119 C 
BRANCH   8   9
ATOM      9  C   LIG d   1      -1.041  76.300 117.523  0.00  0.00     0.028 C 
ATOM     10  C   LIG d   1      -0.936  77.832 117.603  0.00  0.00     0.006 C 
ENDBRANCH   8   9
BRANCH   8  11
ATOM     11  C   LIG d   1      -1.954  75.041 119.407  0.00  0.00     0.028 C 
ATOM     12  C   LIG d   1      -1.205  73.726 119.137  0.00  0.00     0.006 C 
ENDBRANCH   8  11
ENDBRANCH   7   8
ENDBRANCH   1   7
BRANCH   6  13
ATOM     13  N   LIG d   1      -3.429  76.892 114.991  0.00  0.00    -0.311 N 
ATOM     14  C   LIG d   1      -2.513  77.183 114.070  0.00  0.00     0.210 C 
ATOM     15  C   LIG d   1      -1.956  78.608 114.138  0.00  0.00     0.109 C 
ATOM     16  O   LIG d   1      -2.132  76.405 113.181  0.00  0.00    -0.276 OA
ATOM     17  H   LIG d   1      -3.703  77.592 115.653  0.00  0.00     0.149 HD
ENDBRANCH   6  13
BRANCH   5  18
ATOM     18  N   LIG d   1      -5.339  75.695 112.929  0.00  0.00     0.381 N 
ATOM     19  H   LIG d   1      -4.438  76.065 112.700  0.00  0.00    -0.090 HD
ATOM     20  H   LIG d   1      -6.035  76.357 112.635  0.00  0.00    -0.090 HD
ATOM     21  H   LIG d   1      -5.478  74.826 112.461  0.00  0.00    -0.090 HD
ENDBRANCH   5  18
BRANCH   3  22
ATOM     22  C   LIG d   1      -7.157  72.960 116.415  0.00  0.00     0.382 C 
ATOM     23  O   LIG d   1      -7.403  71.891 115.807  0.00  0.00    -0.241 OA
ATOM     24  O   LIG d   1      -7.874  73.299 117.376  0.00  0.00    -0.241 OA
ENDBRANCH   3  22
TORSDOF 7
ENDMDL
MODEL 5
REMARK VINA RESULT:      -4.8      3.005      5.637
REMARK  7 active torsions:
REMARK  status: ('A' for Active; 'I' for Inactive)
REMARK    1  A    between atoms: C_2  and  C_3 
REMARK    2  A    between atoms: C_3  and  O_6 
REMARK    3  A    between atoms: C_3  and  C_4 
REMARK    4  A    between atoms: C_7  and  O_6 
REMARK    5  A    between atoms: C_9  and  C_10 
REMARK    6  A    between atoms: N_15  and  C_14 
REMARK    7  A    between atoms: N_20  and  C_19 
REMARK       I    between atoms: C_22  and  N_20 
ROOT
ATOM      1  C   LIG d   1      -5.042  75.672 116.523  0.00  0.00     0.161 C 
ATOM      2  C   LIG d   1      -6.013  74.762 116.971  0.00  0.00     0.016 C 
ATOM      3  C   LIG d   1      -6.595  73.775 116.143  0.00  0.00     0.038 C 
ATOM      4  C   LIG d   1      -6.132  73.531 114.842  0.00  0.00     0.028 C 
ATOM      5  C   LIG d   1      -5.504  74.755 114.183  0.00  0.00    -0.047 C 
ATOM      6  C   LIG d   1      -4.443  75.350 115.137  0.00  0.00     0.091 C 
ENDROOT
BRANCH   1   7
ATOM      7  O   LIG d   1      -3.994  75.792 117.505  0.00  0.00    -0.368 OA
BRANCH   7   8
ATOM      8  C   LIG d   1      -3.938  77.046 118.228  0.00  0.00     0.119 C 
BRANCH   8   9
ATOM      9  C   LIG d   1      -4.697  76.850 119.555  0.00  0.00     0.028 C 
ATOM     10  C   LIG d   1      -6.069  77.546 119.555  0.00  0.00     0.006 C 
ENDBRANCH   8   9
BRANCH   8  11
ATOM     11  C   LIG d   1      -4.696  78.151 117.487  0.00  0.00     0.028 C 
ATOM     12  C   LIG d   1      -3.788  79.317 117.065  0.00  0.00     0.006 C 
ENDBRANCH   8  11
ENDBRANCH   7   8
ENDBRANCH   1   7
BRANCH   6  13
ATOM     13  N   LIG d   1      -3.840  76.600 114.606  0.00  0.00    -0.311 N 
ATOM     14  C   LIG d   1      -2.702  76.628 113.915  0.00  0.00     0.210 C 
ATOM     15  C   LIG d   1      -2.246  78.024 113.477  0.00  0.00     0.109 C 
ATOM     16  O   LIG d   1      -2.044  75.627 113.595  0.00  0.00    -0.276 OA
ATOM     17  H   LIG d   1      -4.325  77.456 114.793  0.00  0.00     0.149 HD
ENDBRANCH   6  13
BRANCH   5  18
ATOM     18  N   LIG d   1      -4.942  74.326 112.889  0.00  0.00     0.381 N 
ATOM     19  H   LIG d   1      -5.491  73.579 112.512  0.00  0.00    -0.090 HD
ATOM     20  H   LIG d   1      -4.008  73.987 113.037  0.00  0.00    -0.090 HD
ATOM     21  H   LIG d   1      -4.928  75.092 112.252  0.00  0.00    -0.090 HD
ENDBRANCH   5  18
BRANCH   3  22
ATOM     22  C   LIG d   1      -7.681  73.045 116.603  0.00  0.00     0.382 C 
ATOM     23  O   LIG d   1      -8.545  73.596 117.326  0.00  0.00    -0.241 OA
ATOM     24  O   LIG d   1      -7.783  71.832 116.341  0.00  0.00    -0.241 OA
ENDBRANCH   3  22
TORSDOF 7
ENDMDL
MODEL 6
REMARK VINA RESULT:      -4.8      4.247      7.029
REMARK  7 active torsions:
REMARK  status: ('A' for Active; 'I' for Inactive)
REMARK    1  A    between atoms: C_2  and  C_3 
REMARK    2  A    between atoms: C_3  and  O_6 
REMARK    3  A    between atoms: C_3  and  C_4 
REMARK    4  A    between atoms: C_7  and  O_6 
REMARK    5  A    between atoms: C_9  and  C_10 
REMARK    6  A    between atoms: N_15  and  C_14 
REMARK    7  A    between atoms: N_20  and  C_19 
REMARK       I    between atoms: C_22  and  N_20 
ROOT
ATOM      1  C   LIG d   1      -2.146  75.772 116.033  0.00  0.00     0.161 C 
ATOM      2  C   LIG d   1      -1.761  74.892 117.058  0.00  0.00     0.016 C 
ATOM      3  C   LIG d   1      -0.545  75.012 117.771  0.00  0.00     0.038 C 
ATOM      4  C   LIG d   1       0.304  76.117 117.608  0.00  0.00     0.028 C 
ATOM      5  C   LIG d   1       0.201  76.761 116.229  0.00  0.00    -0.047 C 
ATOM      6  C   LIG d   1      -1.285  77.047 115.918  0.00  0.00     0.091 C 
ENDROOT
BRANCH   1   7
ATOM      7  O   LIG d   1      -3.537  76.119 116.185  0.00  0.00    -0.368 OA
BRANCH   7   8
ATOM      8  C   LIG d   1      -4.490  75.209 115.582  0.00  0.00     0.119 C 
BRANCH   8   9
ATOM      9  C   LIG d   1      -4.764  75.707 114.149  0.00  0.00     0.028 C 
ATOM     10  C   LIG d   1      -4.761  74.565 113.120  0.00  0.00     0.006 C 
ENDBRANCH   8   9
BRANCH   8  11
ATOM     11  C   LIG d   1      -5.844  75.265 116.296  0.00  0.00     0.028 C 
ATOM     12  C   LIG d   1      -6.626  73.946 116.195  0.00  0.00     0.006 C 
ENDBRANCH   8  11
ENDBRANCH   7   8
ENDBRANCH   1   7
BRANCH   6  13
ATOM     13  N   LIG d   1      -1.482  77.601 114.553  0.00  0.00    -0.311 N 
ATOM     14  C   LIG d   1      -2.312  78.607 114.282  0.00  0.00     0.210 C 
ATOM     15  C   LIG d   1      -2.380  79.010 112.806  0.00  0.00     0.109 C 
ATOM     16  O   LIG d   1      -2.973  79.226 115.129  0.00  0.00    -0.276 OA
ATOM     17  H   LIG d   1      -0.961  77.178 113.810  0.00  0.00     0.149 HD
ENDBRANCH   6  13
BRANCH   5  18
ATOM     18  N   LIG d   1       1.034  77.979 116.243  0.00  0.00     0.381 N 
ATOM     19  H   LIG d   1       0.476  78.768 116.503  0.00  0.00    -0.090 HD
ATOM     20  H   LIG d   1       1.393  78.138 115.319  0.00  0.00    -0.090 HD
ATOM     21  H   LIG d   1       1.787  77.870 116.886  0.00  0.00    -0.090 HD
ENDBRANCH   5  18
BRANCH   3  22
ATOM     22  C   LIG d   1      -0.149  73.999 118.630  0.00  0.00     0.382 C 
ATOM     23  O   LIG d   1      -0.905  73.018 118.834  0.00  0.00    -0.241 OA
ATOM     24  O   LIG d   1       0.936  74.073 119.237  0.00  0.00    -0.241 OA
ENDBRANCH   3  22
TORSDOF 7
ENDMDL
MODEL 7
REMARK VINA RESULT:      -4.7     18.633     21.479
REMARK  7 active torsions:
REMARK  status: ('A' for Active; 'I' for Inactive)
REMARK    1  A    between atoms: C_2  and  C_3 
REMARK    2  A    between atoms: C_3  and  O_6 
REMARK    3  A    between atoms: C_3  and  C_4 
REMARK    4  A    between atoms: C_7  and  O_6 
REMARK    5  A    between atoms: C_9  and  C_10 
REMARK    6  A    between atoms: N_15  and  C_14 
REMARK    7  A    between atoms: N_20  and  C_19 
REMARK       I    between atoms: C_22  and  N_20 
ROOT
ATOM      1  C   LIG d   1       1.309  57.120 117.777  0.00  0.00     0.161 C 
ATOM      2  C   LIG d   1       1.076  56.049 116.898  0.00  0.00     0.016 C 
ATOM      3  C   LIG d   1       1.852  54.867 116.887  0.00  0.00     0.038 C 
ATOM      4  C   LIG d   1       2.826  54.612 117.864  0.00  0.00     0.028 C 
ATOM      5  C   LIG d   1       3.436  55.877 118.457  0.00  0.00    -0.047 C 
ATOM      6  C   LIG d   1       2.296  56.813 118.922  0.00  0.00     0.091 C 
ENDROOT
BRANCH   1   7
ATOM      7  O   LIG d   1       0.057  57.597 118.309  0.00  0.00    -0.368 OA
BRANCH   7   8
ATOM      8  C   LIG d   1      -0.859  58.185 117.352  0.00  0.00     0.119 C 
BRANCH   8   9
ATOM      9  C   LIG d   1      -0.399  59.635 117.102  0.00  0.00     0.028 C 
ATOM     10  C   LIG d   1       0.266  59.810 115.727  0.00  0.00     0.006 C 
ENDBRANCH   8   9
BRANCH   8  11
ATOM     11  C   LIG d   1      -2.271  58.302 117.933  0.00  0.00     0.028 C 
ATOM     12  C   LIG d   1      -2.744  59.758 118.062  0.00  0.00     0.006 C 
ENDBRANCH   8  11
ENDBRANCH   7   8
ENDBRANCH   1   7
BRANCH   6  13
ATOM     13  N   LIG d   1       2.804  58.110 119.439  0.00  0.00    -0.311 N 
ATOM     14  C   LIG d   1       3.601  58.917 118.740  0.00  0.00     0.210 C 
ATOM     15  C   LIG d   1       4.024  60.197 119.467  0.00  0.00     0.109 C 
ATOM     16  O   LIG d   1       3.971  58.708 117.575  0.00  0.00    -0.276 OA
ATOM     17  H   LIG d   1       2.526  58.373 120.365  0.00  0.00     0.149 HD
ENDBRANCH   6  13
BRANCH   5  18
ATOM     18  N   LIG d   1       4.332  55.468 119.555  0.00  0.00     0.381 N 
ATOM     19  H   LIG d   1       4.986  56.199 119.748  0.00  0.00    -0.090 HD
ATOM     20  H   LIG d   1       4.845  54.653 119.269  0.00  0.00    -0.090 HD
ATOM     21  H   LIG d   1       3.799  55.264 120.372  0.00  0.00    -0.090 HD
ENDBRANCH   5  18
BRANCH   3  22
ATOM     22  C   LIG d   1       1.683  53.943 115.867  0.00  0.00     0.382 C 
ATOM     23  O   LIG d   1       0.542  53.485 115.619  0.00  0.00    -0.241 OA
ATOM     24  O   LIG d   1       2.664  53.530 115.221  0.00  0.00    -0.241 OA
ENDBRANCH   3  22
TORSDOF 7
ENDMDL
MODEL 8
REMARK VINA RESULT:      -4.7     14.799     17.146
REMARK  7 active torsions:
REMARK  status: ('A' for Active; 'I' for Inactive)
REMARK    1  A    between atoms: C_2  and  C_3 
REMARK    2  A    between atoms: C_3  and  O_6 
REMARK    3  A    between atoms: C_3  and  C_4 
REMARK    4  A    between atoms: C_7  and  O_6 
REMARK    5  A    between atoms: C_9  and  C_10 
REMARK    6  A    between atoms: N_15  and  C_14 
REMARK    7  A    between atoms: N_20  and  C_19 
REMARK       I    between atoms: C_22  and  N_20 
ROOT
ATOM      1  C   LIG d   1       2.764  88.400 115.947  0.00  0.00     0.161 C 
ATOM      2  C   LIG d   1       2.939  89.783 116.121  0.00  0.00     0.016 C 
ATOM      3  C   LIG d   1       3.879  90.341 117.018  0.00  0.00     0.038 C 
ATOM      4  C   LIG d   1       4.818  89.550 117.695  0.00  0.00     0.028 C 
ATOM      5  C   LIG d   1       4.346  88.119 117.934  0.00  0.00    -0.047 C 
ATOM      6  C   LIG d   1       3.856  87.523 116.595  0.00  0.00     0.091 C 
ENDROOT
BRANCH   1   7
ATOM      7  O   LIG d   1       2.644  88.095 114.543  0.00  0.00    -0.368 OA
BRANCH   7   8
ATOM      8  C   LIG d   1       3.836  87.584 113.898  0.00  0.00     0.119 C 
BRANCH   8   9
ATOM      9  C   LIG d   1       4.506  88.761 113.163  0.00  0.00     0.028 C 
ATOM     10  C   LIG d   1       5.860  89.145 113.782  0.00  0.00     0.006 C 
ENDBRANCH   8   9
BRANCH   8  11
ATOM     11  C   LIG d   1       3.487  86.569 112.805  0.00  0.00     0.028 C 
ATOM     12  C   LIG d   1       3.858  85.128 113.190  0.00  0.00     0.006 C 
ENDBRANCH   8  11
ENDBRANCH   7   8
ENDBRANCH   1   7
BRANCH   6  13
ATOM     13  N   LIG d   1       3.298  86.154 116.754  0.00  0.00    -0.311 N 
ATOM     14  C   LIG d   1       4.032  85.048 116.659  0.00  0.00     0.210 C 
ATOM     15  C   LIG d   1       3.256  83.739 116.837  0.00  0.00     0.109 C 
ATOM     16  O   LIG d   1       5.259  85.026 116.477  0.00  0.00    -0.276 OA
ATOM     17  H   LIG d   1       2.316  86.080 116.936  0.00  0.00     0.149 HD
ENDBRANCH   6  13
BRANCH   5  18
ATOM     18  N   LIG d   1       5.472  87.370 118.523  0.00  0.00     0.381 N 
ATOM     19  H   LIG d   1       6.335  87.821 118.294  0.00  0.00    -0.090 HD
ATOM     20  H   LIG d   1       5.486  86.445 118.133  0.00  0.00    -0.090 HD
ATOM     21  H   LIG d   1       5.367  87.320 119.512  0.00  0.00    -0.090 HD
ENDBRANCH   5  18
BRANCH   3  22
ATOM     22  C   LIG d   1       3.858  91.703 117.275  0.00  0.00     0.382 C 
ATOM     23  O   LIG d   1       4.698  92.206 118.059  0.00  0.00    -0.241 OA
ATOM     24  O   LIG d   1       2.982  92.429 116.766  0.00  0.00    -0.241 OA
ENDBRANCH   3  22
TORSDOF 7
ENDMDL
MODEL 9
REMARK VINA RESULT:      -4.6     11.658     14.385
REMARK  7 active torsions:
REMARK  status: ('A' for Active; 'I' for Inactive)
REMARK    1  A    between atoms: C_2  and  C_3 
REMARK    2  A    between atoms: C_3  and  O_6 
REMARK    3  A    between atoms: C_3  and  C_4 
REMARK    4  A    between atoms: C_7  and  O_6 
REMARK    5  A    between atoms: C_9  and  C_10 
REMARK    6  A    between atoms: N_15  and  C_14 
REMARK    7  A    between atoms: N_20  and  C_19 
REMARK       I    between atoms: C_22  and  N_20 
ROOT
ATOM      1  C   LIG d   1     -15.490  65.473 116.131  0.00  0.00     0.161 C 
ATOM      2  C   LIG d   1     -14.904  66.231 117.158  0.00  0.00     0.016 C 
ATOM      3  C   LIG d   1     -15.566  67.295 117.815  0.00  0.00     0.038 C 
ATOM      4  C   LIG d   1     -16.922  67.575 117.590  0.00  0.00     0.028 C 
ATOM      5  C   LIG d   1     -17.404  67.163 116.203  0.00  0.00    -0.047 C 
ATOM      6  C   LIG d   1     -17.006  65.691 115.950  0.00  0.00     0.091 C 
ENDROOT
BRANCH   1   7
ATOM      7  O   LIG d   1     -15.206  64.074 116.334  0.00  0.00    -0.368 OA
BRANCH   7   8
ATOM      8  C   LIG d   1     -15.801  63.467 117.508  0.00  0.00     0.119 C 
BRANCH   8   9
ATOM      9  C   LIG d   1     -14.707  62.631 118.201  0.00  0.00     0.028 C 
ATOM     10  C   LIG d   1     -13.927  63.440 119.250  0.00  0.00     0.006 C 
ENDBRANCH   8   9
BRANCH   8  11
ATOM     11  C   LIG d   1     -16.894  62.466 117.123  0.00  0.00     0.028 C 
ATOM     12  C   LIG d   1     -16.554  61.670 115.853  0.00  0.00     0.006 C 
ENDBRANCH   8  11
ENDBRANCH   7   8
ENDBRANCH   1   7
BRANCH   6  13
ATOM     13  N   LIG d   1     -17.366  65.234 114.582  0.00  0.00    -0.311 N 
ATOM     14  C   LIG d   1     -18.466  64.535 114.309  0.00  0.00     0.210 C 
ATOM     15  C   LIG d   1     -18.637  64.147 112.837  0.00  0.00     0.109 C 
ATOM     16  O   LIG d   1     -19.333  64.226 115.141  0.00  0.00    -0.276 OA
ATOM     17  H   LIG d   1     -16.734  65.468 113.842  0.00  0.00     0.149 HD
ENDBRANCH   6  13
BRANCH   5  18
ATOM     18  N   LIG d   1     -18.862  67.385 116.154  0.00  0.00     0.381 N 
ATOM     19  H   LIG d   1     -19.060  68.220 115.640  0.00  0.00    -0.090 HD
ATOM     20  H   LIG d   1     -19.204  67.503 117.092  0.00  0.00    -0.090 HD
ATOM     21  H   LIG d   1     -19.311  66.607 115.724  0.00  0.00    -0.090 HD
ENDBRANCH   5  18
BRANCH   3  22
ATOM     22  C   LIG d   1     -14.857  68.116 118.678  0.00  0.00     0.382 C 
ATOM     23  O   LIG d   1     -13.687  67.814 119.012  0.00  0.00    -0.241 OA
ATOM     24  O   LIG d   1     -15.390  69.133 119.163  0.00  0.00    -0.241 OA
ENDBRANCH   3  22
TORSDOF 7
ENDMDL
