MODEL 1
REMARK VINA RESULT:      -5.6      0.000      0.000
REMARK  7 active torsions:
REMARK  status: ('A' for Active; 'I' for Inactive)
REMARK    1  A    between atoms: C_2  and  C_3 
REMARK    2  A    between atoms: C_3  and  O_6 
REMARK    3  A    between atoms: C_3  and  C_4 
REMARK    4  A    between atoms: C_7  and  O_6 
REMARK    5  A    between atoms: C_9  and  C_10 
REMARK    6  A    between atoms: N_15  and  C_14 
REMARK    7  A    between atoms: N_20  and  C_19 
REMARK       I    between atoms: C_22  and  N_20 
ROOT
ATOM      1  C   LIG d   1      -7.853  75.196 116.921  0.00  0.00     0.161 C 
ATOM      2  C   LIG d   1      -7.805  73.843 116.548  0.00  0.00     0.016 C 
ATOM      3  C   LIG d   1      -8.639  72.850 117.112  0.00  0.00     0.038 C 
ATOM      4  C   LIG d   1      -9.689  73.172 117.985  0.00  0.00     0.028 C 
ATOM      5  C   LIG d   1      -9.449  74.455 118.774  0.00  0.00    -0.047 C 
ATOM      6  C   LIG d   1      -9.067  75.585 117.790  0.00  0.00     0.091 C 
ENDROOT
BRANCH   1   7
ATOM      7  O   LIG d   1      -7.790  76.029 115.747  0.00  0.00    -0.368 OA
BRANCH   7   8
ATOM      8  C   LIG d   1      -6.516  76.666 115.484  0.00  0.00     0.119 C 
BRANCH   8   9
ATOM      9  C   LIG d   1      -5.803  75.843 114.393  0.00  0.00     0.028 C 
ATOM     10  C   LIG d   1      -4.635  75.014 114.953  0.00  0.00     0.006 C 
ENDBRANCH   8   9
BRANCH   8  11
ATOM     11  C   LIG d   1      -5.597  76.599 116.707  0.00  0.00     0.028 C 
ATOM     12  C   LIG d   1      -5.413  77.964 117.390  0.00  0.00     0.006 C 
ENDBRANCH   8  11
ENDBRANCH   7   8
ENDBRANCH   1   7
BRANCH   6  13
ATOM     13  N   LIG d   1      -8.733  76.854 118.488  0.00  0.00    -0.311 N 
ATOM     14  C   LIG d   1      -9.633  77.795 118.769  0.00  0.00     0.210 C 
ATOM     15  C   LIG d   1      -9.074  79.034 119.474  0.00  0.00     0.109 C 
ATOM     16  O   LIG d   1     -10.847  77.707 118.529  0.00  0.00    -0.276 OA
ATOM     17  H   LIG d   1      -7.776  76.994 118.746  0.00  0.00     0.149 HD
ENDBRANCH   6  13
BRANCH   5  18
ATOM     18  N   LIG d   1     -10.677  74.744 119.538  0.00  0.00     0.381 N 
ATOM     19  H   LIG d   1     -11.480  74.478 119.003  0.00  0.00    -0.090 HD
ATOM     20  H   LIG d   1     -10.727  75.733 119.711  0.00  0.00    -0.090 HD
ATOM     21  H   LIG d   1     -10.666  74.249 120.402  0.00  0.00    -0.090 HD
ENDBRANCH   5  18
BRANCH   3  22
ATOM     22  C   LIG d   1      -8.401  71.513 116.834  0.00  0.00     0.382 C 
ATOM     23  O   LIG d   1      -7.409  71.184 116.139  0.00  0.00    -0.241 OA
ATOM     24  O   LIG d   1      -9.189  70.634 117.232  0.00  0.00    -0.241 OA
ENDBRANCH   3  22
TORSDOF 7
ENDMDL
MODEL 2
REMARK VINA RESULT:      -5.4      1.932      2.504
REMARK  7 active torsions:
REMARK  status: ('A' for Active; 'I' for Inactive)
REMARK    1  A    between atoms: C_2  and  C_3 
REMARK    2  A    between atoms: C_3  and  O_6 
REMARK    3  A    between atoms: C_3  and  C_4 
REMARK    4  A    between atoms: C_7  and  O_6 
REMARK    5  A    between atoms: C_9  and  C_10 
REMARK    6  A    between atoms: N_15  and  C_14 
REMARK    7  A    between atoms: N_20  and  C_19 
REMARK       I    between atoms: C_22  and  N_20 
ROOT
ATOM      1  C   LIG d   1      -7.782  76.295 117.006  0.00  0.00     0.161 C 
ATOM      2  C   LIG d   1      -8.546  75.116 116.964  0.00  0.00     0.016 C 
ATOM      3  C   LIG d   1      -9.783  74.967 117.631  0.00  0.00     0.038 C 
ATOM      4  C   LIG d   1     -10.418  76.045 118.267  0.00  0.00     0.028 C 
ATOM      5  C   LIG d   1      -9.448  77.112 118.763  0.00  0.00    -0.047 C 
ATOM      6  C   LIG d   1      -8.511  77.517 117.602  0.00  0.00     0.091 C 
ENDROOT
BRANCH   1   7
ATOM      7  O   LIG d   1      -7.284  76.601 115.689  0.00  0.00    -0.368 OA
BRANCH   7   8
ATOM      8  C   LIG d   1      -5.877  76.343 115.463  0.00  0.00     0.119 C 
BRANCH   8   9
ATOM      9  C   LIG d   1      -5.732  74.852 115.101  0.00  0.00     0.028 C 
ATOM     10  C   LIG d   1      -4.272  74.373 115.155  0.00  0.00     0.006 C 
ENDBRANCH   8   9
BRANCH   8  11
ATOM     11  C   LIG d   1      -5.063  76.529 116.747  0.00  0.00     0.028 C 
ATOM     12  C   LIG d   1      -4.195  77.797 116.723  0.00  0.00     0.006 C 
ENDBRANCH   8  11
ENDBRANCH   7   8
ENDBRANCH   1   7
BRANCH   6  13
ATOM     13  N   LIG d   1      -7.476  78.496 118.025  0.00  0.00    -0.311 N 
ATOM     14  C   LIG d   1      -7.636  79.815 117.939  0.00  0.00     0.210 C 
ATOM     15  C   LIG d   1      -6.437  80.644 118.410  0.00  0.00     0.109 C 
ATOM     16  O   LIG d   1      -8.670  80.378 117.548  0.00  0.00    -0.276 OA
ATOM     17  H   LIG d   1      -6.617  78.126 118.383  0.00  0.00     0.149 HD
ENDBRANCH   6  13
BRANCH   5  18
ATOM     18  N   LIG d   1     -10.249  78.237 119.279  0.00  0.00     0.381 N 
ATOM     19  H   LIG d   1     -11.001  77.889 119.840  0.00  0.00    -0.090 HD
ATOM     20  H   LIG d   1     -10.642  78.740 118.503  0.00  0.00    -0.090 HD
ATOM     21  H   LIG d   1      -9.675  78.845 119.821  0.00  0.00    -0.090 HD
ENDBRANCH   5  18
BRANCH   3  22
ATOM     22  C   LIG d   1     -10.380  73.717 117.701  0.00  0.00     0.382 C 
ATOM     23  O   LIG d   1     -11.358  73.531 118.465  0.00  0.00    -0.241 OA
ATOM     24  O   LIG d   1      -9.925  72.762 117.044  0.00  0.00    -0.241 OA
ENDBRANCH   3  22
TORSDOF 7
ENDMDL
MODEL 3
REMARK VINA RESULT:      -5.1      2.363      5.257
REMARK  7 active torsions:
REMARK  status: ('A' for Active; 'I' for Inactive)
REMARK    1  A    between atoms: C_2  and  C_3 
REMARK    2  A    between atoms: C_3  and  O_6 
REMARK    3  A    between atoms: C_3  and  C_4 
REMARK    4  A    between atoms: C_7  and  O_6 
REMARK    5  A    between atoms: C_9  and  C_10 
REMARK    6  A    between atoms: N_15  and  C_14 
REMARK    7  A    between atoms: N_20  and  C_19 
REMARK       I    between atoms: C_22  and  N_20 
ROOT
ATOM      1  C   LIG d   1      -7.648  77.376 117.225  0.00  0.00     0.161 C 
ATOM      2  C   LIG d   1      -7.362  78.738 117.416  0.00  0.00     0.016 C 
ATOM      3  C   LIG d   1      -8.141  79.590 118.232  0.00  0.00     0.038 C 
ATOM      4  C   LIG d   1      -9.178  79.099 119.038  0.00  0.00     0.028 C 
ATOM      5  C   LIG d   1      -9.820  77.828 118.492  0.00  0.00    -0.047 C 
ATOM      6  C   LIG d   1      -8.709  76.798 118.184  0.00  0.00     0.091 C 
ENDROOT
BRANCH   1   7
ATOM      7  O   LIG d   1      -6.432  76.606 117.301  0.00  0.00    -0.368 OA
BRANCH   7   8
ATOM      8  C   LIG d   1      -5.763  76.344 116.043  0.00  0.00     0.119 C 
BRANCH   8   9
ATOM      9  C   LIG d   1      -6.162  74.925 115.594  0.00  0.00     0.028 C 
ATOM     10  C   LIG d   1      -4.971  74.132 115.029  0.00  0.00     0.006 C 
ENDBRANCH   8   9
BRANCH   8  11
ATOM     11  C   LIG d   1      -4.242  76.303 116.217  0.00  0.00     0.028 C 
ATOM     12  C   LIG d   1      -3.667  77.627 116.742  0.00  0.00     0.006 C 
ENDBRANCH   8  11
ENDBRANCH   7   8
ENDBRANCH   1   7
BRANCH   6  13
ATOM     13  N   LIG d   1      -9.244  75.556 117.567  0.00  0.00    -0.311 N 
ATOM     14  C   LIG d   1      -9.195  74.364 118.159  0.00  0.00     0.210 C 
ATOM     15  C   LIG d   1      -9.785  73.211 117.340  0.00  0.00     0.109 C 
ATOM     16  O   LIG d   1      -8.749  74.157 119.297  0.00  0.00    -0.276 OA
ATOM     17  H   LIG d   1      -9.652  75.638 116.656  0.00  0.00     0.149 HD
ENDBRANCH   6  13
BRANCH   5  18
ATOM     18  N   LIG d   1     -10.788  77.351 119.498  0.00  0.00     0.381 N 
ATOM     19  H   LIG d   1     -11.694  77.266 119.082  0.00  0.00    -0.090 HD
ATOM     20  H   LIG d   1     -10.844  78.025 120.241  0.00  0.00    -0.090 HD
ATOM     21  H   LIG d   1     -10.497  76.470 119.860  0.00  0.00    -0.090 HD
ENDBRANCH   5  18
BRANCH   3  22
ATOM     22  C   LIG d   1      -7.909  80.958 118.216  0.00  0.00     0.382 C 
ATOM     23  O   LIG d   1      -8.519  81.706 119.018  0.00  0.00    -0.241 OA
ATOM     24  O   LIG d   1      -7.132  81.457 117.381  0.00  0.00    -0.241 OA
ENDBRANCH   3  22
TORSDOF 7
ENDMDL
MODEL 4
REMARK VINA RESULT:      -4.9      2.494      6.280
REMARK  7 active torsions:
REMARK  status: ('A' for Active; 'I' for Inactive)
REMARK    1  A    between atoms: C_2  and  C_3 
REMARK    2  A    between atoms: C_3  and  O_6 
REMARK    3  A    between atoms: C_3  and  C_4 
REMARK    4  A    between atoms: C_7  and  O_6 
REMARK    5  A    between atoms: C_9  and  C_10 
REMARK    6  A    between atoms: N_15  and  C_14 
REMARK    7  A    between atoms: N_20  and  C_19 
REMARK       I    between atoms: C_22  and  N_20 
ROOT
ATOM      1  C   LIG d   1      -7.677  76.513 117.590  0.00  0.00     0.161 C 
ATOM      2  C   LIG d   1      -8.468  77.483 118.228  0.00  0.00     0.016 C 
ATOM      3  C   LIG d   1      -8.083  78.837 118.360  0.00  0.00     0.038 C 
ATOM      4  C   LIG d   1      -6.940  79.348 117.727  0.00  0.00     0.028 C 
ATOM      5  C   LIG d   1      -5.855  78.301 117.500  0.00  0.00    -0.047 C 
ATOM      6  C   LIG d   1      -6.479  77.075 116.797  0.00  0.00     0.091 C 
ENDROOT
BRANCH   1   7
ATOM      7  O   LIG d   1      -8.502  75.692 116.739  0.00  0.00    -0.368 OA
BRANCH   7   8
ATOM      8  C   LIG d   1      -9.178  74.584 117.383  0.00  0.00     0.119 C 
BRANCH   8   9
ATOM      9  C   LIG d   1      -8.454  73.291 116.960  0.00  0.00     0.028 C 
ATOM     10  C   LIG d   1      -9.331  72.041 117.142  0.00  0.00     0.006 C 
ENDBRANCH   8   9
BRANCH   8  11
ATOM     11  C   LIG d   1     -10.612  74.432 116.868  0.00  0.00     0.028 C 
ATOM     12  C   LIG d   1     -11.664  74.872 117.898  0.00  0.00     0.006 C 
ENDBRANCH   8  11
ENDBRANCH   7   8
ENDBRANCH   1   7
BRANCH   6  13
ATOM     13  N   LIG d   1      -5.503  75.969 116.612  0.00  0.00    -0.311 N 
ATOM     14  C   LIG d   1      -4.788  75.800 115.502  0.00  0.00     0.210 C 
ATOM     15  C   LIG d   1      -3.855  74.585 115.512  0.00  0.00     0.109 C 
ATOM     16  O   LIG d   1      -4.814  76.559 114.521  0.00  0.00    -0.276 OA
ATOM     17  H   LIG d   1      -5.396  75.324 117.371  0.00  0.00     0.149 HD
ENDBRANCH   6  13
BRANCH   5  18
ATOM     18  N   LIG d   1      -4.782  78.936 116.711  0.00  0.00     0.381 N 
ATOM     19  H   LIG d   1      -4.070  79.282 117.323  0.00  0.00    -0.090 HD
ATOM     20  H   LIG d   1      -5.167  79.714 116.205  0.00  0.00    -0.090 HD
ATOM     21  H   LIG d   1      -4.391  78.277 116.074  0.00  0.00    -0.090 HD
ENDBRANCH   5  18
BRANCH   3  22
ATOM     22  C   LIG d   1      -8.825  79.687 119.167  0.00  0.00     0.382 C 
ATOM     23  O   LIG d   1     -10.004  79.389 119.474  0.00  0.00    -0.241 OA
ATOM     24  O   LIG d   1      -8.344  80.768 119.555  0.00  0.00    -0.241 OA
ENDBRANCH   3  22
TORSDOF 7
ENDMDL
MODEL 5
REMARK VINA RESULT:      -4.8      2.292      3.765
REMARK  7 active torsions:
REMARK  status: ('A' for Active; 'I' for Inactive)
REMARK    1  A    between atoms: C_2  and  C_3 
REMARK    2  A    between atoms: C_3  and  O_6 
REMARK    3  A    between atoms: C_3  and  C_4 
REMARK    4  A    between atoms: C_7  and  O_6 
REMARK    5  A    between atoms: C_9  and  C_10 
REMARK    6  A    between atoms: N_15  and  C_14 
REMARK    7  A    between atoms: N_20  and  C_19 
REMARK       I    between atoms: C_22  and  N_20 
ROOT
ATOM      1  C   LIG d   1      -6.694  76.125 116.262  0.00  0.00     0.161 C 
ATOM      2  C   LIG d   1      -7.933  75.463 116.265  0.00  0.00     0.016 C 
ATOM      3  C   LIG d   1      -8.951  75.721 117.211  0.00  0.00     0.038 C 
ATOM      4  C   LIG d   1      -8.857  76.774 118.133  0.00  0.00     0.028 C 
ATOM      5  C   LIG d   1      -7.420  77.137 118.493  0.00  0.00    -0.047 C 
ATOM      6  C   LIG d   1      -6.616  77.354 117.191  0.00  0.00     0.091 C 
ENDROOT
BRANCH   1   7
ATOM      7  O   LIG d   1      -6.340  76.492 114.914  0.00  0.00    -0.368 OA
BRANCH   7   8
ATOM      8  C   LIG d   1      -5.193  75.812 114.348  0.00  0.00     0.119 C 
BRANCH   8   9
ATOM      9  C   LIG d   1      -4.986  74.510 115.147  0.00  0.00     0.028 C 
ATOM     10  C   LIG d   1      -3.546  74.361 115.663  0.00  0.00     0.006 C 
ENDBRANCH   8   9
BRANCH   8  11
ATOM     11  C   LIG d   1      -3.908  76.621 114.553  0.00  0.00     0.028 C 
ATOM     12  C   LIG d   1      -3.425  77.307 113.265  0.00  0.00     0.006 C 
ENDBRANCH   8  11
ENDBRANCH   7   8
ENDBRANCH   1   7
BRANCH   6  13
ATOM     13  N   LIG d   1      -5.179  77.630 117.451  0.00  0.00    -0.311 N 
ATOM     14  C   LIG d   1      -4.661  78.857 117.475  0.00  0.00     0.210 C 
ATOM     15  C   LIG d   1      -3.153  78.917 117.741  0.00  0.00     0.109 C 
ATOM     16  O   LIG d   1      -5.312  79.903 117.332  0.00  0.00    -0.276 OA
ATOM     17  H   LIG d   1      -4.584  76.841 117.609  0.00  0.00     0.149 HD
ENDBRANCH   6  13
BRANCH   5  18
ATOM     18  N   LIG d   1      -7.464  78.335 119.352  0.00  0.00     0.381 N 
ATOM     19  H   LIG d   1      -7.914  78.115 120.218  0.00  0.00    -0.090 HD
ATOM     20  H   LIG d   1      -8.003  79.047 118.890  0.00  0.00    -0.090 HD
ATOM     21  H   LIG d   1      -6.541  78.666 119.524  0.00  0.00    -0.090 HD
ENDBRANCH   5  18
BRANCH   3  22
ATOM     22  C   LIG d   1     -10.064  74.895 117.267  0.00  0.00     0.382 C 
ATOM     23  O   LIG d   1      -9.947  73.670 117.025  0.00  0.00    -0.241 OA
ATOM     24  O   LIG d   1     -11.190  75.368 117.512  0.00  0.00    -0.241 OA
ENDBRANCH   3  22
TORSDOF 7
ENDMDL
MODEL 6
REMARK VINA RESULT:      -4.7     15.417     17.559
REMARK  7 active torsions:
REMARK  status: ('A' for Active; 'I' for Inactive)
REMARK    1  A    between atoms: C_2  and  C_3 
REMARK    2  A    between atoms: C_3  and  O_6 
REMARK    3  A    between atoms: C_3  and  C_4 
REMARK    4  A    between atoms: C_7  and  O_6 
REMARK    5  A    between atoms: C_9  and  C_10 
REMARK    6  A    between atoms: N_15  and  C_14 
REMARK    7  A    between atoms: N_20  and  C_19 
REMARK       I    between atoms: C_22  and  N_20 
ROOT
ATOM      1  C   LIG d   1       1.157  88.863 117.019  0.00  0.00     0.161 C 
ATOM      2  C   LIG d   1      -0.235  88.681 117.065  0.00  0.00     0.016 C 
ATOM      3  C   LIG d   1      -1.117  89.580 117.708  0.00  0.00     0.038 C 
ATOM      4  C   LIG d   1      -0.677  90.809 118.222  0.00  0.00     0.028 C 
ATOM      5  C   LIG d   1       0.788  90.800 118.644  0.00  0.00    -0.047 C 
ATOM      6  C   LIG d   1       1.643  90.254 117.477  0.00  0.00     0.091 C 
ENDROOT
BRANCH   1   7
ATOM      7  O   LIG d   1       1.643  88.574 115.693  0.00  0.00    -0.368 OA
BRANCH   7   8
ATOM      8  C   LIG d   1       2.517  87.425 115.571  0.00  0.00     0.119 C 
BRANCH   8   9
ATOM      9  C   LIG d   1       3.502  87.713 114.422  0.00  0.00     0.028 C 
ATOM     10  C   LIG d   1       4.682  88.594 114.866  0.00  0.00     0.006 C 
ENDBRANCH   8   9
BRANCH   8  11
ATOM     11  C   LIG d   1       1.741  86.178 115.137  0.00  0.00     0.028 C 
ATOM     12  C   LIG d   1       2.314  85.532 113.866  0.00  0.00     0.006 C 
ENDBRANCH   8  11
ENDBRANCH   7   8
ENDBRANCH   1   7
BRANCH   6  13
ATOM     13  N   LIG d   1       3.080  90.133 117.835  0.00  0.00    -0.311 N 
ATOM     14  C   LIG d   1       3.992  91.054 117.529  0.00  0.00     0.210 C 
ATOM     15  C   LIG d   1       5.420  90.723 117.974  0.00  0.00     0.109 C 
ATOM     16  O   LIG d   1       3.748  92.129 116.960  0.00  0.00    -0.276 OA
ATOM     17  H   LIG d   1       3.360  89.306 118.326  0.00  0.00     0.149 HD
ENDBRANCH   6  13
BRANCH   5  18
ATOM     18  N   LIG d   1       1.149  92.178 119.029  0.00  0.00     0.381 N 
ATOM     19  H   LIG d   1       1.038  92.789 118.246  0.00  0.00    -0.090 HD
ATOM     20  H   LIG d   1       2.115  92.195 119.308  0.00  0.00    -0.090 HD
ATOM     21  H   LIG d   1       0.573  92.483 119.783  0.00  0.00    -0.090 HD
ENDBRANCH   5  18
BRANCH   3  22
ATOM     22  C   LIG d   1      -2.449  89.234 117.878  0.00  0.00     0.382 C 
ATOM     23  O   LIG d   1      -3.338  89.817 117.212  0.00  0.00    -0.241 OA
ATOM     24  O   LIG d   1      -2.776  88.377 118.721  0.00  0.00    -0.241 OA
ENDBRANCH   3  22
TORSDOF 7
ENDMDL
MODEL 7
REMARK VINA RESULT:      -4.6      3.372      5.242
REMARK  7 active torsions:
REMARK  status: ('A' for Active; 'I' for Inactive)
REMARK    1  A    between atoms: C_2  and  C_3 
REMARK    2  A    between atoms: C_3  and  O_6 
REMARK    3  A    between atoms: C_3  and  C_4 
REMARK    4  A    between atoms: C_7  and  O_6 
REMARK    5  A    between atoms: C_9  and  C_10 
REMARK    6  A    between atoms: N_15  and  C_14 
REMARK    7  A    between atoms: N_20  and  C_19 
REMARK       I    between atoms: C_22  and  N_20 
ROOT
ATOM      1  C   LIG d   1      -5.994  77.079 117.528  0.00  0.00     0.161 C 
ATOM      2  C   LIG d   1      -7.353  76.758 117.680  0.00  0.00     0.016 C 
ATOM      3  C   LIG d   1      -8.356  77.721 117.935  0.00  0.00     0.038 C 
ATOM      4  C   LIG d   1      -8.087  79.098 117.906  0.00  0.00     0.028 C 
ATOM      5  C   LIG d   1      -6.643  79.440 118.258  0.00  0.00    -0.047 C 
ATOM      6  C   LIG d   1      -5.697  78.586 117.383  0.00  0.00     0.091 C 
ENDROOT
BRANCH   1   7
ATOM      7  O   LIG d   1      -5.441  76.350 116.414  0.00  0.00    -0.368 OA
BRANCH   7   8
ATOM      8  C   LIG d   1      -6.348  75.455 115.725  0.00  0.00     0.119 C 
BRANCH   8   9
ATOM      9  C   LIG d   1      -5.518  74.265 115.206  0.00  0.00     0.028 C 
ATOM     10  C   LIG d   1      -4.037  74.361 115.609  0.00  0.00     0.006 C 
ENDBRANCH   8   9
BRANCH   8  11
ATOM     11  C   LIG d   1      -6.938  76.114 114.475  0.00  0.00     0.028 C 
ATOM     12  C   LIG d   1      -5.872  76.455 113.421  0.00  0.00     0.006 C 
ENDBRANCH   8  11
ENDBRANCH   7   8
ENDBRANCH   1   7
BRANCH   6  13
ATOM     13  N   LIG d   1      -4.266  78.798 117.722  0.00  0.00    -0.311 N 
ATOM     14  C   LIG d   1      -3.304  78.904 116.807  0.00  0.00     0.210 C 
ATOM     15  C   LIG d   1      -1.893  79.099 117.372  0.00  0.00     0.109 C 
ATOM     16  O   LIG d   1      -3.488  78.887 115.581  0.00  0.00    -0.276 OA
ATOM     17  H   LIG d   1      -4.031  78.855 118.693  0.00  0.00     0.149 HD
ENDBRANCH   6  13
BRANCH   5  18
ATOM     18  N   LIG d   1      -6.467  80.891 118.055  0.00  0.00     0.381 N 
ATOM     19  H   LIG d   1      -6.439  81.356 118.940  0.00  0.00    -0.090 HD
ATOM     20  H   LIG d   1      -7.252  81.244 117.537  0.00  0.00    -0.090 HD
ATOM     21  H   LIG d   1      -5.624  81.065 117.553  0.00  0.00    -0.090 HD
ENDBRANCH   5  18
BRANCH   3  22
ATOM     22  C   LIG d   1      -9.638  77.308 118.263  0.00  0.00     0.382 C 
ATOM     23  O   LIG d   1      -9.964  76.104 118.122  0.00  0.00    -0.241 OA
ATOM     24  O   LIG d   1     -10.486  78.131 118.656  0.00  0.00    -0.241 OA
ENDBRANCH   3  22
TORSDOF 7
ENDMDL
MODEL 8
REMARK VINA RESULT:      -4.6      2.462      3.857
REMARK  7 active torsions:
REMARK  status: ('A' for Active; 'I' for Inactive)
REMARK    1  A    between atoms: C_2  and  C_3 
REMARK    2  A    between atoms: C_3  and  O_6 
REMARK    3  A    between atoms: C_3  and  C_4 
REMARK    4  A    between atoms: C_7  and  O_6 
REMARK    5  A    between atoms: C_9  and  C_10 
REMARK    6  A    between atoms: N_15  and  C_14 
REMARK    7  A    between atoms: N_20  and  C_19 
REMARK       I    between atoms: C_22  and  N_20 
ROOT
ATOM      1  C   LIG d   1      -7.087  76.545 117.354  0.00  0.00     0.161 C 
ATOM      2  C   LIG d   1      -8.277  75.829 117.146  0.00  0.00     0.016 C 
ATOM      3  C   LIG d   1      -9.524  76.218 117.687  0.00  0.00     0.038 C 
ATOM      4  C   LIG d   1      -9.695  77.442 118.351  0.00  0.00     0.028 C 
ATOM      5  C   LIG d   1      -8.422  77.951 119.018  0.00  0.00    -0.047 C 
ATOM      6  C   LIG d   1      -7.274  77.942 117.983  0.00  0.00     0.091 C 
ENDROOT
BRANCH   1   7
ATOM      7  O   LIG d   1      -6.356  76.647 116.116  0.00  0.00    -0.368 OA
BRANCH   7   8
ATOM      8  C   LIG d   1      -5.075  75.972 116.075  0.00  0.00     0.119 C 
BRANCH   8   9
ATOM      9  C   LIG d   1      -4.018  77.008 115.646  0.00  0.00     0.028 C 
ATOM     10  C   LIG d   1      -3.553  76.806 114.194  0.00  0.00     0.006 C 
ENDBRANCH   8   9
BRANCH   8  11
ATOM     11  C   LIG d   1      -5.049  74.893 114.988  0.00  0.00     0.028 C 
ATOM     12  C   LIG d   1      -5.743  73.592 115.423  0.00  0.00     0.006 C 
ENDBRANCH   8  11
ENDBRANCH   7   8
ENDBRANCH   1   7
BRANCH   6  13
ATOM     13  N   LIG d   1      -5.973  78.346 118.576  0.00  0.00    -0.311 N 
ATOM     14  C   LIG d   1      -5.253  79.375 118.131  0.00  0.00     0.210 C 
ATOM     15  C   LIG d   1      -3.932  79.607 118.871  0.00  0.00     0.109 C 
ATOM     16  O   LIG d   1      -5.598  80.137 117.215  0.00  0.00    -0.276 OA
ATOM     17  H   LIG d   1      -5.632  77.802 119.344  0.00  0.00     0.149 HD
ENDBRANCH   6  13
BRANCH   5  18
ATOM     18  N   LIG d   1      -8.707  79.296 119.554  0.00  0.00     0.381 N 
ATOM     19  H   LIG d   1      -9.170  79.218 120.437  0.00  0.00    -0.090 HD
ATOM     20  H   LIG d   1      -9.319  79.776 118.918  0.00  0.00    -0.090 HD
ATOM     21  H   LIG d   1      -7.858  79.807 119.660  0.00  0.00    -0.090 HD
ENDBRANCH   5  18
BRANCH   3  22
ATOM     22  C   LIG d   1     -10.610  75.359 117.599  0.00  0.00     0.382 C 
ATOM     23  O   LIG d   1     -10.461  74.207 117.125  0.00  0.00    -0.241 OA
ATOM     24  O   LIG d   1     -11.744  75.738 117.947  0.00  0.00    -0.241 OA
ENDBRANCH   3  22
TORSDOF 7
ENDMDL
MODEL 9
REMARK VINA RESULT:      -4.6      5.387      7.414
REMARK  7 active torsions:
REMARK  status: ('A' for Active; 'I' for Inactive)
REMARK    1  A    between atoms: C_2  and  C_3 
REMARK    2  A    between atoms: C_3  and  O_6 
REMARK    3  A    between atoms: C_3  and  C_4 
REMARK    4  A    between atoms: C_7  and  O_6 
REMARK    5  A    between atoms: C_9  and  C_10 
REMARK    6  A    between atoms: N_15  and  C_14 
REMARK    7  A    between atoms: N_20  and  C_19 
REMARK       I    between atoms: C_22  and  N_20 
ROOT
ATOM      1  C   LIG d   1      -2.505  76.437 117.397  0.00  0.00     0.161 C 
ATOM      2  C   LIG d   1      -3.331  75.602 116.626  0.00  0.00     0.016 C 
ATOM      3  C   LIG d   1      -3.821  75.957 115.348  0.00  0.00     0.038 C 
ATOM      4  C   LIG d   1      -3.391  77.116 114.685  0.00  0.00     0.028 C 
ATOM      5  C   LIG d   1      -2.955  78.229 115.631  0.00  0.00    -0.047 C 
ATOM      6  C   LIG d   1      -1.935  77.658 116.643  0.00  0.00     0.091 C 
ENDROOT
BRANCH   1   7
ATOM      7  O   LIG d   1      -1.436  75.665 117.979  0.00  0.00    -0.368 OA
BRANCH   7   8
ATOM      8  C   LIG d   1      -1.498  74.233 117.771  0.00  0.00     0.119 C 
BRANCH   8   9
ATOM      9  C   LIG d   1      -1.515  73.564 119.159  0.00  0.00     0.028 C 
ATOM     10  C   LIG d   1      -0.182  72.873 119.494  0.00  0.00     0.006 C 
ENDBRANCH   8   9
BRANCH   8  11
ATOM     11  C   LIG d   1      -0.231  73.713 117.086  0.00  0.00     0.028 C 
ATOM     12  C   LIG d   1      -0.405  73.532 115.570  0.00  0.00     0.006 C 
ENDBRANCH   8  11
ENDBRANCH   7   8
ENDBRANCH   1   7
BRANCH   6  13
ATOM     13  N   LIG d   1      -1.521  78.661 117.658  0.00  0.00    -0.311 N 
ATOM     14  C   LIG d   1      -0.496  79.494 117.489  0.00  0.00     0.210 C 
ATOM     15  C   LIG d   1      -0.227  80.435 118.668  0.00  0.00     0.109 C 
ATOM     16  O   LIG d   1       0.195  79.566 116.462  0.00  0.00    -0.276 OA
ATOM     17  H   LIG d   1      -2.047  78.692 118.509  0.00  0.00     0.149 HD
ENDBRANCH   6  13
BRANCH   5  18
ATOM     18  N   LIG d   1      -2.404  79.322 114.809  0.00  0.00     0.381 N 
ATOM     19  H   LIG d   1      -3.140  79.936 114.523  0.00  0.00    -0.090 HD
ATOM     20  H   LIG d   1      -1.983  78.929 113.986  0.00  0.00    -0.090 HD
ATOM     21  H   LIG d   1      -1.722  79.830 115.329  0.00  0.00    -0.090 HD
ENDBRANCH   5  18
BRANCH   3  22
ATOM     22  C   LIG d   1      -4.782  75.166 114.737  0.00  0.00     0.382 C 
ATOM     23  O   LIG d   1      -5.950  75.600 114.592  0.00  0.00    -0.241 OA
ATOM     24  O   LIG d   1      -4.507  74.008 114.370  0.00  0.00    -0.241 OA
ENDBRANCH   3  22
TORSDOF 7
ENDMDL
