MODEL 1
REMARK VINA RESULT:      -5.9      0.000      0.000
REMARK  7 active torsions:
REMARK  status: ('A' for Active; 'I' for Inactive)
REMARK    1  A    between atoms: C_2  and  C_3 
REMARK    2  A    between atoms: C_3  and  O_6 
REMARK    3  A    between atoms: C_3  and  C_4 
REMARK    4  A    between atoms: C_7  and  O_6 
REMARK    5  A    between atoms: C_9  and  C_10 
REMARK    6  A    between atoms: N_15  and  C_14 
REMARK    7  A    between atoms: N_20  and  C_19 
REMARK       I    between atoms: C_22  and  N_20 
ROOT
ATOM      1  C   LIG d   1      -5.373  76.428 115.921  0.00  0.00     0.161 C 
ATOM      2  C   LIG d   1      -4.333  75.532 115.624  0.00  0.00     0.016 C 
ATOM      3  C   LIG d   1      -3.176  75.389 116.424  0.00  0.00     0.038 C 
ATOM      4  C   LIG d   1      -3.050  76.029 117.666  0.00  0.00     0.028 C 
ATOM      5  C   LIG d   1      -3.845  77.326 117.762  0.00  0.00    -0.047 C 
ATOM      6  C   LIG d   1      -5.304  77.053 117.330  0.00  0.00     0.091 C 
ENDROOT
BRANCH   1   7
ATOM      7  O   LIG d   1      -6.646  75.783 115.721  0.00  0.00    -0.368 OA
BRANCH   7   8
ATOM      8  C   LIG d   1      -7.039  74.821 116.730  0.00  0.00     0.119 C 
BRANCH   8   9
ATOM      9  C   LIG d   1      -6.683  73.419 116.198  0.00  0.00     0.028 C 
ATOM     10  C   LIG d   1      -7.878  72.452 116.245  0.00  0.00     0.006 C 
ENDBRANCH   8   9
BRANCH   8  11
ATOM     11  C   LIG d   1      -8.558  74.806 116.926  0.00  0.00     0.028 C 
ATOM     12  C   LIG d   1      -9.114  76.167 117.375  0.00  0.00     0.006 C 
ENDBRANCH   8  11
ENDBRANCH   7   8
ENDBRANCH   1   7
BRANCH   6  13
ATOM     13  N   LIG d   1      -6.131  78.288 117.315  0.00  0.00    -0.311 N 
ATOM     14  C   LIG d   1      -6.815  78.726 118.370  0.00  0.00     0.210 C 
ATOM     15  C   LIG d   1      -7.619  80.008 118.134  0.00  0.00     0.109 C 
ATOM     16  O   LIG d   1      -6.807  78.191 119.489  0.00  0.00    -0.276 OA
ATOM     17  H   LIG d   1      -6.169  78.801 116.456  0.00  0.00     0.149 HD
ENDBRANCH   6  13
BRANCH   5  18
ATOM     18  N   LIG d   1      -3.735  77.815 119.150  0.00  0.00     0.381 N 
ATOM     19  H   LIG d   1      -2.772  77.930 119.393  0.00  0.00    -0.090 HD
ATOM     20  H   LIG d   1      -4.136  77.132 119.768  0.00  0.00    -0.090 HD
ATOM     21  H   LIG d   1      -4.216  78.682 119.245  0.00  0.00    -0.090 HD
ENDBRANCH   5  18
BRANCH   3  22
ATOM     22  C   LIG d   1      -2.111  74.629 115.964  0.00  0.00     0.382 C 
ATOM     23  O   LIG d   1      -1.770  74.693 114.758  0.00  0.00    -0.241 OA
ATOM     24  O   LIG d   1      -1.517  73.846 116.729  0.00  0.00    -0.241 OA
ENDBRANCH   3  22
TORSDOF 7
ENDMDL
MODEL 2
REMARK VINA RESULT:      -5.7      1.736      2.476
REMARK  7 active torsions:
REMARK  status: ('A' for Active; 'I' for Inactive)
REMARK    1  A    between atoms: C_2  and  C_3 
REMARK    2  A    between atoms: C_3  and  O_6 
REMARK    3  A    between atoms: C_3  and  C_4 
REMARK    4  A    between atoms: C_7  and  O_6 
REMARK    5  A    between atoms: C_9  and  C_10 
REMARK    6  A    between atoms: N_15  and  C_14 
REMARK    7  A    between atoms: N_20  and  C_19 
REMARK       I    between atoms: C_22  and  N_20 
ROOT
ATOM      1  C   LIG d   1      -3.889  75.617 116.486  0.00  0.00     0.161 C 
ATOM      2  C   LIG d   1      -2.894  74.869 115.835  0.00  0.00     0.016 C 
ATOM      3  C   LIG d   1      -1.511  75.139 115.958  0.00  0.00     0.038 C 
ATOM      4  C   LIG d   1      -1.019  76.087 116.867  0.00  0.00     0.028 C 
ATOM      5  C   LIG d   1      -2.009  77.208 117.168  0.00  0.00    -0.047 C 
ATOM      6  C   LIG d   1      -3.366  76.585 117.568  0.00  0.00     0.091 C 
ENDROOT
BRANCH   1   7
ATOM      7  O   LIG d   1      -4.880  74.731 117.042  0.00  0.00    -0.368 OA
BRANCH   7   8
ATOM      8  C   LIG d   1      -5.971  74.362 116.162  0.00  0.00     0.119 C 
BRANCH   8   9
ATOM      9  C   LIG d   1      -6.781  75.639 115.869  0.00  0.00     0.028 C 
ATOM     10  C   LIG d   1      -7.809  75.949 116.971  0.00  0.00     0.006 C 
ENDBRANCH   8   9
BRANCH   8  11
ATOM     11  C   LIG d   1      -6.950  73.411 116.857  0.00  0.00     0.028 C 
ATOM     12  C   LIG d   1      -7.298  72.184 116.000  0.00  0.00     0.006 C 
ENDBRANCH   8  11
ENDBRANCH   7   8
ENDBRANCH   1   7
BRANCH   6  13
ATOM     13  N   LIG d   1      -4.415  77.611 117.798  0.00  0.00    -0.311 N 
ATOM     14  C   LIG d   1      -4.792  78.494 116.875  0.00  0.00     0.210 C 
ATOM     15  C   LIG d   1      -5.877  79.478 117.325  0.00  0.00     0.109 C 
ATOM     16  O   LIG d   1      -4.355  78.534 115.715  0.00  0.00    -0.276 OA
ATOM     17  H   LIG d   1      -4.845  77.630 118.702  0.00  0.00     0.149 HD
ENDBRANCH   6  13
BRANCH   5  18
ATOM     18  N   LIG d   1      -1.422  78.047 118.230  0.00  0.00     0.381 N 
ATOM     19  H   LIG d   1      -0.897  78.793 117.821  0.00  0.00    -0.090 HD
ATOM     20  H   LIG d   1      -0.796  77.485 118.780  0.00  0.00    -0.090 HD
ATOM     21  H   LIG d   1      -2.143  78.417 118.810  0.00  0.00    -0.090 HD
ENDBRANCH   5  18
BRANCH   3  22
ATOM     22  C   LIG d   1      -0.607  74.482 115.137  0.00  0.00     0.382 C 
ATOM     23  O   LIG d   1      -0.197  75.035 114.088  0.00  0.00    -0.241 OA
ATOM     24  O   LIG d   1      -0.230  73.327 115.408  0.00  0.00    -0.241 OA
ENDBRANCH   3  22
TORSDOF 7
ENDMDL
MODEL 3
REMARK VINA RESULT:      -5.4      1.567      2.288
REMARK  7 active torsions:
REMARK  status: ('A' for Active; 'I' for Inactive)
REMARK    1  A    between atoms: C_2  and  C_3 
REMARK    2  A    between atoms: C_3  and  O_6 
REMARK    3  A    between atoms: C_3  and  C_4 
REMARK    4  A    between atoms: C_7  and  O_6 
REMARK    5  A    between atoms: C_9  and  C_10 
REMARK    6  A    between atoms: N_15  and  C_14 
REMARK    7  A    between atoms: N_20  and  C_19 
REMARK       I    between atoms: C_22  and  N_20 
ROOT
ATOM      1  C   LIG d   1      -3.852  75.614 116.978  0.00  0.00     0.161 C 
ATOM      2  C   LIG d   1      -2.822  74.660 116.937  0.00  0.00     0.016 C 
ATOM      3  C   LIG d   1      -1.596  74.808 117.627  0.00  0.00     0.038 C 
ATOM      4  C   LIG d   1      -1.377  75.858 118.532  0.00  0.00     0.028 C 
ATOM      5  C   LIG d   1      -2.192  77.108 118.218  0.00  0.00    -0.047 C 
ATOM      6  C   LIG d   1      -3.676  76.712 118.048  0.00  0.00     0.091 C 
ENDROOT
BRANCH   1   7
ATOM      7  O   LIG d   1      -5.123  74.953 117.142  0.00  0.00    -0.368 OA
BRANCH   7   8
ATOM      8  C   LIG d   1      -6.127  75.244 116.139  0.00  0.00     0.119 C 
BRANCH   8   9
ATOM      9  C   LIG d   1      -7.398  74.459 116.515  0.00  0.00     0.028 C 
ATOM     10  C   LIG d   1      -7.164  72.939 116.536  0.00  0.00     0.006 C 
ENDBRANCH   8   9
BRANCH   8  11
ATOM     11  C   LIG d   1      -5.712  74.710 114.765  0.00  0.00     0.028 C 
ATOM     12  C   LIG d   1      -5.688  75.802 113.684  0.00  0.00     0.006 C 
ENDBRANCH   8  11
ENDBRANCH   7   8
ENDBRANCH   1   7
BRANCH   6  13
ATOM     13  N   LIG d   1      -4.529  77.863 117.655  0.00  0.00    -0.311 N 
ATOM     14  C   LIG d   1      -5.620  78.230 118.327  0.00  0.00     0.210 C 
ATOM     15  C   LIG d   1      -6.366  79.432 117.740  0.00  0.00     0.109 C 
ATOM     16  O   LIG d   1      -6.022  77.693 119.370  0.00  0.00    -0.276 OA
ATOM     17  H   LIG d   1      -4.258  78.374 116.838  0.00  0.00     0.149 HD
ENDBRANCH   6  13
BRANCH   5  18
ATOM     18  N   LIG d   1      -1.972  78.070 119.314  0.00  0.00     0.381 N 
ATOM     19  H   LIG d   1      -2.155  79.000 118.991  0.00  0.00    -0.090 HD
ATOM     20  H   LIG d   1      -1.011  78.021 119.603  0.00  0.00    -0.090 HD
ATOM     21  H   LIG d   1      -2.569  77.854 120.082  0.00  0.00    -0.090 HD
ENDBRANCH   5  18
BRANCH   3  22
ATOM     22  C   LIG d   1      -0.559  73.921 117.384  0.00  0.00     0.382 C 
ATOM     23  O   LIG d   1      -0.573  72.781 117.907  0.00  0.00    -0.241 OA
ATOM     24  O   LIG d   1       0.413  74.263 116.684  0.00  0.00    -0.241 OA
ENDBRANCH   3  22
TORSDOF 7
ENDMDL
MODEL 4
REMARK VINA RESULT:      -5.0      2.604      4.987
REMARK  7 active torsions:
REMARK  status: ('A' for Active; 'I' for Inactive)
REMARK    1  A    between atoms: C_2  and  C_3 
REMARK    2  A    between atoms: C_3  and  O_6 
REMARK    3  A    between atoms: C_3  and  C_4 
REMARK    4  A    between atoms: C_7  and  O_6 
REMARK    5  A    between atoms: C_9  and  C_10 
REMARK    6  A    between atoms: N_15  and  C_14 
REMARK    7  A    between atoms: N_20  and  C_19 
REMARK       I    between atoms: C_22  and  N_20 
ROOT
ATOM      1  C   LIG d   1      -3.081  75.134 116.242  0.00  0.00     0.161 C 
ATOM      2  C   LIG d   1      -2.172  75.989 115.598  0.00  0.00     0.016 C 
ATOM      3  C   LIG d   1      -2.496  76.746 114.448  0.00  0.00     0.038 C 
ATOM      4  C   LIG d   1      -3.806  76.814 113.951  0.00  0.00     0.028 C 
ATOM      5  C   LIG d   1      -4.639  75.577 114.265  0.00  0.00    -0.047 C 
ATOM      6  C   LIG d   1      -4.546  75.281 115.780  0.00  0.00     0.091 C 
ENDROOT
BRANCH   1   7
ATOM      7  O   LIG d   1      -2.987  75.307 117.670  0.00  0.00    -0.368 OA
BRANCH   7   8
ATOM      8  C   LIG d   1      -2.164  76.408 118.126  0.00  0.00     0.119 C 
BRANCH   8   9
ATOM      9  C   LIG d   1      -1.207  75.858 119.201  0.00  0.00     0.028 C 
ATOM     10  C   LIG d   1      -0.049  75.047 118.596  0.00  0.00     0.006 C 
ENDBRANCH   8   9
BRANCH   8  11
ATOM     11  C   LIG d   1      -3.003  77.474 118.837  0.00  0.00     0.028 C 
ATOM     12  C   LIG d   1      -4.479  77.072 118.980  0.00  0.00     0.006 C 
ENDBRANCH   8  11
ENDBRANCH   7   8
ENDBRANCH   1   7
BRANCH   6  13
ATOM     13  N   LIG d   1      -5.265  74.037 116.160  0.00  0.00    -0.311 N 
ATOM     14  C   LIG d   1      -6.529  74.019 116.578  0.00  0.00     0.210 C 
ATOM     15  C   LIG d   1      -7.072  72.632 116.938  0.00  0.00     0.109 C 
ATOM     16  O   LIG d   1      -7.263  75.016 116.655  0.00  0.00    -0.276 OA
ATOM     17  H   LIG d   1      -4.754  73.178 116.097  0.00  0.00     0.149 HD
ENDBRANCH   6  13
BRANCH   5  18
ATOM     18  N   LIG d   1      -6.017  75.840 113.811  0.00  0.00     0.381 N 
ATOM     19  H   LIG d   1      -6.284  76.772 114.060  0.00  0.00    -0.090 HD
ATOM     20  H   LIG d   1      -6.639  75.200 114.273  0.00  0.00    -0.090 HD
ATOM     21  H   LIG d   1      -6.079  75.721 112.824  0.00  0.00    -0.090 HD
ENDBRANCH   5  18
BRANCH   3  22
ATOM     22  C   LIG d   1      -1.494  77.413 113.760  0.00  0.00     0.382 C 
ATOM     23  O   LIG d   1      -1.200  78.593 114.069  0.00  0.00    -0.241 OA
ATOM     24  O   LIG d   1      -0.911  76.866 112.806  0.00  0.00    -0.241 OA
ENDBRANCH   3  22
TORSDOF 7
ENDMDL
MODEL 5
REMARK VINA RESULT:      -5.0     12.732     14.876
REMARK  7 active torsions:
REMARK  status: ('A' for Active; 'I' for Inactive)
REMARK    1  A    between atoms: C_2  and  C_3 
REMARK    2  A    between atoms: C_3  and  O_6 
REMARK    3  A    between atoms: C_3  and  C_4 
REMARK    4  A    between atoms: C_7  and  O_6 
REMARK    5  A    between atoms: C_9  and  C_10 
REMARK    6  A    between atoms: N_15  and  C_14 
REMARK    7  A    between atoms: N_20  and  C_19 
REMARK       I    between atoms: C_22  and  N_20 
ROOT
ATOM      1  C   LIG d   1       1.136  88.076 115.809  0.00  0.00     0.161 C 
ATOM      2  C   LIG d   1      -0.084  87.948 116.494  0.00  0.00     0.016 C 
ATOM      3  C   LIG d   1      -0.741  89.031 117.122  0.00  0.00     0.038 C 
ATOM      4  C   LIG d   1      -0.296  90.353 116.977  0.00  0.00     0.028 C 
ATOM      5  C   LIG d   1       1.203  90.463 116.719  0.00  0.00    -0.047 C 
ATOM      6  C   LIG d   1       1.580  89.530 115.545  0.00  0.00     0.091 C 
ENDROOT
BRANCH   1   7
ATOM      7  O   LIG d   1       1.082  87.337 114.573  0.00  0.00    -0.368 OA
BRANCH   7   8
ATOM      8  C   LIG d   1       1.478  85.945 114.644  0.00  0.00     0.119 C 
BRANCH   8   9
ATOM      9  C   LIG d   1       3.018  85.902 114.648  0.00  0.00     0.028 C 
ATOM     10  C   LIG d   1       3.616  86.171 113.257  0.00  0.00     0.006 C 
ENDBRANCH   8   9
BRANCH   8  11
ATOM     11  C   LIG d   1       1.054  85.179 113.388  0.00  0.00     0.028 C 
ATOM     12  C   LIG d   1      -0.277  85.681 112.805  0.00  0.00     0.006 C 
ENDBRANCH   8  11
ENDBRANCH   7   8
ENDBRANCH   1   7
BRANCH   6  13
ATOM     13  N   LIG d   1       3.042  89.513 115.281  0.00  0.00    -0.311 N 
ATOM     14  C   LIG d   1       3.574  89.755 114.084  0.00  0.00     0.210 C 
ATOM     15  C   LIG d   1       5.102  89.667 114.026  0.00  0.00     0.109 C 
ATOM     16  O   LIG d   1       2.927  90.065 113.073  0.00  0.00    -0.276 OA
ATOM     17  H   LIG d   1       3.642  89.301 116.054  0.00  0.00     0.149 HD
ENDBRANCH   6  13
BRANCH   5  18
ATOM     18  N   LIG d   1       1.506  91.881 116.451  0.00  0.00     0.381 N 
ATOM     19  H   LIG d   1       1.473  92.402 117.305  0.00  0.00    -0.090 HD
ATOM     20  H   LIG d   1       0.809  92.251 115.829  0.00  0.00    -0.090 HD
ATOM     21  H   LIG d   1       2.409  91.965 116.037  0.00  0.00    -0.090 HD
ENDBRANCH   5  18
BRANCH   3  22
ATOM     22  C   LIG d   1      -1.835  88.790 117.939  0.00  0.00     0.382 C 
ATOM     23  O   LIG d   1      -1.672  88.266 119.068  0.00  0.00    -0.241 OA
ATOM     24  O   LIG d   1      -2.988  89.048 117.544  0.00  0.00    -0.241 OA
ENDBRANCH   3  22
TORSDOF 7
ENDMDL
MODEL 6
REMARK VINA RESULT:      -4.9     13.184     16.077
REMARK  7 active torsions:
REMARK  status: ('A' for Active; 'I' for Inactive)
REMARK    1  A    between atoms: C_2  and  C_3 
REMARK    2  A    between atoms: C_3  and  O_6 
REMARK    3  A    between atoms: C_3  and  C_4 
REMARK    4  A    between atoms: C_7  and  O_6 
REMARK    5  A    between atoms: C_9  and  C_10 
REMARK    6  A    between atoms: N_15  and  C_14 
REMARK    7  A    between atoms: N_20  and  C_19 
REMARK       I    between atoms: C_22  and  N_20 
ROOT
ATOM      1  C   LIG d   1      -2.262  90.557 117.662  0.00  0.00     0.161 C 
ATOM      2  C   LIG d   1      -3.509  90.158 117.151  0.00  0.00     0.016 C 
ATOM      3  C   LIG d   1      -4.589  91.048 116.951  0.00  0.00     0.038 C 
ATOM      4  C   LIG d   1      -4.446  92.435 117.109  0.00  0.00     0.028 C 
ATOM      5  C   LIG d   1      -3.358  92.822 118.105  0.00  0.00    -0.047 C 
ATOM      6  C   LIG d   1      -2.052  92.084 117.735  0.00  0.00     0.091 C 
ENDROOT
BRANCH   1   7
ATOM      7  O   LIG d   1      -1.203  89.941 116.903  0.00  0.00    -0.368 OA
BRANCH   7   8
ATOM      8  C   LIG d   1      -0.272  89.124 117.655  0.00  0.00     0.119 C 
BRANCH   8   9
ATOM      9  C   LIG d   1       1.147  89.469 117.165  0.00  0.00     0.028 C 
ATOM     10  C   LIG d   1       1.135  90.370 115.919  0.00  0.00     0.006 C 
ENDBRANCH   8   9
BRANCH   8  11
ATOM     11  C   LIG d   1      -0.459  87.636 117.343  0.00  0.00     0.028 C 
ATOM     12  C   LIG d   1      -1.254  86.894 118.429  0.00  0.00     0.006 C 
ENDBRANCH   8  11
ENDBRANCH   7   8
ENDBRANCH   1   7
BRANCH   6  13
ATOM     13  N   LIG d   1      -0.959  92.341 118.709  0.00  0.00    -0.311 N 
ATOM     14  C   LIG d   1       0.144  93.025 118.410  0.00  0.00     0.210 C 
ATOM     15  C   LIG d   1       1.153  93.158 119.555  0.00  0.00     0.109 C 
ATOM     16  O   LIG d   1       0.368  93.562 117.315  0.00  0.00    -0.276 OA
ATOM     17  H   LIG d   1      -1.073  91.968 119.631  0.00  0.00     0.149 HD
ENDBRANCH   6  13
BRANCH   5  18
ATOM     18  N   LIG d   1      -3.223  94.291 118.069  0.00  0.00     0.381 N 
ATOM     19  H   LIG d   1      -4.078  94.702 117.751  0.00  0.00    -0.090 HD
ATOM     20  H   LIG d   1      -2.495  94.534 117.420  0.00  0.00    -0.090 HD
ATOM     21  H   LIG d   1      -2.998  94.635 118.976  0.00  0.00    -0.090 HD
ENDBRANCH   5  18
BRANCH   3  22
ATOM     22  C   LIG d   1      -5.841  90.548 116.628  0.00  0.00     0.382 C 
ATOM     23  O   LIG d   1      -5.943  89.437 116.053  0.00  0.00    -0.241 OA
ATOM     24  O   LIG d   1      -6.867  91.213 116.863  0.00  0.00    -0.241 OA
ENDBRANCH   3  22
TORSDOF 7
ENDMDL
MODEL 7
REMARK VINA RESULT:      -4.8     13.040     15.042
REMARK  7 active torsions:
REMARK  status: ('A' for Active; 'I' for Inactive)
REMARK    1  A    between atoms: C_2  and  C_3 
REMARK    2  A    between atoms: C_3  and  O_6 
REMARK    3  A    between atoms: C_3  and  C_4 
REMARK    4  A    between atoms: C_7  and  O_6 
REMARK    5  A    between atoms: C_9  and  C_10 
REMARK    6  A    between atoms: N_15  and  C_14 
REMARK    7  A    between atoms: N_20  and  C_19 
REMARK       I    between atoms: C_22  and  N_20 
ROOT
ATOM      1  C   LIG d   1       3.617  87.022 115.603  0.00  0.00     0.161 C 
ATOM      2  C   LIG d   1       3.769  85.636 115.431  0.00  0.00     0.016 C 
ATOM      3  C   LIG d   1       2.687  84.760 115.183  0.00  0.00     0.038 C 
ATOM      4  C   LIG d   1       1.390  85.234 114.939  0.00  0.00     0.028 C 
ATOM      5  C   LIG d   1       1.101  86.577 115.601  0.00  0.00    -0.047 C 
ATOM      6  C   LIG d   1       2.224  87.572 115.229  0.00  0.00     0.091 C 
ENDROOT
BRANCH   1   7
ATOM      7  O   LIG d   1       4.644  87.720 114.871  0.00  0.00    -0.368 OA
BRANCH   7   8
ATOM      8  C   LIG d   1       5.805  88.129 115.635  0.00  0.00     0.119 C 
BRANCH   8   9
ATOM      9  C   LIG d   1       5.309  88.596 117.017  0.00  0.00     0.028 C 
ATOM     10  C   LIG d   1       5.490  90.109 117.224  0.00  0.00     0.006 C 
ENDBRANCH   8   9
BRANCH   8  11
ATOM     11  C   LIG d   1       6.480  89.354 115.011  0.00  0.00     0.028 C 
ATOM     12  C   LIG d   1       6.297  89.423 113.486  0.00  0.00     0.006 C 
ENDBRANCH   8  11
ENDBRANCH   7   8
ENDBRANCH   1   7
BRANCH   6  13
ATOM     13  N   LIG d   1       2.064  88.886 115.904  0.00  0.00    -0.311 N 
ATOM     14  C   LIG d   1       2.246  90.053 115.288  0.00  0.00     0.210 C 
ATOM     15  C   LIG d   1       2.050  91.288 116.173  0.00  0.00     0.109 C 
ATOM     16  O   LIG d   1       2.521  90.183 114.086  0.00  0.00    -0.276 OA
ATOM     17  H   LIG d   1       1.812  88.874 116.873  0.00  0.00     0.149 HD
ENDBRANCH   6  13
BRANCH   5  18
ATOM     18  N   LIG d   1      -0.233  87.018 115.152  0.00  0.00     0.381 N 
ATOM     19  H   LIG d   1      -0.308  88.012 115.237  0.00  0.00    -0.090 HD
ATOM     20  H   LIG d   1      -0.930  86.598 115.741  0.00  0.00    -0.090 HD
ATOM     21  H   LIG d   1      -0.381  86.746 114.205  0.00  0.00    -0.090 HD
ENDBRANCH   5  18
BRANCH   3  22
ATOM     22  C   LIG d   1       2.891  83.389 115.217  0.00  0.00     0.382 C 
ATOM     23  O   LIG d   1       1.922  82.607 115.067  0.00  0.00    -0.241 OA
ATOM     24  O   LIG d   1       4.025  82.925 115.441  0.00  0.00    -0.241 OA
ENDBRANCH   3  22
TORSDOF 7
ENDMDL
MODEL 8
REMARK VINA RESULT:      -4.5     13.182     15.110
REMARK  7 active torsions:
REMARK  status: ('A' for Active; 'I' for Inactive)
REMARK    1  A    between atoms: C_2  and  C_3 
REMARK    2  A    between atoms: C_3  and  O_6 
REMARK    3  A    between atoms: C_3  and  C_4 
REMARK    4  A    between atoms: C_7  and  O_6 
REMARK    5  A    between atoms: C_9  and  C_10 
REMARK    6  A    between atoms: N_15  and  C_14 
REMARK    7  A    between atoms: N_20  and  C_19 
REMARK       I    between atoms: C_22  and  N_20 
ROOT
ATOM      1  C   LIG d   1       3.456  87.586 115.985  0.00  0.00     0.161 C 
ATOM      2  C   LIG d   1       4.073  86.425 115.492  0.00  0.00     0.016 C 
ATOM      3  C   LIG d   1       3.382  85.420 114.777  0.00  0.00     0.038 C 
ATOM      4  C   LIG d   1       2.049  85.582 114.372  0.00  0.00     0.028 C 
ATOM      5  C   LIG d   1       1.249  86.510 115.280  0.00  0.00    -0.047 C 
ATOM      6  C   LIG d   1       2.028  87.833 115.457  0.00  0.00     0.091 C 
ENDROOT
BRANCH   1   7
ATOM      7  O   LIG d   1       4.292  88.732 115.724  0.00  0.00    -0.368 OA
BRANCH   7   8
ATOM      8  C   LIG d   1       5.500  88.480 114.964  0.00  0.00     0.119 C 
BRANCH   8   9
ATOM      9  C   LIG d   1       6.689  88.975 115.809  0.00  0.00     0.028 C 
ATOM     10  C   LIG d   1       7.420  87.826 116.524  0.00  0.00     0.006 C 
ENDBRANCH   8   9
BRANCH   8  11
ATOM     11  C   LIG d   1       5.536  89.316 113.682  0.00  0.00     0.028 C 
ATOM     12  C   LIG d   1       4.150  89.836 113.270  0.00  0.00     0.006 C 
ENDBRANCH   8  11
ENDBRANCH   7   8
ENDBRANCH   1   7
BRANCH   6  13
ATOM     13  N   LIG d   1       1.355  88.765 116.400  0.00  0.00    -0.311 N 
ATOM     14  C   LIG d   1       1.039  90.021 116.088  0.00  0.00     0.210 C 
ATOM     15  C   LIG d   1       0.369  90.817 117.213  0.00  0.00     0.109 C 
ATOM     16  O   LIG d   1       1.222  90.542 114.978  0.00  0.00    -0.276 OA
ATOM     17  H   LIG d   1       1.142  88.415 117.313  0.00  0.00     0.149 HD
ENDBRANCH   6  13
BRANCH   5  18
ATOM     18  N   LIG d   1      -0.079  86.698 114.667  0.00  0.00     0.381 N 
ATOM     19  H   LIG d   1      -0.210  87.661 114.430  0.00  0.00    -0.090 HD
ATOM     20  H   LIG d   1      -0.785  86.439 115.334  0.00  0.00    -0.090 HD
ATOM     21  H   LIG d   1      -0.161  86.134 113.850  0.00  0.00    -0.090 HD
ENDBRANCH   5  18
BRANCH   3  22
ATOM     22  C   LIG d   1       4.015  84.219 114.493  0.00  0.00     0.382 C 
ATOM     23  O   LIG d   1       4.847  83.743 115.302  0.00  0.00    -0.241 OA
ATOM     24  O   LIG d   1       3.797  83.629 113.418  0.00  0.00    -0.241 OA
ENDBRANCH   3  22
TORSDOF 7
ENDMDL
MODEL 9
REMARK VINA RESULT:      -4.5     14.088     16.368
REMARK  7 active torsions:
REMARK  status: ('A' for Active; 'I' for Inactive)
REMARK    1  A    between atoms: C_2  and  C_3 
REMARK    2  A    between atoms: C_3  and  O_6 
REMARK    3  A    between atoms: C_3  and  C_4 
REMARK    4  A    between atoms: C_7  and  O_6 
REMARK    5  A    between atoms: C_9  and  C_10 
REMARK    6  A    between atoms: N_15  and  C_14 
REMARK    7  A    between atoms: N_20  and  C_19 
REMARK       I    between atoms: C_22  and  N_20 
ROOT
ATOM      1  C   LIG d   1       2.958  89.280 114.933  0.00  0.00     0.161 C 
ATOM      2  C   LIG d   1       2.994  90.561 115.509  0.00  0.00     0.016 C 
ATOM      3  C   LIG d   1       2.077  90.998 116.492  0.00  0.00     0.038 C 
ATOM      4  C   LIG d   1       1.148  90.126 117.080  0.00  0.00     0.028 C 
ATOM      5  C   LIG d   1       0.745  88.969 116.172  0.00  0.00    -0.047 C 
ATOM      6  C   LIG d   1       2.022  88.278 115.642  0.00  0.00     0.091 C 
ENDROOT
BRANCH   1   7
ATOM      7  O   LIG d   1       4.294  88.744 114.849  0.00  0.00    -0.368 OA
BRANCH   7   8
ATOM      8  C   LIG d   1       5.240  89.234 115.832  0.00  0.00     0.119 C 
BRANCH   8   9
ATOM      9  C   LIG d   1       6.550  89.560 115.090  0.00  0.00     0.028 C 
ATOM     10  C   LIG d   1       6.397  89.475 113.562  0.00  0.00     0.006 C 
ENDBRANCH   8   9
BRANCH   8  11
ATOM     11  C   LIG d   1       5.606  88.145 116.844  0.00  0.00     0.028 C 
ATOM     12  C   LIG d   1       5.379  86.725 116.300  0.00  0.00     0.006 C 
ENDBRANCH   8  11
ENDBRANCH   7   8
ENDBRANCH   1   7
BRANCH   6  13
ATOM     13  N   LIG d   1       1.719  87.187 114.679  0.00  0.00    -0.311 N 
ATOM     14  C   LIG d   1       1.598  85.909 115.034  0.00  0.00     0.210 C 
ATOM     15  C   LIG d   1       1.303  84.944 113.882  0.00  0.00     0.109 C 
ATOM     16  O   LIG d   1       1.675  85.488 116.198  0.00  0.00    -0.276 OA
ATOM     17  H   LIG d   1       1.609  87.445 113.718  0.00  0.00     0.149 HD
ENDBRANCH   6  13
BRANCH   5  18
ATOM     18  N   LIG d   1      -0.117  88.065 116.958  0.00  0.00     0.381 N 
ATOM     19  H   LIG d   1      -0.832  87.685 116.371  0.00  0.00    -0.090 HD
ATOM     20  H   LIG d   1      -0.557  88.593 117.691  0.00  0.00    -0.090 HD
ATOM     21  H   LIG d   1       0.428  87.329 117.350  0.00  0.00    -0.090 HD
ENDBRANCH   5  18
BRANCH   3  22
ATOM     22  C   LIG d   1       2.057  92.332 116.868  0.00  0.00     0.382 C 
ATOM     23  O   LIG d   1       1.001  92.842 117.314  0.00  0.00    -0.241 OA
ATOM     24  O   LIG d   1       3.069  93.044 116.725  0.00  0.00    -0.241 OA
ENDBRANCH   3  22
TORSDOF 7
ENDMDL
