MODEL 1
REMARK VINA RESULT:      -5.6      0.000      0.000
REMARK  7 active torsions:
REMARK  status: ('A' for Active; 'I' for Inactive)
REMARK    1  A    between atoms: C_2  and  C_3 
REMARK    2  A    between atoms: C_3  and  O_6 
REMARK    3  A    between atoms: C_3  and  C_4 
REMARK    4  A    between atoms: C_7  and  O_6 
REMARK    5  A    between atoms: C_9  and  C_10 
REMARK    6  A    between atoms: N_15  and  C_14 
REMARK    7  A    between atoms: N_20  and  C_19 
REMARK       I    between atoms: C_22  and  N_20 
ROOT
ATOM      1  C   LIG d   1      -6.465  77.737 117.190  0.00  0.00     0.161 C 
ATOM      2  C   LIG d   1      -7.823  77.654 117.540  0.00  0.00     0.016 C 
ATOM      3  C   LIG d   1      -8.572  78.755 118.017  0.00  0.00     0.038 C 
ATOM      4  C   LIG d   1      -8.050  80.057 118.031  0.00  0.00     0.028 C 
ATOM      5  C   LIG d   1      -6.531  80.098 118.164  0.00  0.00    -0.047 C 
ATOM      6  C   LIG d   1      -5.908  79.173 117.093  0.00  0.00     0.091 C 
ENDROOT
BRANCH   1   7
ATOM      7  O   LIG d   1      -6.235  77.027 115.957  0.00  0.00    -0.368 OA
BRANCH   7   8
ATOM      8  C   LIG d   1      -5.506  75.780 116.066  0.00  0.00     0.119 C 
BRANCH   8   9
ATOM      9  C   LIG d   1      -4.388  75.802 115.006  0.00  0.00     0.028 C 
ATOM     10  C   LIG d   1      -2.984  75.746 115.632  0.00  0.00     0.006 C 
ENDBRANCH   8   9
BRANCH   8  11
ATOM     11  C   LIG d   1      -6.390  74.584 115.698  0.00  0.00     0.028 C 
ATOM     12  C   LIG d   1      -5.956  73.903 114.391  0.00  0.00     0.006 C 
ENDBRANCH   8  11
ENDBRANCH   7   8
ENDBRANCH   1   7
BRANCH   6  13
ATOM     13  N   LIG d   1      -4.429  79.090 117.207  0.00  0.00    -0.311 N 
ATOM     14  C   LIG d   1      -3.598  79.434 116.225  0.00  0.00     0.210 C 
ATOM     15  C   LIG d   1      -2.110  79.253 116.543  0.00  0.00     0.109 C 
ATOM     16  O   LIG d   1      -3.950  79.903 115.132  0.00  0.00    -0.276 OA
ATOM     17  H   LIG d   1      -4.056  78.750 118.072  0.00  0.00     0.149 HD
ENDBRANCH   6  13
BRANCH   5  18
ATOM     18  N   LIG d   1      -6.110  81.506 118.027  0.00  0.00     0.381 N 
ATOM     19  H   LIG d   1      -5.899  81.885 118.928  0.00  0.00    -0.090 HD
ATOM     20  H   LIG d   1      -6.868  82.034 117.631  0.00  0.00    -0.090 HD
ATOM     21  H   LIG d   1      -5.310  81.566 117.437  0.00  0.00    -0.090 HD
ENDBRANCH   5  18
BRANCH   3  22
ATOM     22  C   LIG d   1      -9.847  78.551 118.523  0.00  0.00     0.382 C 
ATOM     23  O   LIG d   1     -10.269  79.264 119.465  0.00  0.00    -0.241 OA
ATOM     24  O   LIG d   1     -10.564  77.634 118.078  0.00  0.00    -0.241 OA
ENDBRANCH   3  22
TORSDOF 7
ENDMDL
MODEL 2
REMARK VINA RESULT:      -5.2     12.719     14.663
REMARK  7 active torsions:
REMARK  status: ('A' for Active; 'I' for Inactive)
REMARK    1  A    between atoms: C_2  and  C_3 
REMARK    2  A    between atoms: C_3  and  O_6 
REMARK    3  A    between atoms: C_3  and  C_4 
REMARK    4  A    between atoms: C_7  and  O_6 
REMARK    5  A    between atoms: C_9  and  C_10 
REMARK    6  A    between atoms: N_15  and  C_14 
REMARK    7  A    between atoms: N_20  and  C_19 
REMARK       I    between atoms: C_22  and  N_20 
ROOT
ATOM      1  C   LIG d   1      -6.289  92.035 117.461  0.00  0.00     0.161 C 
ATOM      2  C   LIG d   1      -7.285  93.023 117.386  0.00  0.00     0.016 C 
ATOM      3  C   LIG d   1      -7.159  94.301 117.978  0.00  0.00     0.038 C 
ATOM      4  C   LIG d   1      -5.958  94.734 118.560  0.00  0.00     0.028 C 
ATOM      5  C   LIG d   1      -5.103  93.594 119.102  0.00  0.00    -0.047 C 
ATOM      6  C   LIG d   1      -4.928  92.528 117.997  0.00  0.00     0.091 C 
ENDROOT
BRANCH   1   7
ATOM      7  O   LIG d   1      -6.124  91.409 116.174  0.00  0.00    -0.368 OA
BRANCH   7   8
ATOM      8  C   LIG d   1      -6.944  90.241 115.923  0.00  0.00     0.119 C 
BRANCH   8   9
ATOM      9  C   LIG d   1      -7.380  90.290 114.446  0.00  0.00     0.028 C 
ATOM     10  C   LIG d   1      -7.311  91.710 113.860  0.00  0.00     0.006 C 
ENDBRANCH   8   9
BRANCH   8  11
ATOM     11  C   LIG d   1      -8.243  90.288 116.732  0.00  0.00     0.028 C 
ATOM     12  C   LIG d   1      -9.133  89.056 116.502  0.00  0.00     0.006 C 
ENDBRANCH   8  11
ENDBRANCH   7   8
ENDBRANCH   1   7
BRANCH   6  13
ATOM     13  N   LIG d   1      -4.174  91.338 118.470  0.00  0.00    -0.311 N 
ATOM     14  C   LIG d   1      -2.844  91.284 118.519  0.00  0.00     0.210 C 
ATOM     15  C   LIG d   1      -2.268  89.956 119.020  0.00  0.00     0.109 C 
ATOM     16  O   LIG d   1      -2.088  92.222 118.225  0.00  0.00    -0.276 OA
ATOM     17  H   LIG d   1      -4.710  90.543 118.758  0.00  0.00     0.149 HD
ENDBRANCH   6  13
BRANCH   5  18
ATOM     18  N   LIG d   1      -3.824  94.172 119.555  0.00  0.00     0.381 N 
ATOM     19  H   LIG d   1      -3.998  94.981 120.117  0.00  0.00    -0.090 HD
ATOM     20  H   LIG d   1      -3.292  94.455 118.750  0.00  0.00    -0.090 HD
ATOM     21  H   LIG d   1      -3.311  93.498 120.080  0.00  0.00    -0.090 HD
ENDBRANCH   5  18
BRANCH   3  22
ATOM     22  C   LIG d   1      -8.256  95.148 118.026  0.00  0.00     0.382 C 
ATOM     23  O   LIG d   1      -8.111  96.343 118.377  0.00  0.00    -0.241 OA
ATOM     24  O   LIG d   1      -9.397  94.719 117.766  0.00  0.00    -0.241 OA
ENDBRANCH   3  22
TORSDOF 7
ENDMDL
MODEL 3
REMARK VINA RESULT:      -5.1      3.585      6.023
REMARK  7 active torsions:
REMARK  status: ('A' for Active; 'I' for Inactive)
REMARK    1  A    between atoms: C_2  and  C_3 
REMARK    2  A    between atoms: C_3  and  O_6 
REMARK    3  A    between atoms: C_3  and  C_4 
REMARK    4  A    between atoms: C_7  and  O_6 
REMARK    5  A    between atoms: C_9  and  C_10 
REMARK    6  A    between atoms: N_15  and  C_14 
REMARK    7  A    between atoms: N_20  and  C_19 
REMARK       I    between atoms: C_22  and  N_20 
ROOT
ATOM      1  C   LIG d   1      -2.267  76.224 114.841  0.00  0.00     0.161 C 
ATOM      2  C   LIG d   1      -1.779  75.190 115.657  0.00  0.00     0.016 C 
ATOM      3  C   LIG d   1      -1.131  75.415 116.894  0.00  0.00     0.038 C 
ATOM      4  C   LIG d   1      -1.061  76.690 117.473  0.00  0.00     0.028 C 
ATOM      5  C   LIG d   1      -1.092  77.822 116.452  0.00  0.00    -0.047 C 
ATOM      6  C   LIG d   1      -2.299  77.615 115.509  0.00  0.00     0.091 C 
ENDROOT
BRANCH   1   7
ATOM      7  O   LIG d   1      -3.575  75.877 114.343  0.00  0.00    -0.368 OA
BRANCH   7   8
ATOM      8  C   LIG d   1      -4.503  75.333 115.313  0.00  0.00     0.119 C 
BRANCH   8   9
ATOM      9  C   LIG d   1      -5.163  74.094 114.678  0.00  0.00     0.028 C 
ATOM     10  C   LIG d   1      -6.092  73.357 115.657  0.00  0.00     0.006 C 
ENDBRANCH   8   9
BRANCH   8  11
ATOM     11  C   LIG d   1      -5.652  76.307 115.592  0.00  0.00     0.028 C 
ATOM     12  C   LIG d   1      -5.488  77.057 116.923  0.00  0.00     0.006 C 
ENDBRANCH   8  11
ENDBRANCH   7   8
ENDBRANCH   1   7
BRANCH   6  13
ATOM     13  N   LIG d   1      -2.355  78.632 114.427  0.00  0.00    -0.311 N 
ATOM     14  C   LIG d   1      -3.154  79.697 114.462  0.00  0.00     0.210 C 
ATOM     15  C   LIG d   1      -3.069  80.610 113.235  0.00  0.00     0.109 C 
ATOM     16  O   LIG d   1      -3.901  79.989 115.408  0.00  0.00    -0.276 OA
ATOM     17  H   LIG d   1      -1.758  78.489 113.636  0.00  0.00     0.149 HD
ENDBRANCH   6  13
BRANCH   5  18
ATOM     18  N   LIG d   1      -1.152  79.093 117.197  0.00  0.00     0.381 N 
ATOM     19  H   LIG d   1      -1.249  78.908 118.175  0.00  0.00    -0.090 HD
ATOM     20  H   LIG d   1      -1.957  79.611 116.892  0.00  0.00    -0.090 HD
ATOM     21  H   LIG d   1      -0.325  79.624 117.033  0.00  0.00    -0.090 HD
ENDBRANCH   5  18
BRANCH   3  22
ATOM     22  C   LIG d   1      -0.509  74.360 117.545  0.00  0.00     0.382 C 
ATOM     23  O   LIG d   1       0.224  74.582 118.538  0.00  0.00    -0.241 OA
ATOM     24  O   LIG d   1      -0.636  73.195 117.125  0.00  0.00    -0.241 OA
ENDBRANCH   3  22
TORSDOF 7
ENDMDL
MODEL 4
REMARK VINA RESULT:      -5.1      2.605      5.647
REMARK  7 active torsions:
REMARK  status: ('A' for Active; 'I' for Inactive)
REMARK    1  A    between atoms: C_2  and  C_3 
REMARK    2  A    between atoms: C_3  and  O_6 
REMARK    3  A    between atoms: C_3  and  C_4 
REMARK    4  A    between atoms: C_7  and  O_6 
REMARK    5  A    between atoms: C_9  and  C_10 
REMARK    6  A    between atoms: N_15  and  C_14 
REMARK    7  A    between atoms: N_20  and  C_19 
REMARK       I    between atoms: C_22  and  N_20 
ROOT
ATOM      1  C   LIG d   1      -3.765  77.106 115.236  0.00  0.00     0.161 C 
ATOM      2  C   LIG d   1      -3.003  75.935 115.100  0.00  0.00     0.016 C 
ATOM      3  C   LIG d   1      -2.036  75.522 116.045  0.00  0.00     0.038 C 
ATOM      4  C   LIG d   1      -1.872  76.179 117.274  0.00  0.00     0.028 C 
ATOM      5  C   LIG d   1      -2.263  77.652 117.229  0.00  0.00    -0.047 C 
ATOM      6  C   LIG d   1      -3.680  77.777 116.623  0.00  0.00     0.091 C 
ENDROOT
BRANCH   1   7
ATOM      7  O   LIG d   1      -5.139  76.837 114.893  0.00  0.00    -0.368 OA
BRANCH   7   8
ATOM      8  C   LIG d   1      -5.794  75.794 115.656  0.00  0.00     0.119 C 
BRANCH   8   9
ATOM      9  C   LIG d   1      -6.013  74.598 114.709  0.00  0.00     0.028 C 
ATOM     10  C   LIG d   1      -6.109  73.261 115.465  0.00  0.00     0.006 C 
ENDBRANCH   8   9
BRANCH   8  11
ATOM     11  C   LIG d   1      -7.195  76.223 116.099  0.00  0.00     0.028 C 
ATOM     12  C   LIG d   1      -7.178  77.108 117.356  0.00  0.00     0.006 C 
ENDBRANCH   8  11
ENDBRANCH   7   8
ENDBRANCH   1   7
BRANCH   6  13
ATOM     13  N   LIG d   1      -4.106  79.192 116.465  0.00  0.00    -0.311 N 
ATOM     14  C   LIG d   1      -4.720  79.883 117.424  0.00  0.00     0.210 C 
ATOM     15  C   LIG d   1      -5.092  81.321 117.047  0.00  0.00     0.109 C 
ATOM     16  O   LIG d   1      -4.964  79.453 118.561  0.00  0.00    -0.276 OA
ATOM     17  H   LIG d   1      -3.920  79.629 115.584  0.00  0.00     0.149 HD
ENDBRANCH   6  13
BRANCH   5  18
ATOM     18  N   LIG d   1      -2.175  78.178 118.605  0.00  0.00     0.381 N 
ATOM     19  H   LIG d   1      -2.066  79.172 118.581  0.00  0.00    -0.090 HD
ATOM     20  H   LIG d   1      -1.367  77.783 119.053  0.00  0.00    -0.090 HD
ATOM     21  H   LIG d   1      -2.997  77.939 119.115  0.00  0.00    -0.090 HD
ENDBRANCH   5  18
BRANCH   3  22
ATOM     22  C   LIG d   1      -1.192  74.463 115.747  0.00  0.00     0.382 C 
ATOM     23  O   LIG d   1      -0.909  73.618 116.631  0.00  0.00    -0.241 OA
ATOM     24  O   LIG d   1      -0.674  74.365 114.618  0.00  0.00    -0.241 OA
ENDBRANCH   3  22
TORSDOF 7
ENDMDL
MODEL 5
REMARK VINA RESULT:      -5.1      2.263      4.751
REMARK  7 active torsions:
REMARK  status: ('A' for Active; 'I' for Inactive)
REMARK    1  A    between atoms: C_2  and  C_3 
REMARK    2  A    between atoms: C_3  and  O_6 
REMARK    3  A    between atoms: C_3  and  C_4 
REMARK    4  A    between atoms: C_7  and  O_6 
REMARK    5  A    between atoms: C_9  and  C_10 
REMARK    6  A    between atoms: N_15  and  C_14 
REMARK    7  A    between atoms: N_20  and  C_19 
REMARK       I    between atoms: C_22  and  N_20 
ROOT
ATOM      1  C   LIG d   1      -4.490  77.373 116.077  0.00  0.00     0.161 C 
ATOM      2  C   LIG d   1      -4.659  76.112 115.480  0.00  0.00     0.016 C 
ATOM      3  C   LIG d   1      -5.857  75.367 115.562  0.00  0.00     0.038 C 
ATOM      4  C   LIG d   1      -7.026  75.902 116.123  0.00  0.00     0.028 C 
ATOM      5  C   LIG d   1      -6.758  76.967 117.182  0.00  0.00    -0.047 C 
ATOM      6  C   LIG d   1      -5.789  78.021 116.599  0.00  0.00     0.091 C 
ENDROOT
BRANCH   1   7
ATOM      7  O   LIG d   1      -3.819  78.261 115.162  0.00  0.00    -0.368 OA
BRANCH   7   8
ATOM      8  C   LIG d   1      -2.378  78.339 115.290  0.00  0.00     0.119 C 
BRANCH   8   9
ATOM      9  C   LIG d   1      -2.004  79.829 115.418  0.00  0.00     0.028 C 
ATOM     10  C   LIG d   1      -3.209  80.757 115.192  0.00  0.00     0.006 C 
ENDBRANCH   8   9
BRANCH   8  11
ATOM     11  C   LIG d   1      -1.678  77.854 114.017  0.00  0.00     0.028 C 
ATOM     12  C   LIG d   1      -2.622  77.791 112.805  0.00  0.00     0.006 C 
ENDBRANCH   8  11
ENDBRANCH   7   8
ENDBRANCH   1   7
BRANCH   6  13
ATOM     13  N   LIG d   1      -5.408  79.054 117.597  0.00  0.00    -0.311 N 
ATOM     14  C   LIG d   1      -5.999  80.244 117.683  0.00  0.00     0.210 C 
ATOM     15  C   LIG d   1      -5.439  81.167 118.769  0.00  0.00     0.109 C 
ATOM     16  O   LIG d   1      -6.955  80.611 116.983  0.00  0.00    -0.276 OA
ATOM     17  H   LIG d   1      -4.662  78.827 118.225  0.00  0.00     0.149 HD
ENDBRANCH   6  13
BRANCH   5  18
ATOM     18  N   LIG d   1      -8.059  77.535 117.582  0.00  0.00     0.381 N 
ATOM     19  H   LIG d   1      -8.145  77.515 118.578  0.00  0.00    -0.090 HD
ATOM     20  H   LIG d   1      -8.794  76.973 117.190  0.00  0.00    -0.090 HD
ATOM     21  H   LIG d   1      -8.137  78.473 117.254  0.00  0.00    -0.090 HD
ENDBRANCH   5  18
BRANCH   3  22
ATOM     22  C   LIG d   1      -5.882  74.055 115.114  0.00  0.00     0.382 C 
ATOM     23  O   LIG d   1      -6.043  73.116 115.932  0.00  0.00    -0.241 OA
ATOM     24  O   LIG d   1      -5.703  73.795 113.910  0.00  0.00    -0.241 OA
ENDBRANCH   3  22
TORSDOF 7
ENDMDL
MODEL 6
REMARK VINA RESULT:      -4.9      2.129      5.262
REMARK  7 active torsions:
REMARK  status: ('A' for Active; 'I' for Inactive)
REMARK    1  A    between atoms: C_2  and  C_3 
REMARK    2  A    between atoms: C_3  and  O_6 
REMARK    3  A    between atoms: C_3  and  C_4 
REMARK    4  A    between atoms: C_7  and  O_6 
REMARK    5  A    between atoms: C_9  and  C_10 
REMARK    6  A    between atoms: N_15  and  C_14 
REMARK    7  A    between atoms: N_20  and  C_19 
REMARK       I    between atoms: C_22  and  N_20 
ROOT
ATOM      1  C   LIG d   1      -5.767  76.921 116.355  0.00  0.00     0.161 C 
ATOM      2  C   LIG d   1      -6.224  75.655 115.954  0.00  0.00     0.016 C 
ATOM      3  C   LIG d   1      -5.407  74.704 115.299  0.00  0.00     0.038 C 
ATOM      4  C   LIG d   1      -4.028  74.900 115.136  0.00  0.00     0.028 C 
ATOM      5  C   LIG d   1      -3.627  76.370 115.072  0.00  0.00    -0.047 C 
ATOM      6  C   LIG d   1      -4.237  77.109 116.285  0.00  0.00     0.091 C 
ENDROOT
BRANCH   1   7
ATOM      7  O   LIG d   1      -6.248  77.216 117.682  0.00  0.00    -0.368 OA
BRANCH   7   8
ATOM      8  C   LIG d   1      -7.269  78.240 117.776  0.00  0.00     0.119 C 
BRANCH   8   9
ATOM      9  C   LIG d   1      -6.626  79.475 118.438  0.00  0.00     0.028 C 
ATOM     10  C   LIG d   1      -6.803  80.750 117.596  0.00  0.00     0.006 C 
ENDBRANCH   8   9
BRANCH   8  11
ATOM     11  C   LIG d   1      -8.397  77.815 118.721  0.00  0.00     0.028 C 
ATOM     12  C   LIG d   1      -9.786  78.243 118.219  0.00  0.00     0.006 C 
ENDBRANCH   8  11
ENDBRANCH   7   8
ENDBRANCH   1   7
BRANCH   6  13
ATOM     13  N   LIG d   1      -3.964  78.569 116.255  0.00  0.00    -0.311 N 
ATOM     14  C   LIG d   1      -3.204  79.192 117.154  0.00  0.00     0.210 C 
ATOM     15  C   LIG d   1      -3.068  80.704 116.950  0.00  0.00     0.109 C 
ATOM     16  O   LIG d   1      -2.603  78.630 118.082  0.00  0.00    -0.276 OA
ATOM     17  H   LIG d   1      -4.387  79.097 115.516  0.00  0.00     0.149 HD
ENDBRANCH   6  13
BRANCH   5  18
ATOM     18  N   LIG d   1      -2.154  76.429 115.040  0.00  0.00     0.381 N 
ATOM     19  H   LIG d   1      -1.827  76.228 114.116  0.00  0.00    -0.090 HD
ATOM     20  H   LIG d   1      -1.786  75.732 115.663  0.00  0.00    -0.090 HD
ATOM     21  H   LIG d   1      -1.843  77.333 115.320  0.00  0.00    -0.090 HD
ENDBRANCH   5  18
BRANCH   3  22
ATOM     22  C   LIG d   1      -5.978  73.560 114.764  0.00  0.00     0.382 C 
ATOM     23  O   LIG d   1      -5.759  73.249 113.569  0.00  0.00    -0.241 OA
ATOM     24  O   LIG d   1      -6.746  72.858 115.449  0.00  0.00    -0.241 OA
ENDBRANCH   3  22
TORSDOF 7
ENDMDL
MODEL 7
REMARK VINA RESULT:      -4.8     12.456     14.700
REMARK  7 active torsions:
REMARK  status: ('A' for Active; 'I' for Inactive)
REMARK    1  A    between atoms: C_2  and  C_3 
REMARK    2  A    between atoms: C_3  and  O_6 
REMARK    3  A    between atoms: C_3  and  C_4 
REMARK    4  A    between atoms: C_7  and  O_6 
REMARK    5  A    between atoms: C_9  and  C_10 
REMARK    6  A    between atoms: N_15  and  C_14 
REMARK    7  A    between atoms: N_20  and  C_19 
REMARK       I    between atoms: C_22  and  N_20 
ROOT
ATOM      1  C   LIG d   1      -5.009  91.422 117.354  0.00  0.00     0.161 C 
ATOM      2  C   LIG d   1      -3.874  90.622 117.568  0.00  0.00     0.016 C 
ATOM      3  C   LIG d   1      -2.784  91.018 118.376  0.00  0.00     0.038 C 
ATOM      4  C   LIG d   1      -2.822  92.186 119.153  0.00  0.00     0.028 C 
ATOM      5  C   LIG d   1      -3.731  93.266 118.576  0.00  0.00    -0.047 C 
ATOM      6  C   LIG d   1      -5.118  92.651 118.281  0.00  0.00     0.091 C 
ENDROOT
BRANCH   1   7
ATOM      7  O   LIG d   1      -6.200  90.616 117.449  0.00  0.00    -0.368 OA
BRANCH   7   8
ATOM      8  C   LIG d   1      -6.814  90.235 116.193  0.00  0.00     0.119 C 
BRANCH   8   9
ATOM      9  C   LIG d   1      -6.298  91.206 115.113  0.00  0.00     0.028 C 
ATOM     10  C   LIG d   1      -7.441  91.915 114.367  0.00  0.00     0.006 C 
ENDBRANCH   8   9
BRANCH   8  11
ATOM     11  C   LIG d   1      -8.331  90.439 116.230  0.00  0.00     0.028 C 
ATOM     12  C   LIG d   1      -9.109  89.114 116.286  0.00  0.00     0.006 C 
ENDBRANCH   8  11
ENDBRANCH   7   8
ENDBRANCH   1   7
BRANCH   6  13
ATOM     13  N   LIG d   1      -6.042  93.620 117.637  0.00  0.00    -0.311 N 
ATOM     14  C   LIG d   1      -6.892  94.386 118.318  0.00  0.00     0.210 C 
ATOM     15  C   LIG d   1      -7.770  95.301 117.458  0.00  0.00     0.109 C 
ATOM     16  O   LIG d   1      -6.980  94.419 119.555  0.00  0.00    -0.276 OA
ATOM     17  H   LIG d   1      -6.016  93.681 116.638  0.00  0.00     0.149 HD
ENDBRANCH   6  13
BRANCH   5  18
ATOM     18  N   LIG d   1      -3.785  94.371 119.553  0.00  0.00     0.381 N 
ATOM     19  H   LIG d   1      -4.687  94.397 119.985  0.00  0.00    -0.090 HD
ATOM     20  H   LIG d   1      -3.641  95.240 119.069  0.00  0.00    -0.090 HD
ATOM     21  H   LIG d   1      -3.080  94.248 120.246  0.00  0.00    -0.090 HD
ENDBRANCH   5  18
BRANCH   3  22
ATOM     22  C   LIG d   1      -1.623  90.260 118.383  0.00  0.00     0.382 C 
ATOM     23  O   LIG d   1      -0.733  90.470 117.523  0.00  0.00    -0.241 OA
ATOM     24  O   LIG d   1      -1.472  89.341 119.210  0.00  0.00    -0.241 OA
ENDBRANCH   3  22
TORSDOF 7
ENDMDL
MODEL 8
REMARK VINA RESULT:      -4.4      2.410      6.054
REMARK  7 active torsions:
REMARK  status: ('A' for Active; 'I' for Inactive)
REMARK    1  A    between atoms: C_2  and  C_3 
REMARK    2  A    between atoms: C_3  and  O_6 
REMARK    3  A    between atoms: C_3  and  C_4 
REMARK    4  A    between atoms: C_7  and  O_6 
REMARK    5  A    between atoms: C_9  and  C_10 
REMARK    6  A    between atoms: N_15  and  C_14 
REMARK    7  A    between atoms: N_20  and  C_19 
REMARK       I    between atoms: C_22  and  N_20 
ROOT
ATOM      1  C   LIG d   1      -4.221  77.895 117.636  0.00  0.00     0.161 C 
ATOM      2  C   LIG d   1      -3.210  77.349 116.828  0.00  0.00     0.016 C 
ATOM      3  C   LIG d   1      -3.464  76.465 115.754  0.00  0.00     0.038 C 
ATOM      4  C   LIG d   1      -4.767  76.184 115.318  0.00  0.00     0.028 C 
ATOM      5  C   LIG d   1      -5.815  76.312 116.418  0.00  0.00    -0.047 C 
ATOM      6  C   LIG d   1      -5.655  77.687 117.105  0.00  0.00     0.091 C 
ENDROOT
BRANCH   1   7
ATOM      7  O   LIG d   1      -3.967  79.296 117.857  0.00  0.00    -0.368 OA
BRANCH   7   8
ATOM      8  C   LIG d   1      -4.370  80.193 116.793  0.00  0.00     0.119 C 
BRANCH   8   9
ATOM      9  C   LIG d   1      -3.088  80.711 116.113  0.00  0.00     0.028 C 
ATOM     10  C   LIG d   1      -3.042  80.375 114.613  0.00  0.00     0.006 C 
ENDBRANCH   8   9
BRANCH   8  11
ATOM     11  C   LIG d   1      -5.066  81.439 117.348  0.00  0.00     0.028 C 
ATOM     12  C   LIG d   1      -5.050  81.496 118.884  0.00  0.00     0.006 C 
ENDBRANCH   8  11
ENDBRANCH   7   8
ENDBRANCH   1   7
BRANCH   6  13
ATOM     13  N   LIG d   1      -6.587  77.861 118.250  0.00  0.00    -0.311 N 
ATOM     14  C   LIG d   1      -7.563  78.767 118.270  0.00  0.00     0.210 C 
ATOM     15  C   LIG d   1      -8.396  78.792 119.555  0.00  0.00     0.109 C 
ATOM     16  O   LIG d   1      -7.838  79.531 117.332  0.00  0.00    -0.276 OA
ATOM     17  H   LIG d   1      -6.456  77.261 119.040  0.00  0.00     0.149 HD
ENDBRANCH   6  13
BRANCH   5  18
ATOM     18  N   LIG d   1      -7.139  76.127 115.796  0.00  0.00     0.381 N 
ATOM     19  H   LIG d   1      -7.758  75.680 116.442  0.00  0.00    -0.090 HD
ATOM     20  H   LIG d   1      -7.041  75.533 114.991  0.00  0.00    -0.090 HD
ATOM     21  H   LIG d   1      -7.514  77.009 115.522  0.00  0.00    -0.090 HD
ENDBRANCH   5  18
BRANCH   3  22
ATOM     22  C   LIG d   1      -2.406  75.821 115.130  0.00  0.00     0.382 C 
ATOM     23  O   LIG d   1      -1.779  76.395 114.207  0.00  0.00    -0.241 OA
ATOM     24  O   LIG d   1      -2.101  74.656 115.447  0.00  0.00    -0.241 OA
ENDBRANCH   3  22
TORSDOF 7
ENDMDL
MODEL 9
REMARK VINA RESULT:      -4.4      2.066      2.659
REMARK  7 active torsions:
REMARK  status: ('A' for Active; 'I' for Inactive)
REMARK    1  A    between atoms: C_2  and  C_3 
REMARK    2  A    between atoms: C_3  and  O_6 
REMARK    3  A    between atoms: C_3  and  C_4 
REMARK    4  A    between atoms: C_7  and  O_6 
REMARK    5  A    between atoms: C_9  and  C_10 
REMARK    6  A    between atoms: N_15  and  C_14 
REMARK    7  A    between atoms: N_20  and  C_19 
REMARK       I    between atoms: C_22  and  N_20 
ROOT
ATOM      1  C   LIG d   1      -4.931  78.552 117.069  0.00  0.00     0.161 C 
ATOM      2  C   LIG d   1      -6.129  79.281 117.161  0.00  0.00     0.016 C 
ATOM      3  C   LIG d   1      -6.188  80.630 117.580  0.00  0.00     0.038 C 
ATOM      4  C   LIG d   1      -5.030  81.392 117.792  0.00  0.00     0.028 C 
ATOM      5  C   LIG d   1      -3.822  80.557 118.200  0.00  0.00    -0.047 C 
ATOM      6  C   LIG d   1      -3.648  79.400 117.190  0.00  0.00     0.091 C 
ENDROOT
BRANCH   1   7
ATOM      7  O   LIG d   1      -4.916  77.790 115.846  0.00  0.00    -0.368 OA
BRANCH   7   8
ATOM      8  C   LIG d   1      -4.944  76.349 115.992  0.00  0.00     0.119 C 
BRANCH   8   9
ATOM      9  C   LIG d   1      -4.014  75.756 114.916  0.00  0.00     0.028 C 
ATOM     10  C   LIG d   1      -2.769  75.086 115.522  0.00  0.00     0.006 C 
ENDBRANCH   8   9
BRANCH   8  11
ATOM     11  C   LIG d   1      -6.334  75.785 115.682  0.00  0.00     0.028 C 
ATOM     12  C   LIG d   1      -6.362  74.249 115.658  0.00  0.00     0.006 C 
ENDBRANCH   8  11
ENDBRANCH   7   8
ENDBRANCH   1   7
BRANCH   6  13
ATOM     13  N   LIG d   1      -2.538  78.484 117.563  0.00  0.00    -0.311 N 
ATOM     14  C   LIG d   1      -1.477  78.265 116.788  0.00  0.00     0.210 C 
ATOM     15  C   LIG d   1      -0.459  77.269 117.352  0.00  0.00     0.109 C 
ATOM     16  O   LIG d   1      -1.267  78.825 115.701  0.00  0.00    -0.276 OA
ATOM     17  H   LIG d   1      -2.612  78.012 118.442  0.00  0.00     0.149 HD
ENDBRANCH   6  13
BRANCH   5  18
ATOM     18  N   LIG d   1      -2.655  81.458 118.254  0.00  0.00     0.381 N 
ATOM     19  H   LIG d   1      -1.906  81.075 117.711  0.00  0.00    -0.090 HD
ATOM     20  H   LIG d   1      -2.346  81.534 119.207  0.00  0.00    -0.090 HD
ATOM     21  H   LIG d   1      -2.902  82.357 117.904  0.00  0.00    -0.090 HD
ENDBRANCH   5  18
BRANCH   3  22
ATOM     22  C   LIG d   1      -7.419  81.219 117.829  0.00  0.00     0.382 C 
ATOM     23  O   LIG d   1      -8.464  80.709 117.358  0.00  0.00    -0.241 OA
ATOM     24  O   LIG d   1      -7.493  82.277 118.481  0.00  0.00    -0.241 OA
ENDBRANCH   3  22
TORSDOF 7
ENDMDL
