MODEL 1
REMARK VINA RESULT:      -5.3      0.000      0.000
REMARK  7 active torsions:
REMARK  status: ('A' for Active; 'I' for Inactive)
REMARK    1  A    between atoms: C_2  and  C_3 
REMARK    2  A    between atoms: C_3  and  O_6 
REMARK    3  A    between atoms: C_3  and  C_4 
REMARK    4  A    between atoms: C_7  and  O_6 
REMARK    5  A    between atoms: C_9  and  C_10 
REMARK    6  A    between atoms: N_15  and  C_14 
REMARK    7  A    between atoms: N_20  and  C_19 
REMARK       I    between atoms: C_22  and  N_20 
ROOT
ATOM      1  C   LIG d   1       3.583  89.529 116.096  0.00  0.00     0.161 C 
ATOM      2  C   LIG d   1       2.581  88.909 115.331  0.00  0.00     0.016 C 
ATOM      3  C   LIG d   1       2.715  88.631 113.951  0.00  0.00     0.038 C 
ATOM      4  C   LIG d   1       3.928  88.818 113.272  0.00  0.00     0.028 C 
ATOM      5  C   LIG d   1       4.803  89.908 113.883  0.00  0.00    -0.047 C 
ATOM      6  C   LIG d   1       4.954  89.639 115.397  0.00  0.00     0.091 C 
ENDROOT
BRANCH   1   7
ATOM      7  O   LIG d   1       3.718  88.854 117.362  0.00  0.00    -0.368 OA
BRANCH   7   8
ATOM      8  C   LIG d   1       3.225  87.493 117.415  0.00  0.00     0.119 C 
BRANCH   8   9
ATOM      9  C   LIG d   1       2.672  87.255 118.834  0.00  0.00     0.028 C 
ATOM     10  C   LIG d   1       1.513  88.206 119.179  0.00  0.00     0.006 C 
ENDBRANCH   8   9
BRANCH   8  11
ATOM     11  C   LIG d   1       4.362  86.481 117.248  0.00  0.00     0.028 C 
ATOM     12  C   LIG d   1       4.153  85.542 116.050  0.00  0.00     0.006 C 
ENDBRANCH   8  11
ENDBRANCH   7   8
ENDBRANCH   1   7
BRANCH   6  13
ATOM     13  N   LIG d   1       5.726  90.706 116.088  0.00  0.00    -0.311 N 
ATOM     14  C   LIG d   1       6.628  90.461 117.037  0.00  0.00     0.210 C 
ATOM     15  C   LIG d   1       7.294  91.705 117.632  0.00  0.00     0.109 C 
ATOM     16  O   LIG d   1       6.962  89.329 117.419  0.00  0.00    -0.276 OA
ATOM     17  H   LIG d   1       5.540  91.651 115.817  0.00  0.00     0.149 HD
ENDBRANCH   6  13
BRANCH   5  18
ATOM     18  N   LIG d   1       6.090  89.903 113.163  0.00  0.00     0.381 N 
ATOM     19  H   LIG d   1       6.213  89.027 112.696  0.00  0.00    -0.090 HD
ATOM     20  H   LIG d   1       6.835  90.013 113.828  0.00  0.00    -0.090 HD
ATOM     21  H   LIG d   1       6.113  90.647 112.501  0.00  0.00    -0.090 HD
ENDBRANCH   5  18
BRANCH   3  22
ATOM     22  C   LIG d   1       1.615  88.196 113.227  0.00  0.00     0.382 C 
ATOM     23  O   LIG d   1       1.569  87.016 112.805  0.00  0.00    -0.241 OA
ATOM     24  O   LIG d   1       0.689  88.982 112.953  0.00  0.00    -0.241 OA
ENDBRANCH   3  22
TORSDOF 7
ENDMDL
MODEL 2
REMARK VINA RESULT:      -5.2      1.362      2.240
REMARK  7 active torsions:
REMARK  status: ('A' for Active; 'I' for Inactive)
REMARK    1  A    between atoms: C_2  and  C_3 
REMARK    2  A    between atoms: C_3  and  O_6 
REMARK    3  A    between atoms: C_3  and  C_4 
REMARK    4  A    between atoms: C_7  and  O_6 
REMARK    5  A    between atoms: C_9  and  C_10 
REMARK    6  A    between atoms: N_15  and  C_14 
REMARK    7  A    between atoms: N_20  and  C_19 
REMARK       I    between atoms: C_22  and  N_20 
ROOT
ATOM      1  C   LIG d   1       3.466  89.594 116.146  0.00  0.00     0.161 C 
ATOM      2  C   LIG d   1       2.517  88.936 115.347  0.00  0.00     0.016 C 
ATOM      3  C   LIG d   1       2.721  88.641 113.979  0.00  0.00     0.038 C 
ATOM      4  C   LIG d   1       3.958  88.851 113.352  0.00  0.00     0.028 C 
ATOM      5  C   LIG d   1       4.774  89.974 113.984  0.00  0.00    -0.047 C 
ATOM      6  C   LIG d   1       4.865  89.732 115.508  0.00  0.00     0.091 C 
ENDROOT
BRANCH   1   7
ATOM      7  O   LIG d   1       3.563  88.942 117.428  0.00  0.00    -0.368 OA
BRANCH   7   8
ATOM      8  C   LIG d   1       2.935  89.627 118.540  0.00  0.00     0.119 C 
BRANCH   8   9
ATOM      9  C   LIG d   1       1.614  88.897 118.848  0.00  0.00     0.028 C 
ATOM     10  C   LIG d   1       0.401  89.841 118.819  0.00  0.00     0.006 C 
ENDBRANCH   8   9
BRANCH   8  11
ATOM     11  C   LIG d   1       2.530  91.054 118.158  0.00  0.00     0.028 C 
ATOM     12  C   LIG d   1       3.389  92.123 118.853  0.00  0.00     0.006 C 
ENDBRANCH   8  11
ENDBRANCH   7   8
ENDBRANCH   1   7
BRANCH   6  13
ATOM     13  N   LIG d   1       5.575  90.829 116.215  0.00  0.00    -0.311 N 
ATOM     14  C   LIG d   1       6.521  90.621 117.129  0.00  0.00     0.210 C 
ATOM     15  C   LIG d   1       7.111  91.891 117.750  0.00  0.00     0.109 C 
ATOM     16  O   LIG d   1       6.950  89.506 117.461  0.00  0.00    -0.276 OA
ATOM     17  H   LIG d   1       5.311  91.767 115.983  0.00  0.00     0.149 HD
ENDBRANCH   6  13
BRANCH   5  18
ATOM     18  N   LIG d   1       6.093  89.993 113.322  0.00  0.00     0.381 N 
ATOM     19  H   LIG d   1       6.192  89.184 112.742  0.00  0.00    -0.090 HD
ATOM     20  H   LIG d   1       6.810  89.967 114.026  0.00  0.00    -0.090 HD
ATOM     21  H   LIG d   1       6.186  90.819 112.773  0.00  0.00    -0.090 HD
ENDBRANCH   5  18
BRANCH   3  22
ATOM     22  C   LIG d   1       1.667  88.165 113.214  0.00  0.00     0.382 C 
ATOM     23  O   LIG d   1       0.687  88.908 112.967  0.00  0.00    -0.241 OA
ATOM     24  O   LIG d   1       1.664  86.989 112.805  0.00  0.00    -0.241 OA
ENDBRANCH   3  22
TORSDOF 7
ENDMDL
MODEL 3
REMARK VINA RESULT:      -5.1     15.890     17.791
REMARK  7 active torsions:
REMARK  status: ('A' for Active; 'I' for Inactive)
REMARK    1  A    between atoms: C_2  and  C_3 
REMARK    2  A    between atoms: C_3  and  O_6 
REMARK    3  A    between atoms: C_3  and  C_4 
REMARK    4  A    between atoms: C_7  and  O_6 
REMARK    5  A    between atoms: C_9  and  C_10 
REMARK    6  A    between atoms: N_15  and  C_14 
REMARK    7  A    between atoms: N_20  and  C_19 
REMARK       I    between atoms: C_22  and  N_20 
ROOT
ATOM      1  C   LIG d   1      -7.734  75.463 118.068  0.00  0.00     0.161 C 
ATOM      2  C   LIG d   1      -9.113  75.617 118.284  0.00  0.00     0.016 C 
ATOM      3  C   LIG d   1      -9.740  76.873 118.449  0.00  0.00     0.038 C 
ATOM      4  C   LIG d   1      -9.047  78.078 118.258  0.00  0.00     0.028 C 
ATOM      5  C   LIG d   1      -7.552  77.968 118.537  0.00  0.00    -0.047 C 
ATOM      6  C   LIG d   1      -6.980  76.770 117.745  0.00  0.00     0.091 C 
ENDROOT
BRANCH   1   7
ATOM      7  O   LIG d   1      -7.507  74.486 117.033  0.00  0.00    -0.368 OA
BRANCH   7   8
ATOM      8  C   LIG d   1      -6.977  73.209 117.467  0.00  0.00     0.119 C 
BRANCH   8   9
ATOM      9  C   LIG d   1      -5.615  73.014 116.773  0.00  0.00     0.028 C 
ATOM     10  C   LIG d   1      -5.481  73.858 115.494  0.00  0.00     0.006 C 
ENDBRANCH   8   9
BRANCH   8  11
ATOM     11  C   LIG d   1      -7.850  72.049 116.982  0.00  0.00     0.028 C 
ATOM     12  C   LIG d   1      -7.436  70.698 117.587  0.00  0.00     0.006 C 
ENDBRANCH   8  11
ENDBRANCH   7   8
ENDBRANCH   1   7
BRANCH   6  13
ATOM     13  N   LIG d   1      -5.539  76.540 118.027  0.00  0.00    -0.311 N 
ATOM     14  C   LIG d   1      -4.557  77.033 117.274  0.00  0.00     0.210 C 
ATOM     15  C   LIG d   1      -3.143  76.659 117.731  0.00  0.00     0.109 C 
ATOM     16  O   LIG d   1      -4.721  77.770 116.291  0.00  0.00    -0.276 OA
ATOM     17  H   LIG d   1      -5.314  75.979 118.825  0.00  0.00     0.149 HD
ENDBRANCH   6  13
BRANCH   5  18
ATOM     18  N   LIG d   1      -6.933  79.255 118.166  0.00  0.00     0.381 N 
ATOM     19  H   LIG d   1      -5.947  79.136 118.053  0.00  0.00    -0.090 HD
ATOM     20  H   LIG d   1      -7.088  79.916 118.907  0.00  0.00    -0.090 HD
ATOM     21  H   LIG d   1      -7.334  79.594 117.320  0.00  0.00    -0.090 HD
ENDBRANCH   5  18
BRANCH   3  22
ATOM     22  C   LIG d   1     -11.066  76.933 118.850  0.00  0.00     0.382 C 
ATOM     23  O   LIG d   1     -11.466  77.891 119.554  0.00  0.00    -0.241 OA
ATOM     24  O   LIG d   1     -11.857  76.017 118.553  0.00  0.00    -0.241 OA
ENDBRANCH   3  22
TORSDOF 7
ENDMDL
MODEL 4
REMARK VINA RESULT:      -4.9      1.896      2.476
REMARK  7 active torsions:
REMARK  status: ('A' for Active; 'I' for Inactive)
REMARK    1  A    between atoms: C_2  and  C_3 
REMARK    2  A    between atoms: C_3  and  O_6 
REMARK    3  A    between atoms: C_3  and  C_4 
REMARK    4  A    between atoms: C_7  and  O_6 
REMARK    5  A    between atoms: C_9  and  C_10 
REMARK    6  A    between atoms: N_15  and  C_14 
REMARK    7  A    between atoms: N_20  and  C_19 
REMARK       I    between atoms: C_22  and  N_20 
ROOT
ATOM      1  C   LIG d   1       2.402  90.846 116.472  0.00  0.00     0.161 C 
ATOM      2  C   LIG d   1       1.791  89.916 115.615  0.00  0.00     0.016 C 
ATOM      3  C   LIG d   1       2.513  89.069 114.743  0.00  0.00     0.038 C 
ATOM      4  C   LIG d   1       3.913  88.989 114.778  0.00  0.00     0.028 C 
ATOM      5  C   LIG d   1       4.581  90.270 115.268  0.00  0.00    -0.047 C 
ATOM      6  C   LIG d   1       3.932  90.694 116.605  0.00  0.00     0.091 C 
ENDROOT
BRANCH   1   7
ATOM      7  O   LIG d   1       1.779  90.796 117.771  0.00  0.00    -0.368 OA
BRANCH   7   8
ATOM      8  C   LIG d   1       1.093  89.564 118.103  0.00  0.00     0.119 C 
BRANCH   8   9
ATOM      9  C   LIG d   1      -0.203  89.941 118.845  0.00  0.00     0.028 C 
ATOM     10  C   LIG d   1      -1.319  90.390 117.886  0.00  0.00     0.006 C 
ENDBRANCH   8   9
BRANCH   8  11
ATOM     11  C   LIG d   1       1.902  88.726 119.098  0.00  0.00     0.028 C 
ATOM     12  C   LIG d   1       2.701  87.603 118.421  0.00  0.00     0.006 C 
ENDBRANCH   8  11
ENDBRANCH   7   8
ENDBRANCH   1   7
BRANCH   6  13
ATOM     13  N   LIG d   1       4.469  91.984 117.112  0.00  0.00    -0.311 N 
ATOM     14  C   LIG d   1       5.003  92.130 118.323  0.00  0.00     0.210 C 
ATOM     15  C   LIG d   1       5.478  93.549 118.653  0.00  0.00     0.109 C 
ATOM     16  O   LIG d   1       5.158  91.213 119.144  0.00  0.00    -0.276 OA
ATOM     17  H   LIG d   1       4.413  92.774 116.499  0.00  0.00     0.149 HD
ENDBRANCH   6  13
BRANCH   5  18
ATOM     18  N   LIG d   1       6.027  90.001 115.386  0.00  0.00     0.381 N 
ATOM     19  H   LIG d   1       6.402  90.505 116.165  0.00  0.00    -0.090 HD
ATOM     20  H   LIG d   1       6.486  90.322 114.552  0.00  0.00    -0.090 HD
ATOM     21  H   LIG d   1       6.183  89.025 115.506  0.00  0.00    -0.090 HD
ENDBRANCH   5  18
BRANCH   3  22
ATOM     22  C   LIG d   1       1.834  88.320 113.794  0.00  0.00     0.382 C 
ATOM     23  O   LIG d   1       2.186  87.140 113.558  0.00  0.00    -0.241 OA
ATOM     24  O   LIG d   1       0.902  88.825 113.139  0.00  0.00    -0.241 OA
ENDBRANCH   3  22
TORSDOF 7
ENDMDL
MODEL 5
REMARK VINA RESULT:      -4.8     13.456     15.169
REMARK  7 active torsions:
REMARK  status: ('A' for Active; 'I' for Inactive)
REMARK    1  A    between atoms: C_2  and  C_3 
REMARK    2  A    between atoms: C_3  and  O_6 
REMARK    3  A    between atoms: C_3  and  C_4 
REMARK    4  A    between atoms: C_7  and  O_6 
REMARK    5  A    between atoms: C_9  and  C_10 
REMARK    6  A    between atoms: N_15  and  C_14 
REMARK    7  A    between atoms: N_20  and  C_19 
REMARK       I    between atoms: C_22  and  N_20 
ROOT
ATOM      1  C   LIG d   1      -6.944  78.919 118.087  0.00  0.00     0.161 C 
ATOM      2  C   LIG d   1      -8.308  79.207 118.260  0.00  0.00     0.016 C 
ATOM      3  C   LIG d   1      -8.892  80.448 117.916  0.00  0.00     0.038 C 
ATOM      4  C   LIG d   1      -8.174  81.440 117.231  0.00  0.00     0.028 C 
ATOM      5  C   LIG d   1      -6.672  81.389 117.489  0.00  0.00    -0.047 C 
ATOM      6  C   LIG d   1      -6.169  79.949 117.238  0.00  0.00     0.091 C 
ENDROOT
BRANCH   1   7
ATOM      7  O   LIG d   1      -6.790  77.597 117.534  0.00  0.00    -0.368 OA
BRANCH   7   8
ATOM      8  C   LIG d   1      -7.757  76.609 117.966  0.00  0.00     0.119 C 
BRANCH   8   9
ATOM      9  C   LIG d   1      -7.106  75.784 119.092  0.00  0.00     0.028 C 
ATOM     10  C   LIG d   1      -5.694  75.298 118.722  0.00  0.00     0.006 C 
ENDBRANCH   8   9
BRANCH   8  11
ATOM     11  C   LIG d   1      -8.063  75.604 116.851  0.00  0.00     0.028 C 
ATOM     12  C   LIG d   1      -9.258  74.696 117.179  0.00  0.00     0.006 C 
ENDBRANCH   8  11
ENDBRANCH   7   8
ENDBRANCH   1   7
BRANCH   6  13
ATOM     13  N   LIG d   1      -4.724  79.792 117.549  0.00  0.00    -0.311 N 
ATOM     14  C   LIG d   1      -3.762  79.890 116.634  0.00  0.00     0.210 C 
ATOM     15  C   LIG d   1      -2.341  79.674 117.163  0.00  0.00     0.109 C 
ATOM     16  O   LIG d   1      -3.948  80.168 115.439  0.00  0.00    -0.276 OA
ATOM     17  H   LIG d   1      -4.481  79.595 118.501  0.00  0.00     0.149 HD
ENDBRANCH   6  13
BRANCH   5  18
ATOM     18  N   LIG d   1      -6.035  82.386 116.609  0.00  0.00     0.381 N 
ATOM     19  H   LIG d   1      -6.639  82.593 115.839  0.00  0.00    -0.090 HD
ATOM     20  H   LIG d   1      -5.181  82.000 116.245  0.00  0.00    -0.090 HD
ATOM     21  H   LIG d   1      -5.840  83.218 117.121  0.00  0.00    -0.090 HD
ENDBRANCH   5  18
BRANCH   3  22
ATOM     22  C   LIG d   1     -10.197  80.722 118.294  0.00  0.00     0.382 C 
ATOM     23  O   LIG d   1     -10.885  81.533 117.630  0.00  0.00    -0.241 OA
ATOM     24  O   LIG d   1     -10.681  80.201 119.318  0.00  0.00    -0.241 OA
ENDBRANCH   3  22
TORSDOF 7
ENDMDL
MODEL 6
REMARK VINA RESULT:      -4.8     16.364     18.267
REMARK  7 active torsions:
REMARK  status: ('A' for Active; 'I' for Inactive)
REMARK    1  A    between atoms: C_2  and  C_3 
REMARK    2  A    between atoms: C_3  and  O_6 
REMARK    3  A    between atoms: C_3  and  C_4 
REMARK    4  A    between atoms: C_7  and  O_6 
REMARK    5  A    between atoms: C_9  and  C_10 
REMARK    6  A    between atoms: N_15  and  C_14 
REMARK    7  A    between atoms: N_20  and  C_19 
REMARK       I    between atoms: C_22  and  N_20 
ROOT
ATOM      1  C   LIG d   1      -7.880  75.458 117.411  0.00  0.00     0.161 C 
ATOM      2  C   LIG d   1      -8.800  74.478 117.005  0.00  0.00     0.016 C 
ATOM      3  C   LIG d   1     -10.182  74.538 117.300  0.00  0.00     0.038 C 
ATOM      4  C   LIG d   1     -10.765  75.667 117.894  0.00  0.00     0.028 C 
ATOM      5  C   LIG d   1      -9.799  76.457 118.771  0.00  0.00    -0.047 C 
ATOM      6  C   LIG d   1      -8.515  76.752 117.963  0.00  0.00     0.091 C 
ENDROOT
BRANCH   1   7
ATOM      7  O   LIG d   1      -6.982  75.764 116.325  0.00  0.00    -0.368 OA
BRANCH   7   8
ATOM      8  C   LIG d   1      -5.614  75.317 116.484  0.00  0.00     0.119 C 
BRANCH   8   9
ATOM      9  C   LIG d   1      -5.410  74.110 115.548  0.00  0.00     0.028 C 
ATOM     10  C   LIG d   1      -5.617  72.767 116.268  0.00  0.00     0.006 C 
ENDBRANCH   8   9
BRANCH   8  11
ATOM     11  C   LIG d   1      -5.364  74.781 117.897  0.00  0.00     0.028 C 
ATOM     12  C   LIG d   1      -4.291  75.578 118.656  0.00  0.00     0.006 C 
ENDBRANCH   8  11
ENDBRANCH   7   8
ENDBRANCH   1   7
BRANCH   6  13
ATOM     13  N   LIG d   1      -7.482  77.449 118.774  0.00  0.00    -0.311 N 
ATOM     14  C   LIG d   1      -6.760  78.472 118.320  0.00  0.00     0.210 C 
ATOM     15  C   LIG d   1      -5.737  79.032 119.312  0.00  0.00     0.109 C 
ATOM     16  O   LIG d   1      -6.893  78.989 117.201  0.00  0.00    -0.276 OA
ATOM     17  H   LIG d   1      -7.331  77.113 119.705  0.00  0.00     0.149 HD
ENDBRANCH   6  13
BRANCH   5  18
ATOM     18  N   LIG d   1     -10.497  77.679 119.214  0.00  0.00     0.381 N 
ATOM     19  H   LIG d   1      -9.913  78.192 119.844  0.00  0.00    -0.090 HD
ATOM     20  H   LIG d   1     -11.334  77.415 119.703  0.00  0.00    -0.090 HD
ATOM     21  H   LIG d   1     -10.727  78.244 118.427  0.00  0.00    -0.090 HD
ENDBRANCH   5  18
BRANCH   3  22
ATOM     22  C   LIG d   1     -10.990  73.442 117.035  0.00  0.00     0.382 C 
ATOM     23  O   LIG d   1     -12.232  73.527 117.189  0.00  0.00    -0.241 OA
ATOM     24  O   LIG d   1     -10.488  72.357 116.686  0.00  0.00    -0.241 OA
ENDBRANCH   3  22
TORSDOF 7
ENDMDL
MODEL 7
REMARK VINA RESULT:      -4.6     15.576     17.642
REMARK  7 active torsions:
REMARK  status: ('A' for Active; 'I' for Inactive)
REMARK    1  A    between atoms: C_2  and  C_3 
REMARK    2  A    between atoms: C_3  and  O_6 
REMARK    3  A    between atoms: C_3  and  C_4 
REMARK    4  A    between atoms: C_7  and  O_6 
REMARK    5  A    between atoms: C_9  and  C_10 
REMARK    6  A    between atoms: N_15  and  C_14 
REMARK    7  A    between atoms: N_20  and  C_19 
REMARK       I    between atoms: C_22  and  N_20 
ROOT
ATOM      1  C   LIG d   1      -5.446  74.835 117.913  0.00  0.00     0.161 C 
ATOM      2  C   LIG d   1      -5.610  73.506 117.489  0.00  0.00     0.016 C 
ATOM      3  C   LIG d   1      -6.867  72.937 117.179  0.00  0.00     0.038 C 
ATOM      4  C   LIG d   1      -8.037  73.709 117.126  0.00  0.00     0.028 C 
ATOM      5  C   LIG d   1      -7.997  74.933 118.034  0.00  0.00    -0.047 C 
ATOM      6  C   LIG d   1      -6.698  75.723 117.755  0.00  0.00     0.091 C 
ENDROOT
BRANCH   1   7
ATOM      7  O   LIG d   1      -4.321  75.429 117.236  0.00  0.00    -0.368 OA
BRANCH   7   8
ATOM      8  C   LIG d   1      -3.932  74.811 115.985  0.00  0.00     0.119 C 
BRANCH   8   9
ATOM      9  C   LIG d   1      -2.392  74.812 115.927  0.00  0.00     0.028 C 
ATOM     10  C   LIG d   1      -1.761  73.985 117.061  0.00  0.00     0.006 C 
ENDBRANCH   8   9
BRANCH   8  11
ATOM     11  C   LIG d   1      -4.383  75.649 114.785  0.00  0.00     0.028 C 
ATOM     12  C   LIG d   1      -5.693  75.141 114.163  0.00  0.00     0.006 C 
ENDBRANCH   8  11
ENDBRANCH   7   8
ENDBRANCH   1   7
BRANCH   6  13
ATOM     13  N   LIG d   1      -6.538  76.891 118.660  0.00  0.00    -0.311 N 
ATOM     14  C   LIG d   1      -6.236  78.115 118.232  0.00  0.00     0.210 C 
ATOM     15  C   LIG d   1      -6.099  79.170 119.334  0.00  0.00     0.109 C 
ATOM     16  O   LIG d   1      -6.101  78.434 117.041  0.00  0.00    -0.276 OA
ATOM     17  H   LIG d   1      -6.662  76.728 119.640  0.00  0.00     0.149 HD
ENDBRANCH   6  13
BRANCH   5  18
ATOM     18  N   LIG d   1      -9.218  75.719 117.777  0.00  0.00     0.381 N 
ATOM     19  H   LIG d   1      -9.014  76.696 117.850  0.00  0.00    -0.090 HD
ATOM     20  H   LIG d   1      -9.905  75.488 118.473  0.00  0.00    -0.090 HD
ATOM     21  H   LIG d   1      -9.572  75.512 116.869  0.00  0.00    -0.090 HD
ENDBRANCH   5  18
BRANCH   3  22
ATOM     22  C   LIG d   1      -6.967  71.572 116.955  0.00  0.00     0.382 C 
ATOM     23  O   LIG d   1      -6.386  71.053 115.972  0.00  0.00    -0.241 OA
ATOM     24  O   LIG d   1      -7.668  70.860 117.699  0.00  0.00    -0.241 OA
ENDBRANCH   3  22
TORSDOF 7
ENDMDL
MODEL 8
REMARK VINA RESULT:      -4.6     12.860     14.931
REMARK  7 active torsions:
REMARK  status: ('A' for Active; 'I' for Inactive)
REMARK    1  A    between atoms: C_2  and  C_3 
REMARK    2  A    between atoms: C_3  and  O_6 
REMARK    3  A    between atoms: C_3  and  C_4 
REMARK    4  A    between atoms: C_7  and  O_6 
REMARK    5  A    between atoms: C_9  and  C_10 
REMARK    6  A    between atoms: N_15  and  C_14 
REMARK    7  A    between atoms: N_20  and  C_19 
REMARK       I    between atoms: C_22  and  N_20 
ROOT
ATOM      1  C   LIG d   1      -2.987  76.643 116.784  0.00  0.00     0.161 C 
ATOM      2  C   LIG d   1      -3.306  77.630 115.836  0.00  0.00     0.016 C 
ATOM      3  C   LIG d   1      -2.483  77.941 114.730  0.00  0.00     0.038 C 
ATOM      4  C   LIG d   1      -1.350  77.177 114.410  0.00  0.00     0.028 C 
ATOM      5  C   LIG d   1      -0.717  76.497 115.620  0.00  0.00    -0.047 C 
ATOM      6  C   LIG d   1      -1.812  75.724 116.391  0.00  0.00     0.091 C 
ENDROOT
BRANCH   1   7
ATOM      7  O   LIG d   1      -4.158  75.858 117.085  0.00  0.00    -0.368 OA
BRANCH   7   8
ATOM      8  C   LIG d   1      -4.453  74.776 116.168  0.00  0.00     0.119 C 
BRANCH   8   9
ATOM      9  C   LIG d   1      -5.825  75.071 115.530  0.00  0.00     0.028 C 
ATOM     10  C   LIG d   1      -5.742  75.217 114.001  0.00  0.00     0.006 C 
ENDBRANCH   8   9
BRANCH   8  11
ATOM     11  C   LIG d   1      -4.628  73.448 116.910  0.00  0.00     0.028 C 
ATOM     12  C   LIG d   1      -6.094  72.991 116.976  0.00  0.00     0.006 C 
ENDBRANCH   8  11
ENDBRANCH   7   8
ENDBRANCH   1   7
BRANCH   6  13
ATOM     13  N   LIG d   1      -1.294  75.098 117.635  0.00  0.00    -0.311 N 
ATOM     14  C   LIG d   1      -0.881  73.834 117.703  0.00  0.00     0.210 C 
ATOM     15  C   LIG d   1      -0.403  73.383 119.087  0.00  0.00     0.109 C 
ATOM     16  O   LIG d   1      -0.834  73.053 116.741  0.00  0.00    -0.276 OA
ATOM     17  H   LIG d   1      -1.268  75.670 118.456  0.00  0.00     0.149 HD
ENDBRANCH   6  13
BRANCH   5  18
ATOM     18  N   LIG d   1       0.366  75.627 115.125  0.00  0.00     0.381 N 
ATOM     19  H   LIG d   1       1.251  75.986 115.421  0.00  0.00    -0.090 HD
ATOM     20  H   LIG d   1       0.347  75.623 114.121  0.00  0.00    -0.090 HD
ATOM     21  H   LIG d   1       0.243  74.700 115.470  0.00  0.00    -0.090 HD
ENDBRANCH   5  18
BRANCH   3  22
ATOM     22  C   LIG d   1      -2.768  79.053 113.952  0.00  0.00     0.382 C 
ATOM     23  O   LIG d   1      -3.547  79.937 114.384  0.00  0.00    -0.241 OA
ATOM     24  O   LIG d   1      -2.292  79.161 112.806  0.00  0.00    -0.241 OA
ENDBRANCH   3  22
TORSDOF 7
ENDMDL
MODEL 9
REMARK VINA RESULT:      -4.4     14.913     16.866
REMARK  7 active torsions:
REMARK  status: ('A' for Active; 'I' for Inactive)
REMARK    1  A    between atoms: C_2  and  C_3 
REMARK    2  A    between atoms: C_3  and  O_6 
REMARK    3  A    between atoms: C_3  and  C_4 
REMARK    4  A    between atoms: C_7  and  O_6 
REMARK    5  A    between atoms: C_9  and  C_10 
REMARK    6  A    between atoms: N_15  and  C_14 
REMARK    7  A    between atoms: N_20  and  C_19 
REMARK       I    between atoms: C_22  and  N_20 
ROOT
ATOM      1  C   LIG d   1      -4.921  75.453 116.060  0.00  0.00     0.161 C 
ATOM      2  C   LIG d   1      -3.797  74.652 115.799  0.00  0.00     0.016 C 
ATOM      3  C   LIG d   1      -2.623  74.678 116.586  0.00  0.00     0.038 C 
ATOM      4  C   LIG d   1      -2.550  75.402 117.785  0.00  0.00     0.028 C 
ATOM      5  C   LIG d   1      -3.474  76.615 117.817  0.00  0.00    -0.047 C 
ATOM      6  C   LIG d   1      -4.902  76.168 117.428  0.00  0.00     0.091 C 
ENDROOT
BRANCH   1   7
ATOM      7  O   LIG d   1      -6.122  74.670 115.921  0.00  0.00    -0.368 OA
BRANCH   7   8
ATOM      8  C   LIG d   1      -6.505  73.879 117.073  0.00  0.00     0.119 C 
BRANCH   8   9
ATOM      9  C   LIG d   1      -6.192  72.406 116.748  0.00  0.00     0.028 C 
ATOM     10  C   LIG d   1      -7.297  71.451 117.230  0.00  0.00     0.006 C 
ENDBRANCH   8   9
BRANCH   8  11
ATOM     11  C   LIG d   1      -8.018  73.931 117.306  0.00  0.00     0.028 C 
ATOM     12  C   LIG d   1      -8.669  75.193 116.720  0.00  0.00     0.006 C 
ENDBRANCH   8  11
ENDBRANCH   7   8
ENDBRANCH   1   7
BRANCH   6  13
ATOM     13  N   LIG d   1      -5.852  77.308 117.353  0.00  0.00    -0.311 N 
ATOM     14  C   LIG d   1      -6.635  77.677 118.365  0.00  0.00     0.210 C 
ATOM     15  C   LIG d   1      -7.555  78.866 118.070  0.00  0.00     0.109 C 
ATOM     16  O   LIG d   1      -6.631  77.154 119.490  0.00  0.00    -0.276 OA
ATOM     17  H   LIG d   1      -5.897  77.808 116.486  0.00  0.00     0.149 HD
ENDBRANCH   6  13
BRANCH   5  18
ATOM     18  N   LIG d   1      -3.400  77.196 119.171  0.00  0.00     0.381 N 
ATOM     19  H   LIG d   1      -3.120  76.494 119.826  0.00  0.00    -0.090 HD
ATOM     20  H   LIG d   1      -4.312  77.526 119.433  0.00  0.00    -0.090 HD
ATOM     21  H   LIG d   1      -2.749  77.950 119.183  0.00  0.00    -0.090 HD
ENDBRANCH   5  18
BRANCH   3  22
ATOM     22  C   LIG d   1      -1.490  74.004 116.153  0.00  0.00     0.382 C 
ATOM     23  O   LIG d   1      -1.063  74.181 114.987  0.00  0.00    -0.241 OA
ATOM     24  O   LIG d   1      -0.916  73.190 116.900  0.00  0.00    -0.241 OA
ENDBRANCH   3  22
TORSDOF 7
ENDMDL
