MODEL 1
REMARK VINA RESULT:      -5.7      0.000      0.000
REMARK  7 active torsions:
REMARK  status: ('A' for Active; 'I' for Inactive)
REMARK    1  A    between atoms: C_2  and  C_3 
REMARK    2  A    between atoms: C_3  and  O_6 
REMARK    3  A    between atoms: C_3  and  C_4 
REMARK    4  A    between atoms: C_7  and  O_6 
REMARK    5  A    between atoms: C_9  and  C_10 
REMARK    6  A    between atoms: N_15  and  C_14 
REMARK    7  A    between atoms: N_20  and  C_19 
REMARK       I    between atoms: C_22  and  N_20 
ROOT
ATOM      1  C   LIG d   1      -7.104  76.918 117.593  0.00  0.00     0.161 C 
ATOM      2  C   LIG d   1      -8.370  77.461 117.869  0.00  0.00     0.016 C 
ATOM      3  C   LIG d   1      -8.619  78.850 117.954  0.00  0.00     0.038 C 
ATOM      4  C   LIG d   1      -7.643  79.801 117.618  0.00  0.00     0.028 C 
ATOM      5  C   LIG d   1      -6.216  79.303 117.825  0.00  0.00    -0.047 C 
ATOM      6  C   LIG d   1      -6.052  77.940 117.113  0.00  0.00     0.091 C 
ENDROOT
BRANCH   1   7
ATOM      7  O   LIG d   1      -7.230  75.845 116.639  0.00  0.00    -0.368 OA
BRANCH   7   8
ATOM      8  C   LIG d   1      -7.013  74.507 117.152  0.00  0.00     0.119 C 
BRANCH   8   9
ATOM      9  C   LIG d   1      -6.143  73.754 116.127  0.00  0.00     0.028 C 
ATOM     10  C   LIG d   1      -5.526  74.693 115.078  0.00  0.00     0.006 C 
ENDBRANCH   8   9
BRANCH   8  11
ATOM     11  C   LIG d   1      -8.325  73.720 117.227  0.00  0.00     0.028 C 
ATOM     12  C   LIG d   1      -8.124  72.209 117.033  0.00  0.00     0.006 C 
ENDBRANCH   8  11
ENDBRANCH   7   8
ENDBRANCH   1   7
BRANCH   6  13
ATOM     13  N   LIG d   1      -4.710  77.343 117.336  0.00  0.00    -0.311 N 
ATOM     14  C   LIG d   1      -3.682  77.520 116.508  0.00  0.00     0.210 C 
ATOM     15  C   LIG d   1      -2.393  76.799 116.915  0.00  0.00     0.109 C 
ATOM     16  O   LIG d   1      -3.706  78.232 115.493  0.00  0.00    -0.276 OA
ATOM     17  H   LIG d   1      -4.593  76.776 118.153  0.00  0.00     0.149 HD
ENDBRANCH   6  13
BRANCH   5  18
ATOM     18  N   LIG d   1      -5.304  80.339 117.307  0.00  0.00     0.381 N 
ATOM     19  H   LIG d   1      -5.814  80.990 116.744  0.00  0.00    -0.090 HD
ATOM     20  H   LIG d   1      -4.608  79.901 116.729  0.00  0.00    -0.090 HD
ATOM     21  H   LIG d   1      -4.865  80.816 118.063  0.00  0.00    -0.090 HD
ENDBRANCH   5  18
BRANCH   3  22
ATOM     22  C   LIG d   1      -9.845  79.301 118.419  0.00  0.00     0.382 C 
ATOM     23  O   LIG d   1     -10.588  78.533 119.076  0.00  0.00    -0.241 OA
ATOM     24  O   LIG d   1     -10.237  80.453 118.152  0.00  0.00    -0.241 OA
ENDBRANCH   3  22
TORSDOF 7
ENDMDL
MODEL 2
REMARK VINA RESULT:      -5.5      1.228      2.046
REMARK  7 active torsions:
REMARK  status: ('A' for Active; 'I' for Inactive)
REMARK    1  A    between atoms: C_2  and  C_3 
REMARK    2  A    between atoms: C_3  and  O_6 
REMARK    3  A    between atoms: C_3  and  C_4 
REMARK    4  A    between atoms: C_7  and  O_6 
REMARK    5  A    between atoms: C_9  and  C_10 
REMARK    6  A    between atoms: N_15  and  C_14 
REMARK    7  A    between atoms: N_20  and  C_19 
REMARK       I    between atoms: C_22  and  N_20 
ROOT
ATOM      1  C   LIG d   1      -6.496  77.313 118.254  0.00  0.00     0.161 C 
ATOM      2  C   LIG d   1      -7.889  77.301 118.431  0.00  0.00     0.016 C 
ATOM      3  C   LIG d   1      -8.703  78.447 118.279  0.00  0.00     0.038 C 
ATOM      4  C   LIG d   1      -8.194  79.658 117.788  0.00  0.00     0.028 C 
ATOM      5  C   LIG d   1      -6.710  79.853 118.079  0.00  0.00    -0.047 C 
ATOM      6  C   LIG d   1      -5.937  78.599 117.610  0.00  0.00     0.091 C 
ENDROOT
BRANCH   1   7
ATOM      7  O   LIG d   1      -6.090  76.156 117.496  0.00  0.00    -0.368 OA
BRANCH   7   8
ATOM      8  C   LIG d   1      -7.035  75.678 116.507  0.00  0.00     0.119 C 
BRANCH   8   9
ATOM      9  C   LIG d   1      -7.105  74.144 116.638  0.00  0.00     0.028 C 
ATOM     10  C   LIG d   1      -8.284  73.682 117.511  0.00  0.00     0.006 C 
ENDBRANCH   8   9
BRANCH   8  11
ATOM     11  C   LIG d   1      -6.534  75.942 115.084  0.00  0.00     0.028 C 
ATOM     12  C   LIG d   1      -5.001  75.987 114.991  0.00  0.00     0.006 C 
ENDBRANCH   8  11
ENDBRANCH   7   8
ENDBRANCH   1   7
BRANCH   6  13
ATOM     13  N   LIG d   1      -4.489  78.672 117.933  0.00  0.00    -0.311 N 
ATOM     14  C   LIG d   1      -3.566  79.103 117.075  0.00  0.00     0.210 C 
ATOM     15  C   LIG d   1      -2.129  79.078 117.604  0.00  0.00     0.109 C 
ATOM     16  O   LIG d   1      -3.806  79.535 115.937  0.00  0.00    -0.276 OA
ATOM     17  H   LIG d   1      -4.210  78.370 118.846  0.00  0.00     0.149 HD
ENDBRANCH   6  13
BRANCH   5  18
ATOM     18  N   LIG d   1      -6.280  81.087 117.394  0.00  0.00     0.381 N 
ATOM     19  H   LIG d   1      -6.366  81.867 118.015  0.00  0.00    -0.090 HD
ATOM     20  H   LIG d   1      -6.879  81.245 116.603  0.00  0.00    -0.090 HD
ATOM     21  H   LIG d   1      -5.335  80.997 117.092  0.00  0.00    -0.090 HD
ENDBRANCH   5  18
BRANCH   3  22
ATOM     22  C   LIG d   1     -10.036  78.399 118.659  0.00  0.00     0.382 C 
ATOM     23  O   LIG d   1     -10.742  77.410 118.343  0.00  0.00    -0.241 OA
ATOM     24  O   LIG d   1     -10.553  79.350 119.274  0.00  0.00    -0.241 OA
ENDBRANCH   3  22
TORSDOF 7
ENDMDL
MODEL 3
REMARK VINA RESULT:      -5.3      2.025      2.856
REMARK  7 active torsions:
REMARK  status: ('A' for Active; 'I' for Inactive)
REMARK    1  A    between atoms: C_2  and  C_3 
REMARK    2  A    between atoms: C_3  and  O_6 
REMARK    3  A    between atoms: C_3  and  C_4 
REMARK    4  A    between atoms: C_7  and  O_6 
REMARK    5  A    between atoms: C_9  and  C_10 
REMARK    6  A    between atoms: N_15  and  C_14 
REMARK    7  A    between atoms: N_20  and  C_19 
REMARK       I    between atoms: C_22  and  N_20 
ROOT
ATOM      1  C   LIG d   1      -5.757  77.359 118.205  0.00  0.00     0.161 C 
ATOM      2  C   LIG d   1      -6.579  78.490 118.075  0.00  0.00     0.016 C 
ATOM      3  C   LIG d   1      -6.106  79.751 117.643  0.00  0.00     0.038 C 
ATOM      4  C   LIG d   1      -4.800  79.927 117.164  0.00  0.00     0.028 C 
ATOM      5  C   LIG d   1      -3.800  78.937 117.751  0.00  0.00    -0.047 C 
ATOM      6  C   LIG d   1      -4.354  77.504 117.580  0.00  0.00     0.091 C 
ENDROOT
BRANCH   1   7
ATOM      7  O   LIG d   1      -6.428  76.203 117.665  0.00  0.00    -0.368 OA
BRANCH   7   8
ATOM      8  C   LIG d   1      -7.372  76.455 116.595  0.00  0.00     0.119 C 
BRANCH   8   9
ATOM      9  C   LIG d   1      -8.591  75.542 116.826  0.00  0.00     0.028 C 
ATOM     10  C   LIG d   1      -8.359  74.531 117.962  0.00  0.00     0.006 C 
ENDBRANCH   8   9
BRANCH   8  11
ATOM     11  C   LIG d   1      -6.800  76.033 115.238  0.00  0.00     0.028 C 
ATOM     12  C   LIG d   1      -5.755  74.913 115.354  0.00  0.00     0.006 C 
ENDBRANCH   8  11
ENDBRANCH   7   8
ENDBRANCH   1   7
BRANCH   6  13
ATOM     13  N   LIG d   1      -3.476  76.479 118.203  0.00  0.00    -0.311 N 
ATOM     14  C   LIG d   1      -2.588  75.761 117.519  0.00  0.00     0.210 C 
ATOM     15  C   LIG d   1      -1.799  74.744 118.351  0.00  0.00     0.109 C 
ATOM     16  O   LIG d   1      -2.355  75.891 116.307  0.00  0.00    -0.276 OA
ATOM     17  H   LIG d   1      -3.576  76.330 119.188  0.00  0.00     0.149 HD
ENDBRANCH   6  13
BRANCH   5  18
ATOM     18  N   LIG d   1      -2.511  79.144 117.064  0.00  0.00     0.381 N 
ATOM     19  H   LIG d   1      -1.765  78.787 117.627  0.00  0.00    -0.090 HD
ATOM     20  H   LIG d   1      -2.366  80.130 116.936  0.00  0.00    -0.090 HD
ATOM     21  H   LIG d   1      -2.518  78.685 116.180  0.00  0.00    -0.090 HD
ENDBRANCH   5  18
BRANCH   3  22
ATOM     22  C   LIG d   1      -6.933  80.861 117.726  0.00  0.00     0.382 C 
ATOM     23  O   LIG d   1      -7.767  80.953 118.659  0.00  0.00    -0.241 OA
ATOM     24  O   LIG d   1      -6.886  81.750 116.856  0.00  0.00    -0.241 OA
ENDBRANCH   3  22
TORSDOF 7
ENDMDL
MODEL 4
REMARK VINA RESULT:      -4.8      3.546      6.013
REMARK  7 active torsions:
REMARK  status: ('A' for Active; 'I' for Inactive)
REMARK    1  A    between atoms: C_2  and  C_3 
REMARK    2  A    between atoms: C_3  and  O_6 
REMARK    3  A    between atoms: C_3  and  C_4 
REMARK    4  A    between atoms: C_7  and  O_6 
REMARK    5  A    between atoms: C_9  and  C_10 
REMARK    6  A    between atoms: N_15  and  C_14 
REMARK    7  A    between atoms: N_20  and  C_19 
REMARK       I    between atoms: C_22  and  N_20 
ROOT
ATOM      1  C   LIG d   1      -2.696  76.446 116.952  0.00  0.00     0.161 C 
ATOM      2  C   LIG d   1      -2.802  77.610 116.174  0.00  0.00     0.016 C 
ATOM      3  C   LIG d   1      -1.940  77.905 115.092  0.00  0.00     0.038 C 
ATOM      4  C   LIG d   1      -1.002  76.976 114.618  0.00  0.00     0.028 C 
ATOM      5  C   LIG d   1      -0.521  76.000 115.687  0.00  0.00    -0.047 C 
ATOM      6  C   LIG d   1      -1.751  75.369 116.380  0.00  0.00     0.091 C 
ENDROOT
BRANCH   1   7
ATOM      7  O   LIG d   1      -4.007  75.891 117.182  0.00  0.00    -0.368 OA
BRANCH   7   8
ATOM      8  C   LIG d   1      -5.007  76.181 116.175  0.00  0.00     0.119 C 
BRANCH   8   9
ATOM      9  C   LIG d   1      -6.335  76.454 116.907  0.00  0.00     0.028 C 
ATOM     10  C   LIG d   1      -6.652  77.956 117.006  0.00  0.00     0.006 C 
ENDBRANCH   8   9
BRANCH   8  11
ATOM     11  C   LIG d   1      -5.276  74.961 115.289  0.00  0.00     0.028 C 
ATOM     12  C   LIG d   1      -6.033  73.844 116.026  0.00  0.00     0.006 C 
ENDBRANCH   8  11
ENDBRANCH   7   8
ENDBRANCH   1   7
BRANCH   6  13
ATOM     13  N   LIG d   1      -1.370  74.465 117.496  0.00  0.00    -0.311 N 
ATOM     14  C   LIG d   1      -0.589  74.839 118.509  0.00  0.00     0.210 C 
ATOM     15  C   LIG d   1      -0.304  73.746 119.543  0.00  0.00     0.109 C 
ATOM     16  O   LIG d   1      -0.132  75.981 118.664  0.00  0.00    -0.276 OA
ATOM     17  H   LIG d   1      -1.723  73.529 117.466  0.00  0.00     0.149 HD
ENDBRANCH   6  13
BRANCH   5  18
ATOM     18  N   LIG d   1       0.344  75.005 115.026  0.00  0.00     0.381 N 
ATOM     19  H   LIG d   1       1.276  75.077 115.383  0.00  0.00    -0.090 HD
ATOM     20  H   LIG d   1       0.368  75.199 114.040  0.00  0.00    -0.090 HD
ATOM     21  H   LIG d   1      -0.010  74.087 115.183  0.00  0.00    -0.090 HD
ENDBRANCH   5  18
BRANCH   3  22
ATOM     22  C   LIG d   1      -1.985  79.157 114.499  0.00  0.00     0.382 C 
ATOM     23  O   LIG d   1      -1.168  80.044 114.844  0.00  0.00    -0.241 OA
ATOM     24  O   LIG d   1      -2.861  79.425 113.655  0.00  0.00    -0.241 OA
ENDBRANCH   3  22
TORSDOF 7
ENDMDL
MODEL 5
REMARK VINA RESULT:      -4.6     12.768     14.187
REMARK  7 active torsions:
REMARK  status: ('A' for Active; 'I' for Inactive)
REMARK    1  A    between atoms: C_2  and  C_3 
REMARK    2  A    between atoms: C_3  and  O_6 
REMARK    3  A    between atoms: C_3  and  C_4 
REMARK    4  A    between atoms: C_7  and  O_6 
REMARK    5  A    between atoms: C_9  and  C_10 
REMARK    6  A    between atoms: N_15  and  C_14 
REMARK    7  A    between atoms: N_20  and  C_19 
REMARK       I    between atoms: C_22  and  N_20 
ROOT
ATOM      1  C   LIG d   1       1.101  88.376 117.069  0.00  0.00     0.161 C 
ATOM      2  C   LIG d   1      -0.277  88.247 117.310  0.00  0.00     0.016 C 
ATOM      3  C   LIG d   1      -1.100  89.322 117.717  0.00  0.00     0.038 C 
ATOM      4  C   LIG d   1      -0.627  90.642 117.765  0.00  0.00     0.028 C 
ATOM      5  C   LIG d   1       0.874  90.738 118.019  0.00  0.00    -0.047 C 
ATOM      6  C   LIG d   1       1.613  89.830 117.009  0.00  0.00     0.091 C 
ENDROOT
BRANCH   1   7
ATOM      7  O   LIG d   1       1.455  87.670 115.864  0.00  0.00    -0.368 OA
BRANCH   7   8
ATOM      8  C   LIG d   1       1.779  86.266 116.020  0.00  0.00     0.119 C 
BRANCH   8   9
ATOM      9  C   LIG d   1       3.178  86.183 116.660  0.00  0.00     0.028 C 
ATOM     10  C   LIG d   1       4.305  86.210 115.614  0.00  0.00     0.006 C 
ENDBRANCH   8   9
BRANCH   8  11
ATOM     11  C   LIG d   1       1.913  85.571 114.661  0.00  0.00     0.028 C 
ATOM     12  C   LIG d   1       1.012  86.193 113.583  0.00  0.00     0.006 C 
ENDBRANCH   8  11
ENDBRANCH   7   8
ENDBRANCH   1   7
BRANCH   6  13
ATOM     13  N   LIG d   1       3.081  89.800 117.242  0.00  0.00    -0.311 N 
ATOM     14  C   LIG d   1       3.980  89.858 116.262  0.00  0.00     0.210 C 
ATOM     15  C   LIG d   1       5.441  89.792 116.719  0.00  0.00     0.109 C 
ATOM     16  O   LIG d   1       3.708  89.989 115.059  0.00  0.00    -0.276 OA
ATOM     17  H   LIG d   1       3.390  89.727 118.192  0.00  0.00     0.149 HD
ENDBRANCH   6  13
BRANCH   5  18
ATOM     18  N   LIG d   1       1.255  92.158 117.907  0.00  0.00     0.381 N 
ATOM     19  H   LIG d   1       0.469  92.697 117.601  0.00  0.00    -0.090 HD
ATOM     20  H   LIG d   1       1.984  92.246 117.221  0.00  0.00    -0.090 HD
ATOM     21  H   LIG d   1       1.576  92.496 118.788  0.00  0.00    -0.090 HD
ENDBRANCH   5  18
BRANCH   3  22
ATOM     22  C   LIG d   1      -2.404  89.075 118.119  0.00  0.00     0.382 C 
ATOM     23  O   LIG d   1      -3.358  89.653 117.545  0.00  0.00    -0.241 OA
ATOM     24  O   LIG d   1      -2.636  88.316 119.079  0.00  0.00    -0.241 OA
ENDBRANCH   3  22
TORSDOF 7
ENDMDL
MODEL 6
REMARK VINA RESULT:      -4.6     17.724     19.805
REMARK  7 active torsions:
REMARK  status: ('A' for Active; 'I' for Inactive)
REMARK    1  A    between atoms: C_2  and  C_3 
REMARK    2  A    between atoms: C_3  and  O_6 
REMARK    3  A    between atoms: C_3  and  C_4 
REMARK    4  A    between atoms: C_7  and  O_6 
REMARK    5  A    between atoms: C_9  and  C_10 
REMARK    6  A    between atoms: N_15  and  C_14 
REMARK    7  A    between atoms: N_20  and  C_19 
REMARK       I    between atoms: C_22  and  N_20 
ROOT
ATOM      1  C   LIG d   1     -25.213  84.782 114.650  0.00  0.00     0.161 C 
ATOM      2  C   LIG d   1     -24.055  85.328 114.073  0.00  0.00     0.016 C 
ATOM      3  C   LIG d   1     -23.243  86.290 114.719  0.00  0.00     0.038 C 
ATOM      4  C   LIG d   1     -23.453  86.660 116.055  0.00  0.00     0.028 C 
ATOM      5  C   LIG d   1     -24.903  86.513 116.504  0.00  0.00    -0.047 C 
ATOM      6  C   LIG d   1     -25.396  85.091 116.151  0.00  0.00     0.091 C 
ENDROOT
BRANCH   1   7
ATOM      7  O   LIG d   1     -25.247  83.359 114.424  0.00  0.00    -0.368 OA
BRANCH   7   8
ATOM      8  C   LIG d   1     -23.979  82.666 114.530  0.00  0.00     0.119 C 
BRANCH   8   9
ATOM      9  C   LIG d   1     -24.022  81.470 113.560  0.00  0.00     0.028 C 
ATOM     10  C   LIG d   1     -24.489  80.175 114.246  0.00  0.00     0.006 C 
ENDBRANCH   8   9
BRANCH   8  11
ATOM     11  C   LIG d   1     -23.792  82.054 115.921  0.00  0.00     0.028 C 
ATOM     12  C   LIG d   1     -22.691  82.751 116.736  0.00  0.00     0.006 C 
ENDBRANCH   8  11
ENDBRANCH   7   8
ENDBRANCH   1   7
BRANCH   6  13
ATOM     13  N   LIG d   1     -26.832  84.891 116.479  0.00  0.00    -0.311 N 
ATOM     14  C   LIG d   1     -27.254  84.358 117.625  0.00  0.00     0.210 C 
ATOM     15  C   LIG d   1     -28.774  84.223 117.753  0.00  0.00     0.109 C 
ATOM     16  O   LIG d   1     -26.515  84.015 118.560  0.00  0.00    -0.276 OA
ATOM     17  H   LIG d   1     -27.501  85.170 115.789  0.00  0.00     0.149 HD
ENDBRANCH   6  13
BRANCH   5  18
ATOM     18  N   LIG d   1     -24.954  86.800 117.950  0.00  0.00     0.381 N 
ATOM     19  H   LIG d   1     -24.654  87.739 118.119  0.00  0.00    -0.090 HD
ATOM     20  H   LIG d   1     -24.326  86.177 118.427  0.00  0.00    -0.090 HD
ATOM     21  H   LIG d   1     -25.882  86.673 118.290  0.00  0.00    -0.090 HD
ENDBRANCH   5  18
BRANCH   3  22
ATOM     22  C   LIG d   1     -22.231  86.921 114.012  0.00  0.00     0.382 C 
ATOM     23  O   LIG d   1     -21.840  88.061 114.360  0.00  0.00    -0.241 OA
ATOM     24  O   LIG d   1     -21.735  86.384 113.003  0.00  0.00    -0.241 OA
ENDBRANCH   3  22
TORSDOF 7
ENDMDL
MODEL 7
REMARK VINA RESULT:      -4.5      3.892      6.456
REMARK  7 active torsions:
REMARK  status: ('A' for Active; 'I' for Inactive)
REMARK    1  A    between atoms: C_2  and  C_3 
REMARK    2  A    between atoms: C_3  and  O_6 
REMARK    3  A    between atoms: C_3  and  C_4 
REMARK    4  A    between atoms: C_7  and  O_6 
REMARK    5  A    between atoms: C_9  and  C_10 
REMARK    6  A    between atoms: N_15  and  C_14 
REMARK    7  A    between atoms: N_20  and  C_19 
REMARK       I    between atoms: C_22  and  N_20 
ROOT
ATOM      1  C   LIG d   1      -2.221  78.543 116.913  0.00  0.00     0.161 C 
ATOM      2  C   LIG d   1      -2.439  79.432 115.848  0.00  0.00     0.016 C 
ATOM      3  C   LIG d   1      -2.003  79.184 114.526  0.00  0.00     0.038 C 
ATOM      4  C   LIG d   1      -1.449  77.953 114.146  0.00  0.00     0.028 C 
ATOM      5  C   LIG d   1      -0.753  77.224 115.291  0.00  0.00    -0.047 C 
ATOM      6  C   LIG d   1      -1.717  77.145 116.496  0.00  0.00     0.091 C 
ENDROOT
BRANCH   1   7
ATOM      7  O   LIG d   1      -3.420  78.428 117.705  0.00  0.00    -0.368 OA
BRANCH   7   8
ATOM      8  C   LIG d   1      -4.620  79.005 117.134  0.00  0.00     0.119 C 
BRANCH   8   9
ATOM      9  C   LIG d   1      -5.200  79.985 118.172  0.00  0.00     0.028 C 
ATOM     10  C   LIG d   1      -6.308  80.875 117.583  0.00  0.00     0.006 C 
ENDBRANCH   8   9
BRANCH   8  11
ATOM     11  C   LIG d   1      -5.705  77.945 116.927  0.00  0.00     0.028 C 
ATOM     12  C   LIG d   1      -5.728  76.889 118.044  0.00  0.00     0.006 C 
ENDBRANCH   8  11
ENDBRANCH   7   8
ENDBRANCH   1   7
BRANCH   6  13
ATOM     13  N   LIG d   1      -1.086  76.521 117.688  0.00  0.00    -0.311 N 
ATOM     14  C   LIG d   1      -1.234  75.237 118.008  0.00  0.00     0.210 C 
ATOM     15  C   LIG d   1      -0.513  74.802 119.288  0.00  0.00     0.109 C 
ATOM     16  O   LIG d   1      -1.867  74.409 117.336  0.00  0.00    -0.276 OA
ATOM     17  H   LIG d   1      -0.529  77.114 118.272  0.00  0.00     0.149 HD
ENDBRANCH   6  13
BRANCH   5  18
ATOM     18  N   LIG d   1      -0.344  75.897 114.791  0.00  0.00     0.381 N 
ATOM     19  H   LIG d   1      -0.407  75.878 113.792  0.00  0.00    -0.090 HD
ATOM     20  H   LIG d   1      -0.969  75.203 115.160  0.00  0.00    -0.090 HD
ATOM     21  H   LIG d   1       0.590  75.699 115.076  0.00  0.00    -0.090 HD
ENDBRANCH   5  18
BRANCH   3  22
ATOM     22  C   LIG d   1      -2.084  80.191 113.575  0.00  0.00     0.382 C 
ATOM     23  O   LIG d   1      -1.047  80.803 113.221  0.00  0.00    -0.241 OA
ATOM     24  O   LIG d   1      -3.186  80.525 113.100  0.00  0.00    -0.241 OA
ENDBRANCH   3  22
TORSDOF 7
ENDMDL
MODEL 8
REMARK VINA RESULT:      -4.5     14.077     16.646
REMARK  7 active torsions:
REMARK  status: ('A' for Active; 'I' for Inactive)
REMARK    1  A    between atoms: C_2  and  C_3 
REMARK    2  A    between atoms: C_3  and  O_6 
REMARK    3  A    between atoms: C_3  and  C_4 
REMARK    4  A    between atoms: C_7  and  O_6 
REMARK    5  A    between atoms: C_9  and  C_10 
REMARK    6  A    between atoms: N_15  and  C_14 
REMARK    7  A    between atoms: N_20  and  C_19 
REMARK       I    between atoms: C_22  and  N_20 
ROOT
ATOM      1  C   LIG d   1       4.447  88.089 116.839  0.00  0.00     0.161 C 
ATOM      2  C   LIG d   1       3.839  89.355 116.827  0.00  0.00     0.016 C 
ATOM      3  C   LIG d   1       4.540  90.558 117.073  0.00  0.00     0.038 C 
ATOM      4  C   LIG d   1       5.936  90.589 117.199  0.00  0.00     0.028 C 
ATOM      5  C   LIG d   1       6.527  89.283 117.721  0.00  0.00    -0.047 C 
ATOM      6  C   LIG d   1       5.990  88.113 116.866  0.00  0.00     0.091 C 
ENDROOT
BRANCH   1   7
ATOM      7  O   LIG d   1       3.977  87.310 115.721  0.00  0.00    -0.368 OA
BRANCH   7   8
ATOM      8  C   LIG d   1       2.864  87.867 114.979  0.00  0.00     0.119 C 
BRANCH   8   9
ATOM      9  C   LIG d   1       1.679  86.892 115.121  0.00  0.00     0.028 C 
ATOM     10  C   LIG d   1       1.151  86.408 113.761  0.00  0.00     0.006 C 
ENDBRANCH   8   9
BRANCH   8  11
ATOM     11  C   LIG d   1       3.167  87.921 113.479  0.00  0.00     0.028 C 
ATOM     12  C   LIG d   1       4.638  88.247 113.179  0.00  0.00     0.006 C 
ENDBRANCH   8  11
ENDBRANCH   7   8
ENDBRANCH   1   7
BRANCH   6  13
ATOM     13  N   LIG d   1       6.452  86.790 117.361  0.00  0.00    -0.311 N 
ATOM     14  C   LIG d   1       7.584  86.213 116.962  0.00  0.00     0.210 C 
ATOM     15  C   LIG d   1       7.863  84.840 117.581  0.00  0.00     0.109 C 
ATOM     16  O   LIG d   1       8.399  86.721 116.178  0.00  0.00    -0.276 OA
ATOM     17  H   LIG d   1       5.866  86.321 118.023  0.00  0.00     0.149 HD
ENDBRANCH   6  13
BRANCH   5  18
ATOM     18  N   LIG d   1       7.996  89.408 117.673  0.00  0.00     0.381 N 
ATOM     19  H   LIG d   1       8.313  89.977 118.432  0.00  0.00    -0.090 HD
ATOM     20  H   LIG d   1       8.256  89.857 116.813  0.00  0.00    -0.090 HD
ATOM     21  H   LIG d   1       8.417  88.506 117.726  0.00  0.00    -0.090 HD
ENDBRANCH   5  18
BRANCH   3  22
ATOM     22  C   LIG d   1       3.837  91.742 117.234  0.00  0.00     0.382 C 
ATOM     23  O   LIG d   1       2.589  91.753 117.103  0.00  0.00    -0.241 OA
ATOM     24  O   LIG d   1       4.439  92.808 117.465  0.00  0.00    -0.241 OA
ENDBRANCH   3  22
TORSDOF 7
ENDMDL
MODEL 9
REMARK VINA RESULT:      -4.5     17.083     19.691
REMARK  7 active torsions:
REMARK  status: ('A' for Active; 'I' for Inactive)
REMARK    1  A    between atoms: C_2  and  C_3 
REMARK    2  A    between atoms: C_3  and  O_6 
REMARK    3  A    between atoms: C_3  and  C_4 
REMARK    4  A    between atoms: C_7  and  O_6 
REMARK    5  A    between atoms: C_9  and  C_10 
REMARK    6  A    between atoms: N_15  and  C_14 
REMARK    7  A    between atoms: N_20  and  C_19 
REMARK       I    between atoms: C_22  and  N_20 
ROOT
ATOM      1  C   LIG d   1     -23.810  83.586 114.357  0.00  0.00     0.161 C 
ATOM      2  C   LIG d   1     -22.925  84.677 114.373  0.00  0.00     0.016 C 
ATOM      3  C   LIG d   1     -23.306  85.994 114.029  0.00  0.00     0.038 C 
ATOM      4  C   LIG d   1     -24.645  86.339 113.789  0.00  0.00     0.028 C 
ATOM      5  C   LIG d   1     -25.486  85.179 113.269  0.00  0.00    -0.047 C 
ATOM      6  C   LIG d   1     -25.299  83.964 114.206  0.00  0.00     0.091 C 
ENDROOT
BRANCH   1   7
ATOM      7  O   LIG d   1     -23.615  82.781 115.537  0.00  0.00    -0.368 OA
BRANCH   7   8
ATOM      8  C   LIG d   1     -24.160  83.313 116.769  0.00  0.00     0.119 C 
BRANCH   8   9
ATOM      9  C   LIG d   1     -22.980  83.558 117.730  0.00  0.00     0.028 C 
ATOM     10  C   LIG d   1     -21.752  82.701 117.381  0.00  0.00     0.006 C 
ENDBRANCH   8   9
BRANCH   8  11
ATOM     11  C   LIG d   1     -25.050  82.285 117.474  0.00  0.00     0.028 C 
ATOM     12  C   LIG d   1     -25.075  80.927 116.756  0.00  0.00     0.006 C 
ENDBRANCH   8  11
ENDBRANCH   7   8
ENDBRANCH   1   7
BRANCH   6  13
ATOM     13  N   LIG d   1     -26.021  82.758 113.723  0.00  0.00    -0.311 N 
ATOM     14  C   LIG d   1     -27.233  82.409 114.153  0.00  0.00     0.210 C 
ATOM     15  C   LIG d   1     -27.789  81.119 113.541  0.00  0.00     0.109 C 
ATOM     16  O   LIG d   1     -27.913  83.061 114.959  0.00  0.00    -0.276 OA
ATOM     17  H   LIG d   1     -25.556  82.189 113.044  0.00  0.00     0.149 HD
ENDBRANCH   6  13
BRANCH   5  18
ATOM     18  N   LIG d   1     -26.885  85.641 113.195  0.00  0.00     0.381 N 
ATOM     19  H   LIG d   1     -26.910  86.640 113.156  0.00  0.00    -0.090 HD
ATOM     20  H   LIG d   1     -27.370  85.345 114.024  0.00  0.00    -0.090 HD
ATOM     21  H   LIG d   1     -27.328  85.259 112.388  0.00  0.00    -0.090 HD
ENDBRANCH   5  18
BRANCH   3  22
ATOM     22  C   LIG d   1     -22.337  86.974 113.882  0.00  0.00     0.382 C 
ATOM     23  O   LIG d   1     -22.417  88.039 114.540  0.00  0.00    -0.241 OA
ATOM     24  O   LIG d   1     -21.406  86.825 113.068  0.00  0.00    -0.241 OA
ENDBRANCH   3  22
TORSDOF 7
ENDMDL
