MODEL 1
REMARK VINA RESULT:      -6.2      0.000      0.000
REMARK  7 active torsions:
REMARK  status: ('A' for Active; 'I' for Inactive)
REMARK    1  A    between atoms: C_2  and  C_3 
REMARK    2  A    between atoms: C_3  and  O_6 
REMARK    3  A    between atoms: C_3  and  C_4 
REMARK    4  A    between atoms: C_7  and  O_6 
REMARK    5  A    between atoms: C_9  and  C_10 
REMARK    6  A    between atoms: N_15  and  C_14 
REMARK    7  A    between atoms: N_20  and  C_19 
REMARK       I    between atoms: C_22  and  N_20 
ROOT
ATOM      1  C   LIG d   1      -7.365  77.046 117.704  0.00  0.00     0.161 C 
ATOM      2  C   LIG d   1      -8.513  77.820 117.940  0.00  0.00     0.016 C 
ATOM      3  C   LIG d   1      -8.484  79.224 118.104  0.00  0.00     0.038 C 
ATOM      4  C   LIG d   1      -7.317  79.972 117.891  0.00  0.00     0.028 C 
ATOM      5  C   LIG d   1      -6.037  79.183 118.149  0.00  0.00    -0.047 C 
ATOM      6  C   LIG d   1      -6.098  77.856 117.359  0.00  0.00     0.091 C 
ENDROOT
BRANCH   1   7
ATOM      7  O   LIG d   1      -7.634  76.074 116.674  0.00  0.00    -0.368 OA
BRANCH   7   8
ATOM      8  C   LIG d   1      -7.956  74.736 117.129  0.00  0.00     0.119 C 
BRANCH   8   9
ATOM      9  C   LIG d   1      -7.163  73.747 116.253  0.00  0.00     0.028 C 
ATOM     10  C   LIG d   1      -6.106  74.448 115.384  0.00  0.00     0.006 C 
ENDBRANCH   8   9
BRANCH   8  11
ATOM     11  C   LIG d   1      -9.430  74.404 116.884  0.00  0.00     0.028 C 
ATOM     12  C   LIG d   1      -9.655  72.930 116.512  0.00  0.00     0.006 C 
ENDBRANCH   8  11
ENDBRANCH   7   8
ENDBRANCH   1   7
BRANCH   6  13
ATOM     13  N   LIG d   1      -4.922  76.986 117.621  0.00  0.00    -0.311 N 
ATOM     14  C   LIG d   1      -3.838  76.966 116.847  0.00  0.00     0.210 C 
ATOM     15  C   LIG d   1      -2.749  75.981 117.285  0.00  0.00     0.109 C 
ATOM     16  O   LIG d   1      -3.661  77.693 115.858  0.00  0.00    -0.276 OA
ATOM     17  H   LIG d   1      -4.968  76.386 118.421  0.00  0.00     0.149 HD
ENDBRANCH   6  13
BRANCH   5  18
ATOM     18  N   LIG d   1      -4.900  80.038 117.757  0.00  0.00     0.381 N 
ATOM     19  H   LIG d   1      -5.091  80.989 118.004  0.00  0.00    -0.090 HD
ATOM     20  H   LIG d   1      -4.784  79.988 116.760  0.00  0.00    -0.090 HD
ATOM     21  H   LIG d   1      -4.069  79.729 118.212  0.00  0.00    -0.090 HD
ENDBRANCH   5  18
BRANCH   3  22
ATOM     22  C   LIG d   1      -9.626  79.890 118.524  0.00  0.00     0.382 C 
ATOM     23  O   LIG d   1     -10.036  80.892 117.889  0.00  0.00    -0.241 OA
ATOM     24  O   LIG d   1     -10.224  79.530 119.555  0.00  0.00    -0.241 OA
ENDBRANCH   3  22
TORSDOF 7
ENDMDL
MODEL 2
REMARK VINA RESULT:      -6.0      2.072      5.364
REMARK  7 active torsions:
REMARK  status: ('A' for Active; 'I' for Inactive)
REMARK    1  A    between atoms: C_2  and  C_3 
REMARK    2  A    between atoms: C_3  and  O_6 
REMARK    3  A    between atoms: C_3  and  C_4 
REMARK    4  A    between atoms: C_7  and  O_6 
REMARK    5  A    between atoms: C_9  and  C_10 
REMARK    6  A    between atoms: N_15  and  C_14 
REMARK    7  A    between atoms: N_20  and  C_19 
REMARK       I    between atoms: C_22  and  N_20 
ROOT
ATOM      1  C   LIG d   1      -5.609  75.803 116.540  0.00  0.00     0.161 C 
ATOM      2  C   LIG d   1      -6.258  74.612 116.175  0.00  0.00     0.016 C 
ATOM      3  C   LIG d   1      -7.624  74.358 116.436  0.00  0.00     0.038 C 
ATOM      4  C   LIG d   1      -8.477  75.346 116.950  0.00  0.00     0.028 C 
ATOM      5  C   LIG d   1      -7.755  76.387 117.799  0.00  0.00    -0.047 C 
ATOM      6  C   LIG d   1      -6.550  76.936 117.002  0.00  0.00     0.091 C 
ENDROOT
BRANCH   1   7
ATOM      7  O   LIG d   1      -4.773  76.256 115.457  0.00  0.00    -0.368 OA
BRANCH   7   8
ATOM      8  C   LIG d   1      -3.371  75.899 115.542  0.00  0.00     0.119 C 
BRANCH   8   9
ATOM      9  C   LIG d   1      -3.028  75.720 117.034  0.00  0.00     0.028 C 
ATOM     10  C   LIG d   1      -1.688  74.995 117.245  0.00  0.00     0.006 C 
ENDBRANCH   8   9
BRANCH   8  11
ATOM     11  C   LIG d   1      -2.474  77.040 115.054  0.00  0.00     0.028 C 
ATOM     12  C   LIG d   1      -2.688  78.343 115.840  0.00  0.00     0.006 C 
ENDBRANCH   8  11
ENDBRANCH   7   8
ENDBRANCH   1   7
BRANCH   6  13
ATOM     13  N   LIG d   1      -5.740  77.900 117.791  0.00  0.00    -0.311 N 
ATOM     14  C   LIG d   1      -5.997  79.206 117.842  0.00  0.00     0.210 C 
ATOM     15  C   LIG d   1      -5.026  80.024 118.699  0.00  0.00     0.109 C 
ATOM     16  O   LIG d   1      -6.957  79.759 117.285  0.00  0.00    -0.276 OA
ATOM     17  H   LIG d   1      -4.960  77.531 118.300  0.00  0.00     0.149 HD
ENDBRANCH   6  13
BRANCH   5  18
ATOM     18  N   LIG d   1      -8.736  77.430 118.154  0.00  0.00     0.381 N 
ATOM     19  H   LIG d   1      -8.804  78.099 117.414  0.00  0.00    -0.090 HD
ATOM     20  H   LIG d   1      -8.420  77.905 118.981  0.00  0.00    -0.090 HD
ATOM     21  H   LIG d   1      -9.628  77.017 118.321  0.00  0.00    -0.090 HD
ENDBRANCH   5  18
BRANCH   3  22
ATOM     22  C   LIG d   1      -8.140  73.089 116.220  0.00  0.00     0.382 C 
ATOM     23  O   LIG d   1      -9.346  72.852 116.472  0.00  0.00    -0.241 OA
ATOM     24  O   LIG d   1      -7.405  72.168 115.818  0.00  0.00    -0.241 OA
ENDBRANCH   3  22
TORSDOF 7
ENDMDL
MODEL 3
REMARK VINA RESULT:      -5.7      1.708      4.740
REMARK  7 active torsions:
REMARK  status: ('A' for Active; 'I' for Inactive)
REMARK    1  A    between atoms: C_2  and  C_3 
REMARK    2  A    between atoms: C_3  and  O_6 
REMARK    3  A    between atoms: C_3  and  C_4 
REMARK    4  A    between atoms: C_7  and  O_6 
REMARK    5  A    between atoms: C_9  and  C_10 
REMARK    6  A    between atoms: N_15  and  C_14 
REMARK    7  A    between atoms: N_20  and  C_19 
REMARK       I    between atoms: C_22  and  N_20 
ROOT
ATOM      1  C   LIG d   1      -7.026  75.941 117.000  0.00  0.00     0.161 C 
ATOM      2  C   LIG d   1      -6.025  75.604 116.074  0.00  0.00     0.016 C 
ATOM      3  C   LIG d   1      -4.735  76.182 116.079  0.00  0.00     0.038 C 
ATOM      4  C   LIG d   1      -4.307  77.033 117.109  0.00  0.00     0.028 C 
ATOM      5  C   LIG d   1      -5.447  77.791 117.781  0.00  0.00    -0.047 C 
ATOM      6  C   LIG d   1      -6.542  76.784 118.198  0.00  0.00     0.091 C 
ENDROOT
BRANCH   1   7
ATOM      7  O   LIG d   1      -7.687  74.746 117.461  0.00  0.00    -0.368 OA
BRANCH   7   8
ATOM      8  C   LIG d   1      -8.118  73.819 116.435  0.00  0.00     0.119 C 
BRANCH   8   9
ATOM      9  C   LIG d   1      -9.655  73.732 116.505  0.00  0.00     0.028 C 
ATOM     10  C   LIG d   1     -10.294  75.039 117.003  0.00  0.00     0.006 C 
ENDBRANCH   8   9
BRANCH   8  11
ATOM     11  C   LIG d   1      -7.618  72.399 116.721  0.00  0.00     0.028 C 
ATOM     12  C   LIG d   1      -8.761  71.410 116.999  0.00  0.00     0.006 C 
ENDBRANCH   8  11
ENDBRANCH   7   8
ENDBRANCH   1   7
BRANCH   6  13
ATOM     13  N   LIG d   1      -7.732  77.452 118.788  0.00  0.00    -0.311 N 
ATOM     14  C   LIG d   1      -8.192  78.630 118.371  0.00  0.00     0.210 C 
ATOM     15  C   LIG d   1      -9.419  79.150 119.128  0.00  0.00     0.109 C 
ATOM     16  O   LIG d   1      -7.721  79.279 117.425  0.00  0.00    -0.276 OA
ATOM     17  H   LIG d   1      -8.194  76.980 119.540  0.00  0.00     0.149 HD
ENDBRANCH   6  13
BRANCH   5  18
ATOM     18  N   LIG d   1      -4.877  78.531 118.923  0.00  0.00     0.381 N 
ATOM     19  H   LIG d   1      -4.226  79.215 118.592  0.00  0.00    -0.090 HD
ATOM     20  H   LIG d   1      -4.385  77.887 119.516  0.00  0.00    -0.090 HD
ATOM     21  H   LIG d   1      -5.605  78.977 119.437  0.00  0.00    -0.090 HD
ENDBRANCH   5  18
BRANCH   3  22
ATOM     22  C   LIG d   1      -3.870  75.943 115.021  0.00  0.00     0.382 C 
ATOM     23  O   LIG d   1      -4.288  76.018 113.841  0.00  0.00    -0.241 OA
ATOM     24  O   LIG d   1      -2.689  75.608 115.234  0.00  0.00    -0.241 OA
ENDBRANCH   3  22
TORSDOF 7
ENDMDL
MODEL 4
REMARK VINA RESULT:      -5.1      4.746      6.603
REMARK  7 active torsions:
REMARK  status: ('A' for Active; 'I' for Inactive)
REMARK    1  A    between atoms: C_2  and  C_3 
REMARK    2  A    between atoms: C_3  and  O_6 
REMARK    3  A    between atoms: C_3  and  C_4 
REMARK    4  A    between atoms: C_7  and  O_6 
REMARK    5  A    between atoms: C_9  and  C_10 
REMARK    6  A    between atoms: N_15  and  C_14 
REMARK    7  A    between atoms: N_20  and  C_19 
REMARK       I    between atoms: C_22  and  N_20 
ROOT
ATOM      1  C   LIG d   1      -1.716  79.421 116.260  0.00  0.00     0.161 C 
ATOM      2  C   LIG d   1      -2.036  80.692 115.754  0.00  0.00     0.016 C 
ATOM      3  C   LIG d   1      -2.237  80.954 114.379  0.00  0.00     0.038 C 
ATOM      4  C   LIG d   1      -2.280  79.925 113.427  0.00  0.00     0.028 C 
ATOM      5  C   LIG d   1      -1.463  78.699 113.822  0.00  0.00    -0.047 C 
ATOM      6  C   LIG d   1      -1.867  78.265 115.250  0.00  0.00     0.091 C 
ENDROOT
BRANCH   1   7
ATOM      7  O   LIG d   1      -2.493  79.157 117.445  0.00  0.00    -0.368 OA
BRANCH   7   8
ATOM      8  C   LIG d   1      -3.860  78.728 117.227  0.00  0.00     0.119 C 
BRANCH   8   9
ATOM      9  C   LIG d   1      -4.784  79.844 117.752  0.00  0.00     0.028 C 
ATOM     10  C   LIG d   1      -4.624  80.077 119.264  0.00  0.00     0.006 C 
ENDBRANCH   8   9
BRANCH   8  11
ATOM     11  C   LIG d   1      -4.198  77.494 118.069  0.00  0.00     0.028 C 
ATOM     12  C   LIG d   1      -2.965  76.888 118.758  0.00  0.00     0.006 C 
ENDBRANCH   8  11
ENDBRANCH   7   8
ENDBRANCH   1   7
BRANCH   6  13
ATOM     13  N   LIG d   1      -1.056  77.124 115.747  0.00  0.00    -0.311 N 
ATOM     14  C   LIG d   1      -1.438  75.852 115.643  0.00  0.00     0.210 C 
ATOM     15  C   LIG d   1      -0.462  74.833 116.238  0.00  0.00     0.109 C 
ATOM     16  O   LIG d   1      -2.478  75.470 115.086  0.00  0.00    -0.276 OA
ATOM     17  H   LIG d   1      -0.182  77.342 116.185  0.00  0.00     0.149 HD
ENDBRANCH   6  13
BRANCH   5  18
ATOM     18  N   LIG d   1      -1.707  77.655 112.810  0.00  0.00     0.381 N 
ATOM     19  H   LIG d   1      -1.050  77.749 112.061  0.00  0.00    -0.090 HD
ATOM     20  H   LIG d   1      -2.631  77.775 112.435  0.00  0.00    -0.090 HD
ATOM     21  H   LIG d   1      -1.623  76.753 113.223  0.00  0.00    -0.090 HD
ENDBRANCH   5  18
BRANCH   3  22
ATOM     22  C   LIG d   1      -2.359  82.263 113.940  0.00  0.00     0.382 C 
ATOM     23  O   LIG d   1      -1.927  82.587 112.807  0.00  0.00    -0.241 OA
ATOM     24  O   LIG d   1      -2.855  83.134 114.679  0.00  0.00    -0.241 OA
ENDBRANCH   3  22
TORSDOF 7
ENDMDL
MODEL 5
REMARK VINA RESULT:      -5.1      2.377      3.258
REMARK  7 active torsions:
REMARK  status: ('A' for Active; 'I' for Inactive)
REMARK    1  A    between atoms: C_2  and  C_3 
REMARK    2  A    between atoms: C_3  and  O_6 
REMARK    3  A    between atoms: C_3  and  C_4 
REMARK    4  A    between atoms: C_7  and  O_6 
REMARK    5  A    between atoms: C_9  and  C_10 
REMARK    6  A    between atoms: N_15  and  C_14 
REMARK    7  A    between atoms: N_20  and  C_19 
REMARK       I    between atoms: C_22  and  N_20 
ROOT
ATOM      1  C   LIG d   1      -4.554  76.732 117.566  0.00  0.00     0.161 C 
ATOM      2  C   LIG d   1      -5.456  77.772 117.843  0.00  0.00     0.016 C 
ATOM      3  C   LIG d   1      -5.149  79.139 117.653  0.00  0.00     0.038 C 
ATOM      4  C   LIG d   1      -3.964  79.553 117.026  0.00  0.00     0.028 C 
ATOM      5  C   LIG d   1      -2.814  78.565 117.193  0.00  0.00    -0.047 C 
ATOM      6  C   LIG d   1      -3.297  77.157 116.777  0.00  0.00     0.091 C 
ENDROOT
BRANCH   1   7
ATOM      7  O   LIG d   1      -5.236  75.663 116.881  0.00  0.00    -0.368 OA
BRANCH   7   8
ATOM      8  C   LIG d   1      -6.494  76.010 116.251  0.00  0.00     0.119 C 
BRANCH   8   9
ATOM      9  C   LIG d   1      -7.601  75.192 116.945  0.00  0.00     0.028 C 
ATOM     10  C   LIG d   1      -7.481  73.685 116.664  0.00  0.00     0.006 C 
ENDBRANCH   8   9
BRANCH   8  11
ATOM     11  C   LIG d   1      -6.523  75.569 114.785  0.00  0.00     0.028 C 
ATOM     12  C   LIG d   1      -5.133  75.189 114.249  0.00  0.00     0.006 C 
ENDBRANCH   8  11
ENDBRANCH   7   8
ENDBRANCH   1   7
BRANCH   6  13
ATOM     13  N   LIG d   1      -2.259  76.116 116.989  0.00  0.00    -0.311 N 
ATOM     14  C   LIG d   1      -1.467  75.661 116.019  0.00  0.00     0.210 C 
ATOM     15  C   LIG d   1      -0.479  74.573 116.447  0.00  0.00     0.109 C 
ATOM     16  O   LIG d   1      -1.469  76.079 114.851  0.00  0.00    -0.276 OA
ATOM     17  H   LIG d   1      -2.168  75.743 117.914  0.00  0.00     0.149 HD
ENDBRANCH   6  13
BRANCH   5  18
ATOM     18  N   LIG d   1      -1.686  79.053 116.377  0.00  0.00     0.381 N 
ATOM     19  H   LIG d   1      -1.304  79.882 116.788  0.00  0.00    -0.090 HD
ATOM     20  H   LIG d   1      -2.024  79.283 115.459  0.00  0.00    -0.090 HD
ATOM     21  H   LIG d   1      -0.982  78.351 116.313  0.00  0.00    -0.090 HD
ENDBRANCH   5  18
BRANCH   3  22
ATOM     22  C   LIG d   1      -6.016  80.111 118.129  0.00  0.00     0.382 C 
ATOM     23  O   LIG d   1      -6.854  80.636 117.358  0.00  0.00    -0.241 OA
ATOM     24  O   LIG d   1      -5.941  80.501 119.310  0.00  0.00    -0.241 OA
ENDBRANCH   3  22
TORSDOF 7
ENDMDL
MODEL 6
REMARK VINA RESULT:      -5.0      2.544      5.497
REMARK  7 active torsions:
REMARK  status: ('A' for Active; 'I' for Inactive)
REMARK    1  A    between atoms: C_2  and  C_3 
REMARK    2  A    between atoms: C_3  and  O_6 
REMARK    3  A    between atoms: C_3  and  C_4 
REMARK    4  A    between atoms: C_7  and  O_6 
REMARK    5  A    between atoms: C_9  and  C_10 
REMARK    6  A    between atoms: N_15  and  C_14 
REMARK    7  A    between atoms: N_20  and  C_19 
REMARK       I    between atoms: C_22  and  N_20 
ROOT
ATOM      1  C   LIG d   1      -4.540  77.483 117.363  0.00  0.00     0.161 C 
ATOM      2  C   LIG d   1      -3.646  78.513 117.697  0.00  0.00     0.016 C 
ATOM      3  C   LIG d   1      -2.332  78.601 117.182  0.00  0.00     0.038 C 
ATOM      4  C   LIG d   1      -1.872  77.740 116.174  0.00  0.00     0.028 C 
ATOM      5  C   LIG d   1      -2.564  76.382 116.175  0.00  0.00    -0.047 C 
ATOM      6  C   LIG d   1      -4.094  76.598 116.180  0.00  0.00     0.091 C 
ENDROOT
BRANCH   1   7
ATOM      7  O   LIG d   1      -5.848  78.034 117.111  0.00  0.00    -0.368 OA
BRANCH   7   8
ATOM      8  C   LIG d   1      -6.731  78.129 118.256  0.00  0.00     0.119 C 
BRANCH   8   9
ATOM      9  C   LIG d   1      -7.400  76.753 118.440  0.00  0.00     0.028 C 
ATOM     10  C   LIG d   1      -8.531  76.510 117.427  0.00  0.00     0.006 C 
ENDBRANCH   8   9
BRANCH   8  11
ATOM     11  C   LIG d   1      -7.880  79.107 117.995  0.00  0.00     0.028 C 
ATOM     12  C   LIG d   1      -7.400  80.556 117.819  0.00  0.00     0.006 C 
ENDBRANCH   8  11
ENDBRANCH   7   8
ENDBRANCH   1   7
BRANCH   6  13
ATOM     13  N   LIG d   1      -4.847  75.320 116.266  0.00  0.00    -0.311 N 
ATOM     14  C   LIG d   1      -5.856  75.007 115.454  0.00  0.00     0.210 C 
ATOM     15  C   LIG d   1      -6.508  73.648 115.727  0.00  0.00     0.109 C 
ATOM     16  O   LIG d   1      -6.252  75.711 114.513  0.00  0.00    -0.276 OA
ATOM     17  H   LIG d   1      -4.572  74.675 116.981  0.00  0.00     0.149 HD
ENDBRANCH   6  13
BRANCH   5  18
ATOM     18  N   LIG d   1      -2.089  75.638 114.992  0.00  0.00     0.381 N 
ATOM     19  H   LIG d   1      -2.662  74.831 114.847  0.00  0.00    -0.090 HD
ATOM     20  H   LIG d   1      -1.147  75.331 115.159  0.00  0.00    -0.090 HD
ATOM     21  H   LIG d   1      -2.117  76.225 114.187  0.00  0.00    -0.090 HD
ENDBRANCH   5  18
BRANCH   3  22
ATOM     22  C   LIG d   1      -1.449  79.533 117.705  0.00  0.00     0.382 C 
ATOM     23  O   LIG d   1      -0.264  79.204 117.954  0.00  0.00    -0.241 OA
ATOM     24  O   LIG d   1      -1.835  80.687 117.973  0.00  0.00    -0.241 OA
ENDBRANCH   3  22
TORSDOF 7
ENDMDL
MODEL 7
REMARK VINA RESULT:      -4.9      3.700      6.226
REMARK  7 active torsions:
REMARK  status: ('A' for Active; 'I' for Inactive)
REMARK    1  A    between atoms: C_2  and  C_3 
REMARK    2  A    between atoms: C_3  and  O_6 
REMARK    3  A    between atoms: C_3  and  C_4 
REMARK    4  A    between atoms: C_7  and  O_6 
REMARK    5  A    between atoms: C_9  and  C_10 
REMARK    6  A    between atoms: N_15  and  C_14 
REMARK    7  A    between atoms: N_20  and  C_19 
REMARK       I    between atoms: C_22  and  N_20 
ROOT
ATOM      1  C   LIG d   1      -2.747  76.502 115.475  0.00  0.00     0.161 C 
ATOM      2  C   LIG d   1      -2.471  75.558 116.477  0.00  0.00     0.016 C 
ATOM      3  C   LIG d   1      -1.508  75.760 117.493  0.00  0.00     0.038 C 
ATOM      4  C   LIG d   1      -0.859  76.992 117.664  0.00  0.00     0.028 C 
ATOM      5  C   LIG d   1      -0.736  77.797 116.375  0.00  0.00    -0.047 C 
ATOM      6  C   LIG d   1      -2.129  77.896 115.711  0.00  0.00     0.091 C 
ENDROOT
BRANCH   1   7
ATOM      7  O   LIG d   1      -4.172  76.611 115.285  0.00  0.00    -0.368 OA
BRANCH   7   8
ATOM      8  C   LIG d   1      -4.992  75.740 116.103  0.00  0.00     0.119 C 
BRANCH   8   9
ATOM      9  C   LIG d   1      -5.846  74.881 115.150  0.00  0.00     0.028 C 
ATOM     10  C   LIG d   1      -6.710  73.854 115.902  0.00  0.00     0.006 C 
ENDBRANCH   8   9
BRANCH   8  11
ATOM     11  C   LIG d   1      -5.995  76.541 116.937  0.00  0.00     0.028 C 
ATOM     12  C   LIG d   1      -5.320  77.409 118.011  0.00  0.00     0.006 C 
ENDBRANCH   8  11
ENDBRANCH   7   8
ENDBRANCH   1   7
BRANCH   6  13
ATOM     13  N   LIG d   1      -2.083  78.595 114.400  0.00  0.00    -0.311 N 
ATOM     14  C   LIG d   1      -2.402  79.879 114.243  0.00  0.00     0.210 C 
ATOM     15  C   LIG d   1      -2.306  80.398 112.805  0.00  0.00     0.109 C 
ATOM     16  O   LIG d   1      -2.723  80.646 115.164  0.00  0.00    -0.276 OA
ATOM     17  H   LIG d   1      -1.803  78.056 113.605  0.00  0.00     0.149 HD
ENDBRANCH   6  13
BRANCH   5  18
ATOM     18  N   LIG d   1      -0.167  79.112 116.723  0.00  0.00     0.381 N 
ATOM     19  H   LIG d   1       0.737  79.211 116.306  0.00  0.00    -0.090 HD
ATOM     20  H   LIG d   1      -0.062  79.167 117.721  0.00  0.00    -0.090 HD
ATOM     21  H   LIG d   1      -0.769  79.839 116.404  0.00  0.00    -0.090 HD
ENDBRANCH   5  18
BRANCH   3  22
ATOM     22  C   LIG d   1      -1.157  74.709 118.327  0.00  0.00     0.382 C 
ATOM     23  O   LIG d   1      -0.042  74.711 118.902  0.00  0.00    -0.241 OA
ATOM     24  O   LIG d   1      -1.923  73.738 118.476  0.00  0.00    -0.241 OA
ENDBRANCH   3  22
TORSDOF 7
ENDMDL
MODEL 8
REMARK VINA RESULT:      -4.9      4.297      6.610
REMARK  7 active torsions:
REMARK  status: ('A' for Active; 'I' for Inactive)
REMARK    1  A    between atoms: C_2  and  C_3 
REMARK    2  A    between atoms: C_3  and  O_6 
REMARK    3  A    between atoms: C_3  and  C_4 
REMARK    4  A    between atoms: C_7  and  O_6 
REMARK    5  A    between atoms: C_9  and  C_10 
REMARK    6  A    between atoms: N_15  and  C_14 
REMARK    7  A    between atoms: N_20  and  C_19 
REMARK       I    between atoms: C_22  and  N_20 
ROOT
ATOM      1  C   LIG d   1      -2.798  80.243 116.217  0.00  0.00     0.161 C 
ATOM      2  C   LIG d   1      -2.680  81.629 116.018  0.00  0.00     0.016 C 
ATOM      3  C   LIG d   1      -2.042  82.202 114.894  0.00  0.00     0.038 C 
ATOM      4  C   LIG d   1      -1.609  81.424 113.810  0.00  0.00     0.028 C 
ATOM      5  C   LIG d   1      -1.254  79.992 114.196  0.00  0.00    -0.047 C 
ATOM      6  C   LIG d   1      -2.430  79.381 114.991  0.00  0.00     0.091 C 
ENDROOT
BRANCH   1   7
ATOM      7  O   LIG d   1      -4.128  79.927 116.671  0.00  0.00    -0.368 OA
BRANCH   7   8
ATOM      8  C   LIG d   1      -4.352  80.015 118.100  0.00  0.00     0.119 C 
BRANCH   8   9
ATOM      9  C   LIG d   1      -3.416  78.996 118.779  0.00  0.00     0.028 C 
ATOM     10  C   LIG d   1      -3.923  77.551 118.640  0.00  0.00     0.006 C 
ENDBRANCH   8   9
BRANCH   8  11
ATOM     11  C   LIG d   1      -5.770  79.573 118.471  0.00  0.00     0.028 C 
ATOM     12  C   LIG d   1      -6.853  80.501 117.898  0.00  0.00     0.006 C 
ENDBRANCH   8  11
ENDBRANCH   7   8
ENDBRANCH   1   7
BRANCH   6  13
ATOM     13  N   LIG d   1      -2.132  78.009 115.480  0.00  0.00    -0.311 N 
ATOM     14  C   LIG d   1      -2.533  76.904 114.854  0.00  0.00     0.210 C 
ATOM     15  C   LIG d   1      -2.135  75.593 115.539  0.00  0.00     0.109 C 
ATOM     16  O   LIG d   1      -3.153  76.885 113.780  0.00  0.00    -0.276 OA
ATOM     17  H   LIG d   1      -1.606  77.932 116.329  0.00  0.00     0.149 HD
ENDBRANCH   6  13
BRANCH   5  18
ATOM     18  N   LIG d   1      -0.953  79.257 112.953  0.00  0.00     0.381 N 
ATOM     19  H   LIG d   1      -0.152  79.658 112.508  0.00  0.00    -0.090 HD
ATOM     20  H   LIG d   1      -1.735  79.340 112.328  0.00  0.00    -0.090 HD
ATOM     21  H   LIG d   1      -0.782  78.297 113.157  0.00  0.00    -0.090 HD
ENDBRANCH   5  18
BRANCH   3  22
ATOM     22  C   LIG d   1      -1.796  83.566 114.865  0.00  0.00     0.382 C 
ATOM     23  O   LIG d   1      -0.615  83.991 114.870  0.00  0.00    -0.241 OA
ATOM     24  O   LIG d   1      -2.740  84.379 114.878  0.00  0.00    -0.241 OA
ENDBRANCH   3  22
TORSDOF 7
ENDMDL
MODEL 9
REMARK VINA RESULT:      -4.9      3.918      6.976
REMARK  7 active torsions:
REMARK  status: ('A' for Active; 'I' for Inactive)
REMARK    1  A    between atoms: C_2  and  C_3 
REMARK    2  A    between atoms: C_3  and  O_6 
REMARK    3  A    between atoms: C_3  and  C_4 
REMARK    4  A    between atoms: C_7  and  O_6 
REMARK    5  A    between atoms: C_9  and  C_10 
REMARK    6  A    between atoms: N_15  and  C_14 
REMARK    7  A    between atoms: N_20  and  C_19 
REMARK       I    between atoms: C_22  and  N_20 
ROOT
ATOM      1  C   LIG d   1      -2.672  77.502 115.322  0.00  0.00     0.161 C 
ATOM      2  C   LIG d   1      -2.179  76.190 115.423  0.00  0.00     0.016 C 
ATOM      3  C   LIG d   1      -0.859  75.885 115.827  0.00  0.00     0.038 C 
ATOM      4  C   LIG d   1       0.017  76.870 116.306  0.00  0.00     0.028 C 
ATOM      5  C   LIG d   1      -0.268  78.259 115.744  0.00  0.00    -0.047 C 
ATOM      6  C   LIG d   1      -1.766  78.584 115.946  0.00  0.00     0.091 C 
ENDROOT
BRANCH   1   7
ATOM      7  O   LIG d   1      -3.997  77.570 115.886  0.00  0.00    -0.368 OA
BRANCH   7   8
ATOM      8  C   LIG d   1      -4.309  76.585 116.901  0.00  0.00     0.119 C 
BRANCH   8   9
ATOM      9  C   LIG d   1      -5.755  76.112 116.658  0.00  0.00     0.028 C 
ATOM     10  C   LIG d   1      -5.895  75.296 115.362  0.00  0.00     0.006 C 
ENDBRANCH   8   9
BRANCH   8  11
ATOM     11  C   LIG d   1      -4.316  77.209 118.300  0.00  0.00     0.028 C 
ATOM     12  C   LIG d   1      -3.016  76.946 119.076  0.00  0.00     0.006 C 
ENDBRANCH   8  11
ENDBRANCH   7   8
ENDBRANCH   1   7
BRANCH   6  13
ATOM     13  N   LIG d   1      -2.149  79.890 115.349  0.00  0.00    -0.311 N 
ATOM     14  C   LIG d   1      -2.181  81.029 116.038  0.00  0.00     0.210 C 
ATOM     15  C   LIG d   1      -2.622  82.258 115.236  0.00  0.00     0.109 C 
ATOM     16  O   LIG d   1      -1.856  81.145 117.229  0.00  0.00    -0.276 OA
ATOM     17  H   LIG d   1      -2.398  79.893 114.380  0.00  0.00     0.149 HD
ENDBRANCH   6  13
BRANCH   5  18
ATOM     18  N   LIG d   1       0.627  79.210 116.430  0.00  0.00     0.381 N 
ATOM     19  H   LIG d   1       1.020  78.779 117.243  0.00  0.00    -0.090 HD
ATOM     20  H   LIG d   1       0.091  80.008 116.723  0.00  0.00    -0.090 HD
ATOM     21  H   LIG d   1       1.354  79.498 115.814  0.00  0.00    -0.090 HD
ENDBRANCH   5  18
BRANCH   3  22
ATOM     22  C   LIG d   1      -0.390  74.584 115.717  0.00  0.00     0.382 C 
ATOM     23  O   LIG d   1      -0.201  74.080 114.583  0.00  0.00    -0.241 OA
ATOM     24  O   LIG d   1      -0.196  73.894 116.735  0.00  0.00    -0.241 OA
ENDBRANCH   3  22
TORSDOF 7
ENDMDL
