MODEL 1
REMARK VINA RESULT:      -5.3      0.000      0.000
REMARK  7 active torsions:
REMARK  status: ('A' for Active; 'I' for Inactive)
REMARK    1  A    between atoms: C_2  and  C_3 
REMARK    2  A    between atoms: C_3  and  O_6 
REMARK    3  A    between atoms: C_3  and  C_4 
REMARK    4  A    between atoms: C_7  and  O_6 
REMARK    5  A    between atoms: C_9  and  C_10 
REMARK    6  A    between atoms: N_15  and  C_14 
REMARK    7  A    between atoms: N_20  and  C_19 
REMARK       I    between atoms: C_22  and  N_20 
ROOT
ATOM      1  C   LIG d   1      -5.537  93.055 117.840  0.00  0.00     0.161 C 
ATOM      2  C   LIG d   1      -6.111  94.220 118.376  0.00  0.00     0.016 C 
ATOM      3  C   LIG d   1      -7.400  94.684 118.028  0.00  0.00     0.038 C 
ATOM      4  C   LIG d   1      -8.268  93.929 117.226  0.00  0.00     0.028 C 
ATOM      5  C   LIG d   1      -7.545  92.997 116.260  0.00  0.00    -0.047 C 
ATOM      6  C   LIG d   1      -6.513  92.159 117.049  0.00  0.00     0.091 C 
ENDROOT
BRANCH   1   7
ATOM      7  O   LIG d   1      -4.897  92.299 118.886  0.00  0.00    -0.368 OA
BRANCH   7   8
ATOM      8  C   LIG d   1      -3.469  92.494 119.032  0.00  0.00     0.119 C 
BRANCH   8   9
ATOM      9  C   LIG d   1      -2.912  92.887 117.650  0.00  0.00     0.028 C 
ATOM     10  C   LIG d   1      -1.935  94.073 117.727  0.00  0.00     0.006 C 
ENDBRANCH   8   9
BRANCH   8  11
ATOM     11  C   LIG d   1      -2.762  91.185 119.396  0.00  0.00     0.028 C 
ATOM     12  C   LIG d   1      -3.351  89.967 118.667  0.00  0.00     0.006 C 
ENDBRANCH   8  11
ENDBRANCH   7   8
ENDBRANCH   1   7
BRANCH   6  13
ATOM     13  N   LIG d   1      -5.702  91.280 116.166  0.00  0.00    -0.311 N 
ATOM     14  C   LIG d   1      -5.997  90.003 115.932  0.00  0.00     0.210 C 
ATOM     15  C   LIG d   1      -5.018  89.272 115.007  0.00  0.00     0.109 C 
ATOM     16  O   LIG d   1      -6.994  89.414 116.377  0.00  0.00    -0.276 OA
ATOM     17  H   LIG d   1      -4.892  91.686 115.739  0.00  0.00     0.149 HD
ENDBRANCH   6  13
BRANCH   5  18
ATOM     18  N   LIG d   1      -8.566  92.172 115.587  0.00  0.00     0.381 N 
ATOM     19  H   LIG d   1      -8.259  91.940 114.664  0.00  0.00    -0.090 HD
ATOM     20  H   LIG d   1      -9.416  92.703 115.513  0.00  0.00    -0.090 HD
ATOM     21  H   LIG d   1      -8.730  91.340 116.109  0.00  0.00    -0.090 HD
ENDBRANCH   5  18
BRANCH   3  22
ATOM     22  C   LIG d   1      -7.816  95.938 118.450  0.00  0.00     0.382 C 
ATOM     23  O   LIG d   1      -8.521  96.049 119.482  0.00  0.00    -0.241 OA
ATOM     24  O   LIG d   1      -7.534  96.954 117.788  0.00  0.00    -0.241 OA
ENDBRANCH   3  22
TORSDOF 7
ENDMDL
MODEL 2
REMARK VINA RESULT:      -4.9      2.925      4.778
REMARK  7 active torsions:
REMARK  status: ('A' for Active; 'I' for Inactive)
REMARK    1  A    between atoms: C_2  and  C_3 
REMARK    2  A    between atoms: C_3  and  O_6 
REMARK    3  A    between atoms: C_3  and  C_4 
REMARK    4  A    between atoms: C_7  and  O_6 
REMARK    5  A    between atoms: C_9  and  C_10 
REMARK    6  A    between atoms: N_15  and  C_14 
REMARK    7  A    between atoms: N_20  and  C_19 
REMARK       I    between atoms: C_22  and  N_20 
ROOT
ATOM      1  C   LIG d   1      -4.216  91.153 117.482  0.00  0.00     0.161 C 
ATOM      2  C   LIG d   1      -5.147  90.316 116.845  0.00  0.00     0.016 C 
ATOM      3  C   LIG d   1      -6.405  90.763 116.380  0.00  0.00     0.038 C 
ATOM      4  C   LIG d   1      -6.758  92.120 116.386  0.00  0.00     0.028 C 
ATOM      5  C   LIG d   1      -6.058  92.923 117.478  0.00  0.00    -0.047 C 
ATOM      6  C   LIG d   1      -4.537  92.659 117.398  0.00  0.00     0.091 C 
ENDROOT
BRANCH   1   7
ATOM      7  O   LIG d   1      -2.894  90.893 116.970  0.00  0.00    -0.368 OA
BRANCH   7   8
ATOM      8  C   LIG d   1      -1.968  90.259 117.887  0.00  0.00     0.119 C 
BRANCH   8   9
ATOM      9  C   LIG d   1      -0.565  90.823 117.590  0.00  0.00     0.028 C 
ATOM     10  C   LIG d   1       0.279  89.872 116.724  0.00  0.00     0.006 C 
ENDBRANCH   8   9
BRANCH   8  11
ATOM     11  C   LIG d   1      -1.865  88.754 117.623  0.00  0.00     0.028 C 
ATOM     12  C   LIG d   1      -2.171  87.909 118.869  0.00  0.00     0.006 C 
ENDBRANCH   8  11
ENDBRANCH   7   8
ENDBRANCH   1   7
BRANCH   6  13
ATOM     13  N   LIG d   1      -3.786  93.341 118.484  0.00  0.00    -0.311 N 
ATOM     14  C   LIG d   1      -2.616  93.949 118.297  0.00  0.00     0.210 C 
ATOM     15  C   LIG d   1      -2.002  94.572 119.554  0.00  0.00     0.109 C 
ATOM     16  O   LIG d   1      -2.044  94.061 117.202  0.00  0.00    -0.276 OA
ATOM     17  H   LIG d   1      -4.193  93.326 119.399  0.00  0.00     0.149 HD
ENDBRANCH   6  13
BRANCH   5  18
ATOM     18  N   LIG d   1      -6.410  94.342 117.282  0.00  0.00     0.381 N 
ATOM     19  H   LIG d   1      -6.770  94.478 116.359  0.00  0.00    -0.090 HD
ATOM     20  H   LIG d   1      -5.580  94.900 117.383  0.00  0.00    -0.090 HD
ATOM     21  H   LIG d   1      -7.090  94.621 117.955  0.00  0.00    -0.090 HD
ENDBRANCH   5  18
BRANCH   3  22
ATOM     22  C   LIG d   1      -7.342  89.841 115.939  0.00  0.00     0.382 C 
ATOM     23  O   LIG d   1      -7.403  89.543 114.721  0.00  0.00    -0.241 OA
ATOM     24  O   LIG d   1      -8.155  89.336 116.735  0.00  0.00    -0.241 OA
ENDBRANCH   3  22
TORSDOF 7
ENDMDL
MODEL 3
REMARK VINA RESULT:      -4.7      5.305      8.219
REMARK  7 active torsions:
REMARK  status: ('A' for Active; 'I' for Inactive)
REMARK    1  A    between atoms: C_2  and  C_3 
REMARK    2  A    between atoms: C_3  and  O_6 
REMARK    3  A    between atoms: C_3  and  C_4 
REMARK    4  A    between atoms: C_7  and  O_6 
REMARK    5  A    between atoms: C_9  and  C_10 
REMARK    6  A    between atoms: N_15  and  C_14 
REMARK    7  A    between atoms: N_20  and  C_19 
REMARK       I    between atoms: C_22  and  N_20 
ROOT
ATOM      1  C   LIG d   1       0.537  89.791 116.684  0.00  0.00     0.161 C 
ATOM      2  C   LIG d   1       1.910  90.082 116.731  0.00  0.00     0.016 C 
ATOM      3  C   LIG d   1       2.426  91.350 117.086  0.00  0.00     0.038 C 
ATOM      4  C   LIG d   1       1.601  92.377 117.566  0.00  0.00     0.028 C 
ATOM      5  C   LIG d   1       0.167  92.292 117.055  0.00  0.00    -0.047 C 
ATOM      6  C   LIG d   1      -0.374  90.867 117.312  0.00  0.00     0.091 C 
ENDROOT
BRANCH   1   7
ATOM      7  O   LIG d   1       0.287  88.508 117.290  0.00  0.00    -0.368 OA
BRANCH   7   8
ATOM      8  C   LIG d   1      -0.236  87.480 116.413  0.00  0.00     0.119 C 
BRANCH   8   9
ATOM      9  C   LIG d   1      -1.670  87.160 116.879  0.00  0.00     0.028 C 
ATOM     10  C   LIG d   1      -1.846  87.334 118.397  0.00  0.00     0.006 C 
ENDBRANCH   8   9
BRANCH   8  11
ATOM     11  C   LIG d   1       0.541  86.169 116.565  0.00  0.00     0.028 C 
ATOM     12  C   LIG d   1       0.634  85.376 115.252  0.00  0.00     0.006 C 
ENDBRANCH   8  11
ENDBRANCH   7   8
ENDBRANCH   1   7
BRANCH   6  13
ATOM     13  N   LIG d   1      -1.742  90.673 116.765  0.00  0.00    -0.311 N 
ATOM     14  C   LIG d   1      -2.850  90.832 117.488  0.00  0.00     0.210 C 
ATOM     15  C   LIG d   1      -4.157  90.563 116.736  0.00  0.00     0.109 C 
ATOM     16  O   LIG d   1      -2.875  91.201 118.672  0.00  0.00    -0.276 OA
ATOM     17  H   LIG d   1      -1.815  90.403 115.804  0.00  0.00     0.149 HD
ENDBRANCH   6  13
BRANCH   5  18
ATOM     18  N   LIG d   1      -0.614  93.339 117.740  0.00  0.00     0.381 N 
ATOM     19  H   LIG d   1      -1.586  93.102 117.726  0.00  0.00    -0.090 HD
ATOM     20  H   LIG d   1      -0.494  94.208 117.249  0.00  0.00    -0.090 HD
ATOM     21  H   LIG d   1      -0.302  93.436 118.681  0.00  0.00    -0.090 HD
ENDBRANCH   5  18
BRANCH   3  22
ATOM     22  C   LIG d   1       3.778  91.612 116.923  0.00  0.00     0.382 C 
ATOM     23  O   LIG d   1       4.243  92.730 117.250  0.00  0.00    -0.241 OA
ATOM     24  O   LIG d   1       4.529  90.760 116.412  0.00  0.00    -0.241 OA
ENDBRANCH   3  22
TORSDOF 7
ENDMDL
MODEL 4
REMARK VINA RESULT:      -4.4     18.985     20.812
REMARK  7 active torsions:
REMARK  status: ('A' for Active; 'I' for Inactive)
REMARK    1  A    between atoms: C_2  and  C_3 
REMARK    2  A    between atoms: C_3  and  O_6 
REMARK    3  A    between atoms: C_3  and  C_4 
REMARK    4  A    between atoms: C_7  and  O_6 
REMARK    5  A    between atoms: C_9  and  C_10 
REMARK    6  A    between atoms: N_15  and  C_14 
REMARK    7  A    between atoms: N_20  and  C_19 
REMARK       I    between atoms: C_22  and  N_20 
ROOT
ATOM      1  C   LIG d   1     -23.505  82.865 114.525  0.00  0.00     0.161 C 
ATOM      2  C   LIG d   1     -22.654  83.982 114.487  0.00  0.00     0.016 C 
ATOM      3  C   LIG d   1     -23.085  85.275 114.109  0.00  0.00     0.038 C 
ATOM      4  C   LIG d   1     -24.438  85.572 113.889  0.00  0.00     0.028 C 
ATOM      5  C   LIG d   1     -25.253  84.370 113.425  0.00  0.00    -0.047 C 
ATOM      6  C   LIG d   1     -25.008  83.192 114.395  0.00  0.00     0.091 C 
ENDROOT
BRANCH   1   7
ATOM      7  O   LIG d   1     -23.260  82.105 115.724  0.00  0.00    -0.368 OA
BRANCH   7   8
ATOM      8  C   LIG d   1     -22.718  82.843 116.847  0.00  0.00     0.119 C 
BRANCH   8   9
ATOM      9  C   LIG d   1     -21.358  82.212 117.204  0.00  0.00     0.028 C 
ATOM     10  C   LIG d   1     -21.193  81.988 118.716  0.00  0.00     0.006 C 
ENDBRANCH   8   9
BRANCH   8  11
ATOM     11  C   LIG d   1     -23.585  82.671 118.098  0.00  0.00     0.028 C 
ATOM     12  C   LIG d   1     -24.839  81.820 117.841  0.00  0.00     0.006 C 
ENDBRANCH   8  11
ENDBRANCH   7   8
ENDBRANCH   1   7
BRANCH   6  13
ATOM     13  N   LIG d   1     -25.702  81.950 113.966  0.00  0.00    -0.311 N 
ATOM     14  C   LIG d   1     -26.894  81.578 114.431  0.00  0.00     0.210 C 
ATOM     15  C   LIG d   1     -27.422  80.253 113.873  0.00  0.00     0.109 C 
ATOM     16  O   LIG d   1     -27.578  82.236 115.229  0.00  0.00    -0.276 OA
ATOM     17  H   LIG d   1     -25.232  81.372 113.297  0.00  0.00     0.149 HD
ENDBRANCH   6  13
BRANCH   5  18
ATOM     18  N   LIG d   1     -26.667  84.786 113.366  0.00  0.00     0.381 N 
ATOM     19  H   LIG d   1     -27.260  83.986 113.468  0.00  0.00    -0.090 HD
ATOM     20  H   LIG d   1     -26.847  85.200 112.469  0.00  0.00    -0.090 HD
ATOM     21  H   LIG d   1     -26.859  85.444 114.089  0.00  0.00    -0.090 HD
ENDBRANCH   5  18
BRANCH   3  22
ATOM     22  C   LIG d   1     -22.150  86.280 113.911  0.00  0.00     0.382 C 
ATOM     23  O   LIG d   1     -22.360  87.431 114.363  0.00  0.00    -0.241 OA
ATOM     24  O   LIG d   1     -21.119  86.061 113.247  0.00  0.00    -0.241 OA
ENDBRANCH   3  22
TORSDOF 7
ENDMDL
MODEL 5
REMARK VINA RESULT:      -4.4      6.879      9.553
REMARK  7 active torsions:
REMARK  status: ('A' for Active; 'I' for Inactive)
REMARK    1  A    between atoms: C_2  and  C_3 
REMARK    2  A    between atoms: C_3  and  O_6 
REMARK    3  A    between atoms: C_3  and  C_4 
REMARK    4  A    between atoms: C_7  and  O_6 
REMARK    5  A    between atoms: C_9  and  C_10 
REMARK    6  A    between atoms: N_15  and  C_14 
REMARK    7  A    between atoms: N_20  and  C_19 
REMARK       I    between atoms: C_22  and  N_20 
ROOT
ATOM      1  C   LIG d   1       0.695  87.396 115.792  0.00  0.00     0.161 C 
ATOM      2  C   LIG d   1      -0.564  87.378 116.416  0.00  0.00     0.016 C 
ATOM      3  C   LIG d   1      -1.035  88.422 117.246  0.00  0.00     0.038 C 
ATOM      4  C   LIG d   1      -0.337  89.631 117.385  0.00  0.00     0.028 C 
ATOM      5  C   LIG d   1       1.167  89.489 117.179  0.00  0.00    -0.047 C 
ATOM      6  C   LIG d   1       1.423  88.755 115.843  0.00  0.00     0.091 C 
ENDROOT
BRANCH   1   7
ATOM      7  O   LIG d   1       0.569  86.946 114.428  0.00  0.00    -0.368 OA
BRANCH   7   8
ATOM      8  C   LIG d   1       0.729  85.522 114.210  0.00  0.00     0.119 C 
BRANCH   8   9
ATOM      9  C   LIG d   1       2.012  85.323 113.379  0.00  0.00     0.028 C 
ATOM     10  C   LIG d   1       3.212  84.905 114.245  0.00  0.00     0.006 C 
ENDBRANCH   8   9
BRANCH   8  11
ATOM     11  C   LIG d   1      -0.404  84.961 113.346  0.00  0.00     0.028 C 
ATOM     12  C   LIG d   1      -0.167  83.501 112.928  0.00  0.00     0.006 C 
ENDBRANCH   8  11
ENDBRANCH   7   8
ENDBRANCH   1   7
BRANCH   6  13
ATOM     13  N   LIG d   1       2.868  88.500 115.604  0.00  0.00    -0.311 N 
ATOM     14  C   LIG d   1       3.457  88.669 114.422  0.00  0.00     0.210 C 
ATOM     15  C   LIG d   1       4.950  88.330 114.388  0.00  0.00     0.109 C 
ATOM     16  O   LIG d   1       2.891  89.098 113.405  0.00  0.00    -0.276 OA
ATOM     17  H   LIG d   1       3.409  88.179 116.383  0.00  0.00     0.149 HD
ENDBRANCH   6  13
BRANCH   5  18
ATOM     18  N   LIG d   1       1.752  90.843 117.217  0.00  0.00     0.381 N 
ATOM     19  H   LIG d   1       1.524  91.286 118.084  0.00  0.00    -0.090 HD
ATOM     20  H   LIG d   1       1.358  91.388 116.470  0.00  0.00    -0.090 HD
ATOM     21  H   LIG d   1       2.741  90.790 117.112  0.00  0.00    -0.090 HD
ENDBRANCH   5  18
BRANCH   3  22
ATOM     22  C   LIG d   1      -2.199  88.246 117.977  0.00  0.00     0.382 C 
ATOM     23  O   LIG d   1      -3.172  89.019 117.804  0.00  0.00    -0.241 OA
ATOM     24  O   LIG d   1      -2.274  87.350 118.840  0.00  0.00    -0.241 OA
ENDBRANCH   3  22
TORSDOF 7
ENDMDL
MODEL 6
REMARK VINA RESULT:      -4.4     20.916     23.555
REMARK  7 active torsions:
REMARK  status: ('A' for Active; 'I' for Inactive)
REMARK    1  A    between atoms: C_2  and  C_3 
REMARK    2  A    between atoms: C_3  and  O_6 
REMARK    3  A    between atoms: C_3  and  C_4 
REMARK    4  A    between atoms: C_7  and  O_6 
REMARK    5  A    between atoms: C_9  and  C_10 
REMARK    6  A    between atoms: N_15  and  C_14 
REMARK    7  A    between atoms: N_20  and  C_19 
REMARK       I    between atoms: C_22  and  N_20 
ROOT
ATOM      1  C   LIG d   1      11.711  78.386 114.422  0.00  0.00     0.161 C 
ATOM      2  C   LIG d   1      10.368  78.686 114.708  0.00  0.00     0.016 C 
ATOM      3  C   LIG d   1       9.369  77.699 114.875  0.00  0.00     0.038 C 
ATOM      4  C   LIG d   1       9.677  76.331 114.915  0.00  0.00     0.028 C 
ATOM      5  C   LIG d   1      10.932  75.969 114.129  0.00  0.00    -0.047 C 
ATOM      6  C   LIG d   1      12.087  76.897 114.573  0.00  0.00     0.091 C 
ENDROOT
BRANCH   1   7
ATOM      7  O   LIG d   1      12.578  79.206 115.230  0.00  0.00    -0.368 OA
BRANCH   7   8
ATOM      8  C   LIG d   1      12.986  80.468 114.648  0.00  0.00     0.119 C 
BRANCH   8   9
ATOM      9  C   LIG d   1      13.553  80.169 113.246  0.00  0.00     0.028 C 
ATOM     10  C   LIG d   1      15.062  79.876 113.274  0.00  0.00     0.006 C 
ENDBRANCH   8   9
BRANCH   8  11
ATOM     11  C   LIG d   1      14.145  81.093 115.429  0.00  0.00     0.028 C 
ATOM     12  C   LIG d   1      14.172  80.660 116.903  0.00  0.00     0.006 C 
ENDBRANCH   8  11
ENDBRANCH   7   8
ENDBRANCH   1   7
BRANCH   6  13
ATOM     13  N   LIG d   1      13.331  76.666 113.793  0.00  0.00    -0.311 N 
ATOM     14  C   LIG d   1      14.315  75.867 114.202  0.00  0.00     0.210 C 
ATOM     15  C   LIG d   1      15.517  75.786 113.256  0.00  0.00     0.109 C 
ATOM     16  O   LIG d   1      14.292  75.193 115.242  0.00  0.00    -0.276 OA
ATOM     17  H   LIG d   1      13.419  77.150 112.921  0.00  0.00     0.149 HD
ENDBRANCH   6  13
BRANCH   5  18
ATOM     18  N   LIG d   1      11.213  74.541 114.370  0.00  0.00     0.381 N 
ATOM     19  H   LIG d   1      10.403  74.097 114.755  0.00  0.00    -0.090 HD
ATOM     20  H   LIG d   1      11.961  74.465 115.036  0.00  0.00    -0.090 HD
ATOM     21  H   LIG d   1      11.471  74.096 113.517  0.00  0.00    -0.090 HD
ENDBRANCH   5  18
BRANCH   3  22
ATOM     22  C   LIG d   1       8.038  78.078 114.963  0.00  0.00     0.382 C 
ATOM     23  O   LIG d   1       7.135  77.280 114.613  0.00  0.00    -0.241 OA
ATOM     24  O   LIG d   1       7.731  79.223 115.345  0.00  0.00    -0.241 OA
ENDBRANCH   3  22
TORSDOF 7
ENDMDL
MODEL 7
REMARK VINA RESULT:      -4.3     14.588     16.241
REMARK  7 active torsions:
REMARK  status: ('A' for Active; 'I' for Inactive)
REMARK    1  A    between atoms: C_2  and  C_3 
REMARK    2  A    between atoms: C_3  and  O_6 
REMARK    3  A    between atoms: C_3  and  C_4 
REMARK    4  A    between atoms: C_7  and  O_6 
REMARK    5  A    between atoms: C_9  and  C_10 
REMARK    6  A    between atoms: N_15  and  C_14 
REMARK    7  A    between atoms: N_20  and  C_19 
REMARK       I    between atoms: C_22  and  N_20 
ROOT
ATOM      1  C   LIG d   1      -3.469  76.740 117.422  0.00  0.00     0.161 C 
ATOM      2  C   LIG d   1      -4.487  77.498 118.024  0.00  0.00     0.016 C 
ATOM      3  C   LIG d   1      -5.754  77.708 117.432  0.00  0.00     0.038 C 
ATOM      4  C   LIG d   1      -6.144  77.044 116.260  0.00  0.00     0.028 C 
ATOM      5  C   LIG d   1      -4.973  76.670 115.358  0.00  0.00    -0.047 C 
ATOM      6  C   LIG d   1      -3.914  75.917 116.196  0.00  0.00     0.091 C 
ENDROOT
BRANCH   1   7
ATOM      7  O   LIG d   1      -2.853  75.884 118.404  0.00  0.00    -0.368 OA
BRANCH   7   8
ATOM      8  C   LIG d   1      -1.490  76.212 118.772  0.00  0.00     0.119 C 
BRANCH   8   9
ATOM      9  C   LIG d   1      -1.142  77.556 118.103  0.00  0.00     0.028 C 
ATOM     10  C   LIG d   1       0.265  77.555 117.483  0.00  0.00     0.006 C 
ENDBRANCH   8   9
BRANCH   8  11
ATOM     11  C   LIG d   1      -0.497  75.201 118.191  0.00  0.00     0.028 C 
ATOM     12  C   LIG d   1      -1.092  73.790 118.060  0.00  0.00     0.006 C 
ENDBRANCH   8  11
ENDBRANCH   7   8
ENDBRANCH   1   7
BRANCH   6  13
ATOM     13  N   LIG d   1      -2.697  75.588 115.409  0.00  0.00    -0.311 N 
ATOM     14  C   LIG d   1      -1.977  76.500 114.757  0.00  0.00     0.210 C 
ATOM     15  C   LIG d   1      -0.772  75.945 113.992  0.00  0.00     0.109 C 
ATOM     16  O   LIG d   1      -2.203  77.719 114.767  0.00  0.00    -0.276 OA
ATOM     17  H   LIG d   1      -2.423  74.626 115.373  0.00  0.00     0.149 HD
ENDBRANCH   6  13
BRANCH   5  18
ATOM     18  N   LIG d   1      -5.508  75.865 114.243  0.00  0.00     0.381 N 
ATOM     19  H   LIG d   1      -4.755  75.531 113.675  0.00  0.00    -0.090 HD
ATOM     20  H   LIG d   1      -6.097  76.448 113.675  0.00  0.00    -0.090 HD
ATOM     21  H   LIG d   1      -6.031  75.096 114.599  0.00  0.00    -0.090 HD
ENDBRANCH   5  18
BRANCH   3  22
ATOM     22  C   LIG d   1      -6.632  78.622 117.994  0.00  0.00     0.382 C 
ATOM     23  O   LIG d   1      -7.164  78.380 119.104  0.00  0.00    -0.241 OA
ATOM     24  O   LIG d   1      -6.933  79.666 117.385  0.00  0.00    -0.241 OA
ENDBRANCH   3  22
TORSDOF 7
ENDMDL
MODEL 8
REMARK VINA RESULT:      -4.3      7.386      9.437
REMARK  7 active torsions:
REMARK  status: ('A' for Active; 'I' for Inactive)
REMARK    1  A    between atoms: C_2  and  C_3 
REMARK    2  A    between atoms: C_3  and  O_6 
REMARK    3  A    between atoms: C_3  and  C_4 
REMARK    4  A    between atoms: C_7  and  O_6 
REMARK    5  A    between atoms: C_9  and  C_10 
REMARK    6  A    between atoms: N_15  and  C_14 
REMARK    7  A    between atoms: N_20  and  C_19 
REMARK       I    between atoms: C_22  and  N_20 
ROOT
ATOM      1  C   LIG d   1       2.106  89.032 115.701  0.00  0.00     0.161 C 
ATOM      2  C   LIG d   1       2.678  90.175 116.284  0.00  0.00     0.016 C 
ATOM      3  C   LIG d   1       2.035  90.945 117.281  0.00  0.00     0.038 C 
ATOM      4  C   LIG d   1       0.832  90.534 117.874  0.00  0.00     0.028 C 
ATOM      5  C   LIG d   1      -0.025  89.660 116.963  0.00  0.00    -0.047 C 
ATOM      6  C   LIG d   1       0.843  88.505 116.414  0.00  0.00     0.091 C 
ENDROOT
BRANCH   1   7
ATOM      7  O   LIG d   1       3.096  87.989 115.598  0.00  0.00    -0.368 OA
BRANCH   7   8
ATOM      8  C   LIG d   1       3.486  87.611 114.255  0.00  0.00     0.119 C 
BRANCH   8   9
ATOM      9  C   LIG d   1       3.643  86.078 114.233  0.00  0.00     0.028 C 
ATOM     10  C   LIG d   1       3.131  85.455 112.923  0.00  0.00     0.006 C 
ENDBRANCH   8   9
BRANCH   8  11
ATOM     11  C   LIG d   1       4.869  88.165 113.900  0.00  0.00     0.028 C 
ATOM     12  C   LIG d   1       4.798  89.482 113.110  0.00  0.00     0.006 C 
ENDBRANCH   8  11
ENDBRANCH   7   8
ENDBRANCH   1   7
BRANCH   6  13
ATOM     13  N   LIG d   1       0.105  87.651 115.448  0.00  0.00    -0.311 N 
ATOM     14  C   LIG d   1       0.139  86.320 115.470  0.00  0.00     0.210 C 
ATOM     15  C   LIG d   1      -0.678  85.633 114.372  0.00  0.00     0.109 C 
ATOM     16  O   LIG d   1       0.744  85.642 116.315  0.00  0.00    -0.276 OA
ATOM     17  H   LIG d   1      -0.437  88.118 114.747  0.00  0.00     0.149 HD
ENDBRANCH   6  13
BRANCH   5  18
ATOM     18  N   LIG d   1      -1.179  89.191 117.753  0.00  0.00     0.381 N 
ATOM     19  H   LIG d   1      -2.020  89.303 117.223  0.00  0.00    -0.090 HD
ATOM     20  H   LIG d   1      -1.253  89.751 118.584  0.00  0.00    -0.090 HD
ATOM     21  H   LIG d   1      -1.057  88.233 117.999  0.00  0.00    -0.090 HD
ENDBRANCH   5  18
BRANCH   3  22
ATOM     22  C   LIG d   1       2.577  92.162 117.666  0.00  0.00     0.382 C 
ATOM     23  O   LIG d   1       1.945  92.909 118.451  0.00  0.00    -0.241 OA
ATOM     24  O   LIG d   1       3.669  92.541 117.203  0.00  0.00    -0.241 OA
ENDBRANCH   3  22
TORSDOF 7
ENDMDL
MODEL 9
REMARK VINA RESULT:      -4.2     19.941     22.391
REMARK  7 active torsions:
REMARK  status: ('A' for Active; 'I' for Inactive)
REMARK    1  A    between atoms: C_2  and  C_3 
REMARK    2  A    between atoms: C_3  and  O_6 
REMARK    3  A    between atoms: C_3  and  C_4 
REMARK    4  A    between atoms: C_7  and  O_6 
REMARK    5  A    between atoms: C_9  and  C_10 
REMARK    6  A    between atoms: N_15  and  C_14 
REMARK    7  A    between atoms: N_20  and  C_19 
REMARK       I    between atoms: C_22  and  N_20 
ROOT
ATOM      1  C   LIG d   1      10.664  79.195 114.485  0.00  0.00     0.161 C 
ATOM      2  C   LIG d   1       9.344  79.375 114.930  0.00  0.00     0.016 C 
ATOM      3  C   LIG d   1       8.450  78.306 115.169  0.00  0.00     0.038 C 
ATOM      4  C   LIG d   1       8.868  76.967 115.124  0.00  0.00     0.028 C 
ATOM      5  C   LIG d   1      10.050  76.733 114.191  0.00  0.00    -0.047 C 
ATOM      6  C   LIG d   1      11.171  77.739 114.538  0.00  0.00     0.091 C 
ENDROOT
BRANCH   1   7
ATOM      7  O   LIG d   1      11.550  80.061 115.222  0.00  0.00    -0.368 OA
BRANCH   7   8
ATOM      8  C   LIG d   1      12.127  79.505 116.429  0.00  0.00     0.119 C 
BRANCH   8   9
ATOM      9  C   LIG d   1      11.582  80.316 117.620  0.00  0.00     0.028 C 
ATOM     10  C   LIG d   1      10.496  79.555 118.400  0.00  0.00     0.006 C 
ENDBRANCH   8   9
BRANCH   8  11
ATOM     11  C   LIG d   1      13.645  79.704 116.464  0.00  0.00     0.028 C 
ATOM     12  C   LIG d   1      14.161  80.558 115.294  0.00  0.00     0.006 C 
ENDBRANCH   8  11
ENDBRANCH   7   8
ENDBRANCH   1   7
BRANCH   6  13
ATOM     13  N   LIG d   1      12.333  77.634 113.616  0.00  0.00    -0.311 N 
ATOM     14  C   LIG d   1      13.414  76.902 113.880  0.00  0.00     0.210 C 
ATOM     15  C   LIG d   1      14.504  76.948 112.805  0.00  0.00     0.109 C 
ATOM     16  O   LIG d   1      13.560  76.194 114.888  0.00  0.00    -0.276 OA
ATOM     17  H   LIG d   1      12.285  78.152 112.761  0.00  0.00     0.149 HD
ENDBRANCH   6  13
BRANCH   5  18
ATOM     18  N   LIG d   1      10.468  75.326 114.345  0.00  0.00     0.381 N 
ATOM     19  H   LIG d   1      10.159  74.793 113.558  0.00  0.00    -0.090 HD
ATOM     20  H   LIG d   1      10.038  74.948 115.171  0.00  0.00    -0.090 HD
ATOM     21  H   LIG d   1      11.460  75.272 114.424  0.00  0.00    -0.090 HD
ENDBRANCH   5  18
BRANCH   3  22
ATOM     22  C   LIG d   1       7.112  78.571 115.419  0.00  0.00     0.382 C 
ATOM     23  O   LIG d   1       6.781  79.211 116.445  0.00  0.00    -0.241 OA
ATOM     24  O   LIG d   1       6.230  78.139 114.654  0.00  0.00    -0.241 OA
ENDBRANCH   3  22
TORSDOF 7
ENDMDL
