MODEL 1
REMARK VINA RESULT:      -4.9      0.000      0.000
REMARK  7 active torsions:
REMARK  status: ('A' for Active; 'I' for Inactive)
REMARK    1  A    between atoms: C_2  and  C_3 
REMARK    2  A    between atoms: C_3  and  O_6 
REMARK    3  A    between atoms: C_3  and  C_4 
REMARK    4  A    between atoms: C_7  and  O_6 
REMARK    5  A    between atoms: C_9  and  C_10 
REMARK    6  A    between atoms: N_15  and  C_14 
REMARK    7  A    between atoms: N_20  and  C_19 
REMARK       I    between atoms: C_22  and  N_20 
ROOT
ATOM      1  C   LIG d   1      -0.909  91.262 117.074  0.00  0.00     0.161 C 
ATOM      2  C   LIG d   1       0.294  91.784 117.578  0.00  0.00     0.016 C 
ATOM      3  C   LIG d   1       0.386  93.034 118.232  0.00  0.00     0.038 C 
ATOM      4  C   LIG d   1      -0.753  93.783 118.563  0.00  0.00     0.028 C 
ATOM      5  C   LIG d   1      -1.933  93.536 117.630  0.00  0.00    -0.047 C 
ATOM      6  C   LIG d   1      -2.179  92.013 117.524  0.00  0.00     0.091 C 
ENDROOT
BRANCH   1   7
ATOM      7  O   LIG d   1      -1.010  89.863 117.405  0.00  0.00    -0.368 OA
BRANCH   7   8
ATOM      8  C   LIG d   1      -0.570  89.489 118.734  0.00  0.00     0.119 C 
BRANCH   8   9
ATOM      9  C   LIG d   1       0.531  88.422 118.573  0.00  0.00     0.028 C 
ATOM     10  C   LIG d   1       0.256  87.466 117.401  0.00  0.00     0.006 C 
ENDBRANCH   8   9
BRANCH   8  11
ATOM     11  C   LIG d   1      -1.690  88.800 119.519  0.00  0.00     0.028 C 
ATOM     12  C   LIG d   1      -3.014  88.739 118.739  0.00  0.00     0.006 C 
ENDBRANCH   8  11
ENDBRANCH   7   8
ENDBRANCH   1   7
BRANCH   6  13
ATOM     13  N   LIG d   1      -3.263  91.680 116.564  0.00  0.00    -0.311 N 
ATOM     14  C   LIG d   1      -4.546  91.592 116.909  0.00  0.00     0.210 C 
ATOM     15  C   LIG d   1      -5.498  91.216 115.768  0.00  0.00     0.109 C 
ATOM     16  O   LIG d   1      -4.991  91.821 118.043  0.00  0.00    -0.276 OA
ATOM     17  H   LIG d   1      -2.995  91.509 115.614  0.00  0.00     0.149 HD
ENDBRANCH   6  13
BRANCH   5  18
ATOM     18  N   LIG d   1      -3.091  94.272 118.170  0.00  0.00     0.381 N 
ATOM     19  H   LIG d   1      -3.806  93.627 118.441  0.00  0.00    -0.090 HD
ATOM     20  H   LIG d   1      -3.460  94.870 117.452  0.00  0.00    -0.090 HD
ATOM     21  H   LIG d   1      -2.811  94.818 118.956  0.00  0.00    -0.090 HD
ENDBRANCH   5  18
BRANCH   3  22
ATOM     22  C   LIG d   1       1.633  93.565 118.527  0.00  0.00     0.382 C 
ATOM     23  O   LIG d   1       1.738  94.484 119.375  0.00  0.00    -0.241 OA
ATOM     24  O   LIG d   1       2.647  93.168 117.924  0.00  0.00    -0.241 OA
ENDBRANCH   3  22
TORSDOF 7
ENDMDL
MODEL 2
REMARK VINA RESULT:      -4.5     15.614     18.563
REMARK  7 active torsions:
REMARK  status: ('A' for Active; 'I' for Inactive)
REMARK    1  A    between atoms: C_2  and  C_3 
REMARK    2  A    between atoms: C_3  and  O_6 
REMARK    3  A    between atoms: C_3  and  C_4 
REMARK    4  A    between atoms: C_7  and  O_6 
REMARK    5  A    between atoms: C_9  and  C_10 
REMARK    6  A    between atoms: N_15  and  C_14 
REMARK    7  A    between atoms: N_20  and  C_19 
REMARK       I    between atoms: C_22  and  N_20 
ROOT
ATOM      1  C   LIG d   1      10.478  79.259 115.152  0.00  0.00     0.161 C 
ATOM      2  C   LIG d   1       9.149  79.660 115.371  0.00  0.00     0.016 C 
ATOM      3  C   LIG d   1       8.116  78.765 115.733  0.00  0.00     0.038 C 
ATOM      4  C   LIG d   1       8.375  77.424 116.050  0.00  0.00     0.028 C 
ATOM      5  C   LIG d   1       9.611  76.864 115.354  0.00  0.00    -0.047 C 
ATOM      6  C   LIG d   1      10.801  77.819 115.601  0.00  0.00     0.091 C 
ENDROOT
BRANCH   1   7
ATOM      7  O   LIG d   1      11.380  80.193 115.778  0.00  0.00    -0.368 OA
BRANCH   7   8
ATOM      8  C   LIG d   1      12.090  81.088 114.886  0.00  0.00     0.119 C 
BRANCH   8   9
ATOM      9  C   LIG d   1      11.908  80.554 113.453  0.00  0.00     0.028 C 
ATOM     10  C   LIG d   1      13.241  80.144 112.805  0.00  0.00     0.006 C 
ENDBRANCH   8   9
BRANCH   8  11
ATOM     11  C   LIG d   1      13.599  81.050 115.145  0.00  0.00     0.028 C 
ATOM     12  C   LIG d   1      13.949  81.123 116.639  0.00  0.00     0.006 C 
ENDBRANCH   8  11
ENDBRANCH   7   8
ENDBRANCH   1   7
BRANCH   6  13
ATOM     13  N   LIG d   1      12.030  77.389 114.885  0.00  0.00    -0.311 N 
ATOM     14  C   LIG d   1      13.230  77.328 115.460  0.00  0.00     0.210 C 
ATOM     15  C   LIG d   1      14.367  76.879 114.537  0.00  0.00     0.109 C 
ATOM     16  O   LIG d   1      13.455  77.572 116.655  0.00  0.00    -0.276 OA
ATOM     17  H   LIG d   1      11.933  77.143 113.919  0.00  0.00     0.149 HD
ENDBRANCH   6  13
BRANCH   5  18
ATOM     18  N   LIG d   1       9.841  75.505 115.879  0.00  0.00     0.381 N 
ATOM     19  H   LIG d   1      10.463  75.545 116.662  0.00  0.00    -0.090 HD
ATOM     20  H   LIG d   1      10.272  74.948 115.162  0.00  0.00    -0.090 HD
ATOM     21  H   LIG d   1       8.976  75.094 116.154  0.00  0.00    -0.090 HD
ENDBRANCH   5  18
BRANCH   3  22
ATOM     22  C   LIG d   1       6.800  79.203 115.742  0.00  0.00     0.382 C 
ATOM     23  O   LIG d   1       5.984  78.752 114.902  0.00  0.00    -0.241 OA
ATOM     24  O   LIG d   1       6.430  80.075 116.550  0.00  0.00    -0.241 OA
ENDBRANCH   3  22
TORSDOF 7
ENDMDL
MODEL 3
REMARK VINA RESULT:      -4.5      1.583      2.399
REMARK  7 active torsions:
REMARK  status: ('A' for Active; 'I' for Inactive)
REMARK    1  A    between atoms: C_2  and  C_3 
REMARK    2  A    between atoms: C_3  and  O_6 
REMARK    3  A    between atoms: C_3  and  C_4 
REMARK    4  A    between atoms: C_7  and  O_6 
REMARK    5  A    between atoms: C_9  and  C_10 
REMARK    6  A    between atoms: N_15  and  C_14 
REMARK    7  A    between atoms: N_20  and  C_19 
REMARK       I    between atoms: C_22  and  N_20 
ROOT
ATOM      1  C   LIG d   1      -0.113  90.441 117.627  0.00  0.00     0.161 C 
ATOM      2  C   LIG d   1       1.264  90.629 117.825  0.00  0.00     0.016 C 
ATOM      3  C   LIG d   1       1.903  91.886 117.711  0.00  0.00     0.038 C 
ATOM      4  C   LIG d   1       1.176  93.073 117.539  0.00  0.00     0.028 C 
ATOM      5  C   LIG d   1      -0.159  92.869 116.832  0.00  0.00    -0.047 C 
ATOM      6  C   LIG d   1      -0.939  91.742 117.547  0.00  0.00     0.091 C 
ENDROOT
BRANCH   1   7
ATOM      7  O   LIG d   1      -0.641  89.575 118.651  0.00  0.00    -0.368 OA
BRANCH   7   8
ATOM      8  C   LIG d   1      -1.048  88.253 118.221  0.00  0.00     0.119 C 
BRANCH   8   9
ATOM      9  C   LIG d   1      -2.198  87.800 119.141  0.00  0.00     0.028 C 
ATOM     10  C   LIG d   1      -3.279  88.882 119.306  0.00  0.00     0.006 C 
ENDBRANCH   8   9
BRANCH   8  11
ATOM     11  C   LIG d   1       0.070  87.228 118.434  0.00  0.00     0.028 C 
ATOM     12  C   LIG d   1       0.833  86.901 117.141  0.00  0.00     0.006 C 
ENDBRANCH   8  11
ENDBRANCH   7   8
ENDBRANCH   1   7
BRANCH   6  13
ATOM     13  N   LIG d   1      -2.221  91.420 116.868  0.00  0.00    -0.311 N 
ATOM     14  C   LIG d   1      -3.388  91.964 117.210  0.00  0.00     0.210 C 
ATOM     15  C   LIG d   1      -4.591  91.479 116.395  0.00  0.00     0.109 C 
ATOM     16  O   LIG d   1      -3.537  92.825 118.090  0.00  0.00    -0.276 OA
ATOM     17  H   LIG d   1      -2.188  90.754 116.122  0.00  0.00     0.149 HD
ENDBRANCH   6  13
BRANCH   5  18
ATOM     18  N   LIG d   1      -0.871  94.161 116.841  0.00  0.00     0.381 N 
ATOM     19  H   LIG d   1      -0.913  94.531 115.913  0.00  0.00    -0.090 HD
ATOM     20  H   LIG d   1      -0.362  94.808 117.417  0.00  0.00    -0.090 HD
ATOM     21  H   LIG d   1      -1.793  94.040 117.200  0.00  0.00    -0.090 HD
ENDBRANCH   5  18
BRANCH   3  22
ATOM     22  C   LIG d   1       3.287  91.957 117.730  0.00  0.00     0.382 C 
ATOM     23  O   LIG d   1       3.879  92.838 117.060  0.00  0.00    -0.241 OA
ATOM     24  O   LIG d   1       3.954  91.125 118.374  0.00  0.00    -0.241 OA
ENDBRANCH   3  22
TORSDOF 7
ENDMDL
MODEL 4
REMARK VINA RESULT:      -4.4     15.309     18.042
REMARK  7 active torsions:
REMARK  status: ('A' for Active; 'I' for Inactive)
REMARK    1  A    between atoms: C_2  and  C_3 
REMARK    2  A    between atoms: C_3  and  O_6 
REMARK    3  A    between atoms: C_3  and  C_4 
REMARK    4  A    between atoms: C_7  and  O_6 
REMARK    5  A    between atoms: C_9  and  C_10 
REMARK    6  A    between atoms: N_15  and  C_14 
REMARK    7  A    between atoms: N_20  and  C_19 
REMARK       I    between atoms: C_22  and  N_20 
ROOT
ATOM      1  C   LIG d   1       9.833  79.339 115.253  0.00  0.00     0.161 C 
ATOM      2  C   LIG d   1       8.457  79.488 115.496  0.00  0.00     0.016 C 
ATOM      3  C   LIG d   1       7.604  78.409 115.826  0.00  0.00     0.038 C 
ATOM      4  C   LIG d   1       8.101  77.124 116.085  0.00  0.00     0.028 C 
ATOM      5  C   LIG d   1       9.408  76.822 115.361  0.00  0.00    -0.047 C 
ATOM      6  C   LIG d   1      10.413  77.963 115.641  0.00  0.00     0.091 C 
ENDROOT
BRANCH   1   7
ATOM      7  O   LIG d   1      10.561  80.394 115.913  0.00  0.00    -0.368 OA
BRANCH   7   8
ATOM      8  C   LIG d   1      11.102  81.428 115.054  0.00  0.00     0.119 C 
BRANCH   8   9
ATOM      9  C   LIG d   1      10.283  82.710 115.302  0.00  0.00     0.028 C 
ATOM     10  C   LIG d   1      10.674  83.412 116.613  0.00  0.00     0.006 C 
ENDBRANCH   8   9
BRANCH   8  11
ATOM     11  C   LIG d   1      10.890  81.092 113.575  0.00  0.00     0.028 C 
ATOM     12  C   LIG d   1      12.205  80.794 112.838  0.00  0.00     0.006 C 
ENDBRANCH   8  11
ENDBRANCH   7   8
ENDBRANCH   1   7
BRANCH   6  13
ATOM     13  N   LIG d   1      11.690  77.789 114.901  0.00  0.00    -0.311 N 
ATOM     14  C   LIG d   1      12.763  77.194 115.420  0.00  0.00     0.210 C 
ATOM     15  C   LIG d   1      13.982  77.137 114.494  0.00  0.00     0.109 C 
ATOM     16  O   LIG d   1      12.810  76.680 116.548  0.00  0.00    -0.276 OA
ATOM     17  H   LIG d   1      11.729  78.149 113.967  0.00  0.00     0.149 HD
ENDBRANCH   6  13
BRANCH   5  18
ATOM     18  N   LIG d   1       9.883  75.506 115.828  0.00  0.00     0.381 N 
ATOM     19  H   LIG d   1      10.763  75.609 116.293  0.00  0.00    -0.090 HD
ATOM     20  H   LIG d   1      10.016  74.907 115.032  0.00  0.00    -0.090 HD
ATOM     21  H   LIG d   1       9.216  75.103 116.448  0.00  0.00    -0.090 HD
ENDBRANCH   5  18
BRANCH   3  22
ATOM     22  C   LIG d   1       6.231  78.604 115.860  0.00  0.00     0.382 C 
ATOM     23  O   LIG d   1       5.723  79.588 115.269  0.00  0.00    -0.241 OA
ATOM     24  O   LIG d   1       5.500  77.834 116.511  0.00  0.00    -0.241 OA
ENDBRANCH   3  22
TORSDOF 7
ENDMDL
MODEL 5
REMARK VINA RESULT:      -4.3      4.175      6.036
REMARK  7 active torsions:
REMARK  status: ('A' for Active; 'I' for Inactive)
REMARK    1  A    between atoms: C_2  and  C_3 
REMARK    2  A    between atoms: C_3  and  O_6 
REMARK    3  A    between atoms: C_3  and  C_4 
REMARK    4  A    between atoms: C_7  and  O_6 
REMARK    5  A    between atoms: C_9  and  C_10 
REMARK    6  A    between atoms: N_15  and  C_14 
REMARK    7  A    between atoms: N_20  and  C_19 
REMARK       I    between atoms: C_22  and  N_20 
ROOT
ATOM      1  C   LIG d   1       2.338  89.075 116.503  0.00  0.00     0.161 C 
ATOM      2  C   LIG d   1       3.036  90.202 116.968  0.00  0.00     0.016 C 
ATOM      3  C   LIG d   1       4.232  90.673 116.379  0.00  0.00     0.038 C 
ATOM      4  C   LIG d   1       4.734  90.135 115.185  0.00  0.00     0.028 C 
ATOM      5  C   LIG d   1       4.340  88.678 114.965  0.00  0.00    -0.047 C 
ATOM      6  C   LIG d   1       2.809  88.541 115.134  0.00  0.00     0.091 C 
ENDROOT
BRANCH   1   7
ATOM      7  O   LIG d   1       0.924  89.354 116.473  0.00  0.00    -0.368 OA
BRANCH   7   8
ATOM      8  C   LIG d   1       0.371  89.972 117.660  0.00  0.00     0.119 C 
BRANCH   8   9
ATOM      9  C   LIG d   1      -0.475  88.907 118.385  0.00  0.00     0.028 C 
ATOM     10  C   LIG d   1      -1.948  88.927 117.943  0.00  0.00     0.006 C 
ENDBRANCH   8   9
BRANCH   8  11
ATOM     11  C   LIG d   1      -0.610  91.092 117.301  0.00  0.00     0.028 C 
ATOM     12  C   LIG d   1       0.095  92.417 116.969  0.00  0.00     0.006 C 
ENDBRANCH   8  11
ENDBRANCH   7   8
ENDBRANCH   1   7
BRANCH   6  13
ATOM     13  N   LIG d   1       2.350  87.133 115.018  0.00  0.00    -0.311 N 
ATOM     14  C   LIG d   1       1.585  86.691 114.021  0.00  0.00     0.210 C 
ATOM     15  C   LIG d   1       1.209  85.208 114.104  0.00  0.00     0.109 C 
ATOM     16  O   LIG d   1       1.210  87.378 113.060  0.00  0.00    -0.276 OA
ATOM     17  H   LIG d   1       2.635  86.499 115.740  0.00  0.00     0.149 HD
ENDBRANCH   6  13
BRANCH   5  18
ATOM     18  N   LIG d   1       4.810  88.287 113.623  0.00  0.00     0.381 N 
ATOM     19  H   LIG d   1       4.055  87.888 113.102  0.00  0.00    -0.090 HD
ATOM     20  H   LIG d   1       5.529  87.592 113.720  0.00  0.00    -0.090 HD
ATOM     21  H   LIG d   1       5.170  89.082 113.143  0.00  0.00    -0.090 HD
ENDBRANCH   5  18
BRANCH   3  22
ATOM     22  C   LIG d   1       4.962  91.670 117.010  0.00  0.00     0.382 C 
ATOM     23  O   LIG d   1       4.471  92.816 117.146  0.00  0.00    -0.241 OA
ATOM     24  O   LIG d   1       6.123  91.449 117.405  0.00  0.00    -0.241 OA
ENDBRANCH   3  22
TORSDOF 7
ENDMDL
MODEL 6
REMARK VINA RESULT:      -4.3     22.235     24.845
REMARK  7 active torsions:
REMARK  status: ('A' for Active; 'I' for Inactive)
REMARK    1  A    between atoms: C_2  and  C_3 
REMARK    2  A    between atoms: C_3  and  O_6 
REMARK    3  A    between atoms: C_3  and  C_4 
REMARK    4  A    between atoms: C_7  and  O_6 
REMARK    5  A    between atoms: C_9  and  C_10 
REMARK    6  A    between atoms: N_15  and  C_14 
REMARK    7  A    between atoms: N_20  and  C_19 
REMARK       I    between atoms: C_22  and  N_20 
ROOT
ATOM      1  C   LIG d   1     -24.273  85.126 115.973  0.00  0.00     0.161 C 
ATOM      2  C   LIG d   1     -23.615  86.184 115.325  0.00  0.00     0.016 C 
ATOM      3  C   LIG d   1     -23.038  86.071 114.040  0.00  0.00     0.038 C 
ATOM      4  C   LIG d   1     -23.212  84.926 113.247  0.00  0.00     0.028 C 
ATOM      5  C   LIG d   1     -23.435  83.655 114.059  0.00  0.00    -0.047 C 
ATOM      6  C   LIG d   1     -24.570  83.904 115.079  0.00  0.00     0.091 C 
ENDROOT
BRANCH   1   7
ATOM      7  O   LIG d   1     -25.487  85.606 116.584  0.00  0.00    -0.368 OA
BRANCH   7   8
ATOM      8  C   LIG d   1     -26.084  86.780 115.980  0.00  0.00     0.119 C 
BRANCH   8   9
ATOM      9  C   LIG d   1     -26.636  87.657 117.120  0.00  0.00     0.028 C 
ATOM     10  C   LIG d   1     -26.858  89.115 116.684  0.00  0.00     0.006 C 
ENDBRANCH   8   9
BRANCH   8  11
ATOM     11  C   LIG d   1     -27.300  86.410 115.126  0.00  0.00     0.028 C 
ATOM     12  C   LIG d   1     -27.100  86.724 113.635  0.00  0.00     0.006 C 
ENDBRANCH   8  11
ENDBRANCH   7   8
ENDBRANCH   1   7
BRANCH   6  13
ATOM     13  N   LIG d   1     -24.796  82.737 115.971  0.00  0.00    -0.311 N 
ATOM     14  C   LIG d   1     -25.930  82.040 115.993  0.00  0.00     0.210 C 
ATOM     15  C   LIG d   1     -25.961  80.887 117.002  0.00  0.00     0.109 C 
ATOM     16  O   LIG d   1     -26.902  82.246 115.250  0.00  0.00    -0.276 OA
ATOM     17  H   LIG d   1     -24.047  82.481 116.585  0.00  0.00     0.149 HD
ENDBRANCH   6  13
BRANCH   5  18
ATOM     18  N   LIG d   1     -23.738  82.568 113.110  0.00  0.00     0.381 N 
ATOM     19  H   LIG d   1     -24.398  82.887 112.429  0.00  0.00    -0.090 HD
ATOM     20  H   LIG d   1     -24.151  81.802 113.614  0.00  0.00    -0.090 HD
ATOM     21  H   LIG d   1     -22.903  82.266 112.659  0.00  0.00    -0.090 HD
ENDBRANCH   5  18
BRANCH   3  22
ATOM     22  C   LIG d   1     -22.242  87.096 113.551  0.00  0.00     0.382 C 
ATOM     23  O   LIG d   1     -21.267  86.832 112.806  0.00  0.00    -0.241 OA
ATOM     24  O   LIG d   1     -22.459  88.277 113.882  0.00  0.00    -0.241 OA
ENDBRANCH   3  22
TORSDOF 7
ENDMDL
MODEL 7
REMARK VINA RESULT:      -4.3      1.939      4.732
REMARK  7 active torsions:
REMARK  status: ('A' for Active; 'I' for Inactive)
REMARK    1  A    between atoms: C_2  and  C_3 
REMARK    2  A    between atoms: C_3  and  O_6 
REMARK    3  A    between atoms: C_3  and  C_4 
REMARK    4  A    between atoms: C_7  and  O_6 
REMARK    5  A    between atoms: C_9  and  C_10 
REMARK    6  A    between atoms: N_15  and  C_14 
REMARK    7  A    between atoms: N_20  and  C_19 
REMARK       I    between atoms: C_22  and  N_20 
ROOT
ATOM      1  C   LIG d   1      -0.398  91.029 117.831  0.00  0.00     0.161 C 
ATOM      2  C   LIG d   1      -1.768  91.005 117.519  0.00  0.00     0.016 C 
ATOM      3  C   LIG d   1      -2.532  92.170 117.283  0.00  0.00     0.038 C 
ATOM      4  C   LIG d   1      -1.941  93.439 117.193  0.00  0.00     0.028 C 
ATOM      5  C   LIG d   1      -0.653  93.566 117.999  0.00  0.00    -0.047 C 
ATOM      6  C   LIG d   1       0.287  92.396 117.628  0.00  0.00     0.091 C 
ENDROOT
BRANCH   1   7
ATOM      7  O   LIG d   1       0.291  90.007 117.084  0.00  0.00    -0.368 OA
BRANCH   7   8
ATOM      8  C   LIG d   1       0.855  88.921 117.860  0.00  0.00     0.119 C 
BRANCH   8   9
ATOM      9  C   LIG d   1       2.178  88.509 117.186  0.00  0.00     0.028 C 
ATOM     10  C   LIG d   1       1.966  87.499 116.046  0.00  0.00     0.006 C 
ENDBRANCH   8   9
BRANCH   8  11
ATOM     11  C   LIG d   1      -0.034  87.675 117.803  0.00  0.00     0.028 C 
ATOM     12  C   LIG d   1      -0.945  87.537 119.033  0.00  0.00     0.006 C 
ENDBRANCH   8  11
ENDBRANCH   7   8
ENDBRANCH   1   7
BRANCH   6  13
ATOM     13  N   LIG d   1       1.537  92.397 118.433  0.00  0.00    -0.311 N 
ATOM     14  C   LIG d   1       2.750  92.255 117.903  0.00  0.00     0.210 C 
ATOM     15  C   LIG d   1       3.902  92.264 118.913  0.00  0.00     0.109 C 
ATOM     16  O   LIG d   1       2.985  92.155 116.689  0.00  0.00    -0.276 OA
ATOM     17  H   LIG d   1       1.441  92.504 119.424  0.00  0.00     0.149 HD
ENDBRANCH   6  13
BRANCH   5  18
ATOM     18  N   LIG d   1      -0.072  94.890 117.706  0.00  0.00     0.381 N 
ATOM     19  H   LIG d   1       0.479  94.841 116.872  0.00  0.00    -0.090 HD
ATOM     20  H   LIG d   1       0.528  95.157 118.466  0.00  0.00    -0.090 HD
ATOM     21  H   LIG d   1      -0.798  95.563 117.593  0.00  0.00    -0.090 HD
ENDBRANCH   5  18
BRANCH   3  22
ATOM     22  C   LIG d   1      -3.911  92.076 117.172  0.00  0.00     0.382 C 
ATOM     23  O   LIG d   1      -4.641  92.394 118.142  0.00  0.00    -0.241 OA
ATOM     24  O   LIG d   1      -4.433  91.636 116.130  0.00  0.00    -0.241 OA
ENDBRANCH   3  22
TORSDOF 7
ENDMDL
MODEL 8
REMARK VINA RESULT:      -4.2     15.682     18.913
REMARK  7 active torsions:
REMARK  status: ('A' for Active; 'I' for Inactive)
REMARK    1  A    between atoms: C_2  and  C_3 
REMARK    2  A    between atoms: C_3  and  O_6 
REMARK    3  A    between atoms: C_3  and  C_4 
REMARK    4  A    between atoms: C_7  and  O_6 
REMARK    5  A    between atoms: C_9  and  C_10 
REMARK    6  A    between atoms: N_15  and  C_14 
REMARK    7  A    between atoms: N_20  and  C_19 
REMARK       I    between atoms: C_22  and  N_20 
ROOT
ATOM      1  C   LIG d   1       9.734  77.317 115.472  0.00  0.00     0.161 C 
ATOM      2  C   LIG d   1       9.794  76.100 116.172  0.00  0.00     0.016 C 
ATOM      3  C   LIG d   1      11.001  75.410 116.430  0.00  0.00     0.038 C 
ATOM      4  C   LIG d   1      12.253  75.970 116.136  0.00  0.00     0.028 C 
ATOM      5  C   LIG d   1      12.216  76.962 114.978  0.00  0.00    -0.047 C 
ATOM      6  C   LIG d   1      11.100  77.998 115.240  0.00  0.00     0.091 C 
ENDROOT
BRANCH   1   7
ATOM      7  O   LIG d   1       8.831  78.220 116.139  0.00  0.00    -0.368 OA
BRANCH   7   8
ATOM      8  C   LIG d   1       7.428  77.861 116.102  0.00  0.00     0.119 C 
BRANCH   8   9
ATOM      9  C   LIG d   1       6.690  78.952 115.303  0.00  0.00     0.028 C 
ATOM     10  C   LIG d   1       5.433  79.462 116.027  0.00  0.00     0.006 C 
ENDBRANCH   8   9
BRANCH   8  11
ATOM     11  C   LIG d   1       6.807  77.895 117.502  0.00  0.00     0.028 C 
ATOM     12  C   LIG d   1       7.860  77.871 118.621  0.00  0.00     0.006 C 
ENDBRANCH   8  11
ENDBRANCH   7   8
ENDBRANCH   1   7
BRANCH   6  13
ATOM     13  N   LIG d   1      10.939  78.956 114.115  0.00  0.00    -0.311 N 
ATOM     14  C   LIG d   1      11.592  80.114 114.040  0.00  0.00     0.210 C 
ATOM     15  C   LIG d   1      11.266  80.961 112.806  0.00  0.00     0.109 C 
ATOM     16  O   LIG d   1      12.435  80.506 114.861  0.00  0.00    -0.276 OA
ATOM     17  H   LIG d   1      10.299  78.703 113.389  0.00  0.00     0.149 HD
ENDBRANCH   6  13
BRANCH   5  18
ATOM     18  N   LIG d   1      13.556  77.570 114.869  0.00  0.00     0.381 N 
ATOM     19  H   LIG d   1      14.256  76.858 114.923  0.00  0.00    -0.090 HD
ATOM     20  H   LIG d   1      13.689  78.202 115.639  0.00  0.00    -0.090 HD
ATOM     21  H   LIG d   1      13.637  78.063 114.007  0.00  0.00    -0.090 HD
ENDBRANCH   5  18
BRANCH   3  22
ATOM     22  C   LIG d   1      10.960  74.127 116.954  0.00  0.00     0.382 C 
ATOM     23  O   LIG d   1      11.394  73.908 118.110  0.00  0.00    -0.241 OA
ATOM     24  O   LIG d   1      10.534  73.178 116.268  0.00  0.00    -0.241 OA
ENDBRANCH   3  22
TORSDOF 7
ENDMDL
MODEL 9
REMARK VINA RESULT:      -4.2      2.568      4.989
REMARK  7 active torsions:
REMARK  status: ('A' for Active; 'I' for Inactive)
REMARK    1  A    between atoms: C_2  and  C_3 
REMARK    2  A    between atoms: C_3  and  O_6 
REMARK    3  A    between atoms: C_3  and  C_4 
REMARK    4  A    between atoms: C_7  and  O_6 
REMARK    5  A    between atoms: C_9  and  C_10 
REMARK    6  A    between atoms: N_15  and  C_14 
REMARK    7  A    between atoms: N_20  and  C_19 
REMARK       I    between atoms: C_22  and  N_20 
ROOT
ATOM      1  C   LIG d   1      -3.190  92.959 119.412  0.00  0.00     0.161 C 
ATOM      2  C   LIG d   1      -2.992  94.332 119.190  0.00  0.00     0.016 C 
ATOM      3  C   LIG d   1      -2.070  94.843 118.248  0.00  0.00     0.038 C 
ATOM      4  C   LIG d   1      -1.387  94.009 117.350  0.00  0.00     0.028 C 
ATOM      5  C   LIG d   1      -1.179  92.593 117.879  0.00  0.00    -0.047 C 
ATOM      6  C   LIG d   1      -2.536  92.034 118.365  0.00  0.00     0.091 C 
ENDROOT
BRANCH   1   7
ATOM      7  O   LIG d   1      -4.600  92.680 119.516  0.00  0.00    -0.368 OA
BRANCH   7   8
ATOM      8  C   LIG d   1      -5.438  93.234 118.473  0.00  0.00     0.119 C 
BRANCH   8   9
ATOM      9  C   LIG d   1      -6.536  94.072 119.157  0.00  0.00     0.028 C 
ATOM     10  C   LIG d   1      -7.562  94.626 118.155  0.00  0.00     0.006 C 
ENDBRANCH   8   9
BRANCH   8  11
ATOM     11  C   LIG d   1      -6.183  92.133 117.713  0.00  0.00     0.028 C 
ATOM     12  C   LIG d   1      -5.691  91.970 116.266  0.00  0.00     0.006 C 
ENDBRANCH   8  11
ENDBRANCH   7   8
ENDBRANCH   1   7
BRANCH   6  13
ATOM     13  N   LIG d   1      -2.407  90.685 118.975  0.00  0.00    -0.311 N 
ATOM     14  C   LIG d   1      -3.066  89.615 118.533  0.00  0.00     0.210 C 
ATOM     15  C   LIG d   1      -2.804  88.325 119.318  0.00  0.00     0.109 C 
ATOM     16  O   LIG d   1      -3.818  89.605 117.547  0.00  0.00    -0.276 OA
ATOM     17  H   LIG d   1      -1.793  90.596 119.761  0.00  0.00     0.149 HD
ENDBRANCH   6  13
BRANCH   5  18
ATOM     18  N   LIG d   1      -0.581  91.795 116.792  0.00  0.00     0.381 N 
ATOM     19  H   LIG d   1      -1.072  91.965 115.937  0.00  0.00    -0.090 HD
ATOM     20  H   LIG d   1      -0.669  90.820 117.017  0.00  0.00    -0.090 HD
ATOM     21  H   LIG d   1       0.381  92.033 116.683  0.00  0.00    -0.090 HD
ENDBRANCH   5  18
BRANCH   3  22
ATOM     22  C   LIG d   1      -1.793  96.202 118.224  0.00  0.00     0.382 C 
ATOM     23  O   LIG d   1      -2.726  97.034 118.334  0.00  0.00    -0.241 OA
ATOM     24  O   LIG d   1      -0.628  96.606 118.050  0.00  0.00    -0.241 OA
ENDBRANCH   3  22
TORSDOF 7
ENDMDL
