MODEL 1
REMARK VINA RESULT:      -6.1      0.000      0.000
REMARK  7 active torsions:
REMARK  status: ('A' for Active; 'I' for Inactive)
REMARK    1  A    between atoms: C_2  and  C_3 
REMARK    2  A    between atoms: C_3  and  O_6 
REMARK    3  A    between atoms: C_3  and  C_4 
REMARK    4  A    between atoms: C_7  and  O_6 
REMARK    5  A    between atoms: C_9  and  C_10 
REMARK    6  A    between atoms: N_15  and  C_14 
REMARK    7  A    between atoms: N_20  and  C_19 
REMARK       I    between atoms: C_22  and  N_20 
ROOT
ATOM      1  C   LIG d   1      -7.043  76.069 115.627  0.00  0.00     0.161 C 
ATOM      2  C   LIG d   1      -5.868  75.873 114.882  0.00  0.00     0.016 C 
ATOM      3  C   LIG d   1      -4.575  76.151 115.381  0.00  0.00     0.038 C 
ATOM      4  C   LIG d   1      -4.357  76.506 116.721  0.00  0.00     0.028 C 
ATOM      5  C   LIG d   1      -5.551  77.203 117.364  0.00  0.00    -0.047 C 
ATOM      6  C   LIG d   1      -6.818  76.349 117.128  0.00  0.00     0.091 C 
ENDROOT
BRANCH   1   7
ATOM      7  O   LIG d   1      -7.925  74.942 115.454  0.00  0.00    -0.368 OA
BRANCH   7   8
ATOM      8  C   LIG d   1      -7.866  73.923 116.482  0.00  0.00     0.119 C 
BRANCH   8   9
ATOM      9  C   LIG d   1      -7.147  72.700 115.880  0.00  0.00     0.028 C 
ATOM     10  C   LIG d   1      -8.060  71.466 115.795  0.00  0.00     0.006 C 
ENDBRANCH   8   9
BRANCH   8  11
ATOM     11  C   LIG d   1      -9.265  73.427 116.856  0.00  0.00     0.028 C 
ATOM     12  C   LIG d   1     -10.370  74.435 116.501  0.00  0.00     0.006 C 
ENDBRANCH   8  11
ENDBRANCH   7   8
ENDBRANCH   1   7
BRANCH   6  13
ATOM     13  N   LIG d   1      -8.046  77.001 117.652  0.00  0.00    -0.311 N 
ATOM     14  C   LIG d   1      -8.654  76.622 118.775  0.00  0.00     0.210 C 
ATOM     15  C   LIG d   1      -9.918  77.414 119.125  0.00  0.00     0.109 C 
ATOM     16  O   LIG d   1      -8.249  75.726 119.532  0.00  0.00    -0.276 OA
ATOM     17  H   LIG d   1      -8.426  77.757 117.117  0.00  0.00     0.149 HD
ENDBRANCH   6  13
BRANCH   5  18
ATOM     18  N   LIG d   1      -5.240  77.391 118.794  0.00  0.00     0.381 N 
ATOM     19  H   LIG d   1      -4.739  78.248 118.922  0.00  0.00    -0.090 HD
ATOM     20  H   LIG d   1      -4.654  76.635 119.101  0.00  0.00    -0.090 HD
ATOM     21  H   LIG d   1      -6.081  77.407 119.327  0.00  0.00    -0.090 HD
ENDBRANCH   5  18
BRANCH   3  22
ATOM     22  C   LIG d   1      -3.485  76.115 114.524  0.00  0.00     0.382 C 
ATOM     23  O   LIG d   1      -3.455  76.862 113.516  0.00  0.00    -0.241 OA
ATOM     24  O   LIG d   1      -2.552  75.314 114.722  0.00  0.00    -0.241 OA
ENDBRANCH   3  22
TORSDOF 7
ENDMDL
MODEL 2
REMARK VINA RESULT:      -5.7      2.473      6.113
REMARK  7 active torsions:
REMARK  status: ('A' for Active; 'I' for Inactive)
REMARK    1  A    between atoms: C_2  and  C_3 
REMARK    2  A    between atoms: C_3  and  O_6 
REMARK    3  A    between atoms: C_3  and  C_4 
REMARK    4  A    between atoms: C_7  and  O_6 
REMARK    5  A    between atoms: C_9  and  C_10 
REMARK    6  A    between atoms: N_15  and  C_14 
REMARK    7  A    between atoms: N_20  and  C_19 
REMARK       I    between atoms: C_22  and  N_20 
ROOT
ATOM      1  C   LIG d   1      -7.355  76.360 117.433  0.00  0.00     0.161 C 
ATOM      2  C   LIG d   1      -8.284  77.151 118.130  0.00  0.00     0.016 C 
ATOM      3  C   LIG d   1      -9.643  76.795 118.292  0.00  0.00     0.038 C 
ATOM      4  C   LIG d   1     -10.134  75.543 117.895  0.00  0.00     0.028 C 
ATOM      5  C   LIG d   1      -9.352  74.924 116.740  0.00  0.00    -0.047 C 
ATOM      6  C   LIG d   1      -7.847  74.938 117.089  0.00  0.00     0.091 C 
ENDROOT
BRANCH   1   7
ATOM      7  O   LIG d   1      -6.117  76.298 118.168  0.00  0.00    -0.368 OA
BRANCH   7   8
ATOM      8  C   LIG d   1      -5.056  77.167 117.702  0.00  0.00     0.119 C 
BRANCH   8   9
ATOM      9  C   LIG d   1      -4.022  76.286 116.975  0.00  0.00     0.028 C 
ATOM     10  C   LIG d   1      -4.150  76.373 115.444  0.00  0.00     0.006 C 
ENDBRANCH   8   9
BRANCH   8  11
ATOM     11  C   LIG d   1      -4.298  77.798 118.874  0.00  0.00     0.028 C 
ATOM     12  C   LIG d   1      -2.821  77.375 118.926  0.00  0.00     0.006 C 
ENDBRANCH   8  11
ENDBRANCH   7   8
ENDBRANCH   1   7
BRANCH   6  13
ATOM     13  N   LIG d   1      -7.003  74.427 115.977  0.00  0.00    -0.311 N 
ATOM     14  C   LIG d   1      -6.652  73.149 115.851  0.00  0.00     0.210 C 
ATOM     15  C   LIG d   1      -5.761  72.839 114.643  0.00  0.00     0.109 C 
ATOM     16  O   LIG d   1      -7.020  72.237 116.606  0.00  0.00    -0.276 OA
ATOM     17  H   LIG d   1      -6.686  75.095 115.302  0.00  0.00     0.149 HD
ENDBRANCH   6  13
BRANCH   5  18
ATOM     18  N   LIG d   1      -9.882  73.565 116.521  0.00  0.00     0.381 N 
ATOM     19  H   LIG d   1      -9.237  72.888 116.876  0.00  0.00    -0.090 HD
ATOM     20  H   LIG d   1      -9.988  73.413 115.534  0.00  0.00    -0.090 HD
ATOM     21  H   LIG d   1     -10.763  73.465 116.977  0.00  0.00    -0.090 HD
ENDBRANCH   5  18
BRANCH   3  22
ATOM     22  C   LIG d   1     -10.535  77.715 118.822  0.00  0.00     0.382 C 
ATOM     23  O   LIG d   1     -11.625  77.324 119.304  0.00  0.00    -0.241 OA
ATOM     24  O   LIG d   1     -10.284  78.934 118.783  0.00  0.00    -0.241 OA
ENDBRANCH   3  22
TORSDOF 7
ENDMDL
MODEL 3
REMARK VINA RESULT:      -5.6      1.339      2.172
REMARK  7 active torsions:
REMARK  status: ('A' for Active; 'I' for Inactive)
REMARK    1  A    between atoms: C_2  and  C_3 
REMARK    2  A    between atoms: C_3  and  O_6 
REMARK    3  A    between atoms: C_3  and  C_4 
REMARK    4  A    between atoms: C_7  and  O_6 
REMARK    5  A    between atoms: C_9  and  C_10 
REMARK    6  A    between atoms: N_15  and  C_14 
REMARK    7  A    between atoms: N_20  and  C_19 
REMARK       I    between atoms: C_22  and  N_20 
ROOT
ATOM      1  C   LIG d   1      -7.083  75.634 116.768  0.00  0.00     0.161 C 
ATOM      2  C   LIG d   1      -6.250  75.364 115.670  0.00  0.00     0.016 C 
ATOM      3  C   LIG d   1      -4.938  75.876 115.543  0.00  0.00     0.038 C 
ATOM      4  C   LIG d   1      -4.312  76.575 116.586  0.00  0.00     0.028 C 
ATOM      5  C   LIG d   1      -5.291  77.300 117.504  0.00  0.00    -0.047 C 
ATOM      6  C   LIG d   1      -6.378  76.302 117.966  0.00  0.00     0.091 C 
ENDROOT
BRANCH   1   7
ATOM      7  O   LIG d   1      -7.745  74.424 117.188  0.00  0.00    -0.368 OA
BRANCH   7   8
ATOM      8  C   LIG d   1      -8.376  73.646 116.140  0.00  0.00     0.119 C 
BRANCH   8   9
ATOM      9  C   LIG d   1      -9.897  73.688 116.385  0.00  0.00     0.028 C 
ATOM     10  C   LIG d   1     -10.360  75.030 116.976  0.00  0.00     0.006 C 
ENDBRANCH   8   9
BRANCH   8  11
ATOM     11  C   LIG d   1      -7.990  72.167 116.236  0.00  0.00     0.028 C 
ATOM     12  C   LIG d   1      -6.842  71.788 115.287  0.00  0.00     0.006 C 
ENDBRANCH   8  11
ENDBRANCH   7   8
ENDBRANCH   1   7
BRANCH   6  13
ATOM     13  N   LIG d   1      -7.423  76.950 118.800  0.00  0.00    -0.311 N 
ATOM     14  C   LIG d   1      -7.900  78.170 118.562  0.00  0.00     0.210 C 
ATOM     15  C   LIG d   1      -8.960  78.657 119.555  0.00  0.00     0.109 C 
ATOM     16  O   LIG d   1      -7.569  78.884 117.603  0.00  0.00    -0.276 OA
ATOM     17  H   LIG d   1      -7.771  76.429 119.581  0.00  0.00     0.149 HD
ENDBRANCH   6  13
BRANCH   5  18
ATOM     18  N   LIG d   1      -4.516  77.870 118.622  0.00  0.00     0.381 N 
ATOM     19  H   LIG d   1      -5.092  77.931 119.437  0.00  0.00    -0.090 HD
ATOM     20  H   LIG d   1      -4.222  78.798 118.373  0.00  0.00    -0.090 HD
ATOM     21  H   LIG d   1      -3.720  77.301 118.810  0.00  0.00    -0.090 HD
ENDBRANCH   5  18
BRANCH   3  22
ATOM     22  C   LIG d   1      -4.254  75.725 114.347  0.00  0.00     0.382 C 
ATOM     23  O   LIG d   1      -3.097  75.240 114.344  0.00  0.00    -0.241 OA
ATOM     24  O   LIG d   1      -4.761  76.110 113.276  0.00  0.00    -0.241 OA
ENDBRANCH   3  22
TORSDOF 7
ENDMDL
MODEL 4
REMARK VINA RESULT:      -5.5      2.283      3.999
REMARK  7 active torsions:
REMARK  status: ('A' for Active; 'I' for Inactive)
REMARK    1  A    between atoms: C_2  and  C_3 
REMARK    2  A    between atoms: C_3  and  O_6 
REMARK    3  A    between atoms: C_3  and  C_4 
REMARK    4  A    between atoms: C_7  and  O_6 
REMARK    5  A    between atoms: C_9  and  C_10 
REMARK    6  A    between atoms: N_15  and  C_14 
REMARK    7  A    between atoms: N_20  and  C_19 
REMARK       I    between atoms: C_22  and  N_20 
ROOT
ATOM      1  C   LIG d   1      -6.675  75.021 116.228  0.00  0.00     0.161 C 
ATOM      2  C   LIG d   1      -5.784  75.915 115.611  0.00  0.00     0.016 C 
ATOM      3  C   LIG d   1      -4.902  75.542 114.571  0.00  0.00     0.038 C 
ATOM      4  C   LIG d   1      -4.958  74.275 113.971  0.00  0.00     0.028 C 
ATOM      5  C   LIG d   1      -5.491  73.188 114.898  0.00  0.00    -0.047 C 
ATOM      6  C   LIG d   1      -6.828  73.663 115.511  0.00  0.00     0.091 C 
ENDROOT
BRANCH   1   7
ATOM      7  O   LIG d   1      -7.962  75.648 116.393  0.00  0.00    -0.368 OA
BRANCH   7   8
ATOM      8  C   LIG d   1      -8.382  75.892 117.758  0.00  0.00     0.119 C 
BRANCH   8   9
ATOM      9  C   LIG d   1      -9.883  75.553 117.847  0.00  0.00     0.028 C 
ATOM     10  C   LIG d   1     -10.367  74.713 116.654  0.00  0.00     0.006 C 
ENDBRANCH   8   9
BRANCH   8  11
ATOM     11  C   LIG d   1      -8.280  77.378 118.115  0.00  0.00     0.028 C 
ATOM     12  C   LIG d   1      -9.602  77.956 118.644  0.00  0.00     0.006 C 
ENDBRANCH   8  11
ENDBRANCH   7   8
ENDBRANCH   1   7
BRANCH   6  13
ATOM     13  N   LIG d   1      -7.376  72.694 116.495  0.00  0.00    -0.311 N 
ATOM     14  C   LIG d   1      -8.231  71.725 116.172  0.00  0.00     0.210 C 
ATOM     15  C   LIG d   1      -8.687  70.849 117.343  0.00  0.00     0.109 C 
ATOM     16  O   LIG d   1      -8.629  71.488 115.022  0.00  0.00    -0.276 OA
ATOM     17  H   LIG d   1      -7.081  72.794 117.447  0.00  0.00     0.149 HD
ENDBRANCH   6  13
BRANCH   5  18
ATOM     18  N   LIG d   1      -5.625  71.952 114.104  0.00  0.00     0.381 N 
ATOM     19  H   LIG d   1      -5.431  72.145 113.142  0.00  0.00    -0.090 HD
ATOM     20  H   LIG d   1      -6.571  71.621 114.175  0.00  0.00    -0.090 HD
ATOM     21  H   LIG d   1      -4.997  71.258 114.445  0.00  0.00    -0.090 HD
ENDBRANCH   5  18
BRANCH   3  22
ATOM     22  C   LIG d   1      -3.923  76.429 114.149  0.00  0.00     0.382 C 
ATOM     23  O   LIG d   1      -3.914  76.832 112.961  0.00  0.00    -0.241 OA
ATOM     24  O   LIG d   1      -3.024  76.795 114.929  0.00  0.00    -0.241 OA
ENDBRANCH   3  22
TORSDOF 7
ENDMDL
MODEL 5
REMARK VINA RESULT:      -5.2      2.284      4.046
REMARK  7 active torsions:
REMARK  status: ('A' for Active; 'I' for Inactive)
REMARK    1  A    between atoms: C_2  and  C_3 
REMARK    2  A    between atoms: C_3  and  O_6 
REMARK    3  A    between atoms: C_3  and  C_4 
REMARK    4  A    between atoms: C_7  and  O_6 
REMARK    5  A    between atoms: C_9  and  C_10 
REMARK    6  A    between atoms: N_15  and  C_14 
REMARK    7  A    between atoms: N_20  and  C_19 
REMARK       I    between atoms: C_22  and  N_20 
ROOT
ATOM      1  C   LIG d   1      -6.111  76.372 117.024  0.00  0.00     0.161 C 
ATOM      2  C   LIG d   1      -4.784  76.662 117.382  0.00  0.00     0.016 C 
ATOM      3  C   LIG d   1      -3.662  76.129 116.708  0.00  0.00     0.038 C 
ATOM      4  C   LIG d   1      -3.792  75.385 115.525  0.00  0.00     0.028 C 
ATOM      5  C   LIG d   1      -5.123  74.649 115.416  0.00  0.00    -0.047 C 
ATOM      6  C   LIG d   1      -6.273  75.651 115.669  0.00  0.00     0.091 C 
ENDROOT
BRANCH   1   7
ATOM      7  O   LIG d   1      -6.898  77.579 117.046  0.00  0.00    -0.368 OA
BRANCH   7   8
ATOM      8  C   LIG d   1      -7.556  77.888 118.299  0.00  0.00     0.119 C 
BRANCH   8   9
ATOM      9  C   LIG d   1      -8.912  77.156 118.304  0.00  0.00     0.028 C 
ATOM     10  C   LIG d   1      -8.964  76.024 119.344  0.00  0.00     0.006 C 
ENDBRANCH   8   9
BRANCH   8  11
ATOM     11  C   LIG d   1      -7.900  79.378 118.396  0.00  0.00     0.028 C 
ATOM     12  C   LIG d   1      -9.376  79.627 118.744  0.00  0.00     0.006 C 
ENDBRANCH   8  11
ENDBRANCH   7   8
ENDBRANCH   1   7
BRANCH   6  13
ATOM     13  N   LIG d   1      -7.607  74.997 115.664  0.00  0.00    -0.311 N 
ATOM     14  C   LIG d   1      -7.923  73.971 116.452  0.00  0.00     0.210 C 
ATOM     15  C   LIG d   1      -9.346  73.432 116.273  0.00  0.00     0.109 C 
ATOM     16  O   LIG d   1      -7.171  73.476 117.305  0.00  0.00    -0.276 OA
ATOM     17  H   LIG d   1      -8.288  75.355 115.024  0.00  0.00     0.149 HD
ENDBRANCH   6  13
BRANCH   5  18
ATOM     18  N   LIG d   1      -5.181  74.028 114.079  0.00  0.00     0.381 N 
ATOM     19  H   LIG d   1      -6.065  74.224 113.653  0.00  0.00    -0.090 HD
ATOM     20  H   LIG d   1      -5.093  73.032 114.179  0.00  0.00    -0.090 HD
ATOM     21  H   LIG d   1      -4.444  74.379 113.508  0.00  0.00    -0.090 HD
ENDBRANCH   5  18
BRANCH   3  22
ATOM     22  C   LIG d   1      -2.393  76.306 117.238  0.00  0.00     0.382 C 
ATOM     23  O   LIG d   1      -1.563  75.366 117.205  0.00  0.00    -0.241 OA
ATOM     24  O   LIG d   1      -2.083  77.379 117.789  0.00  0.00    -0.241 OA
ENDBRANCH   3  22
TORSDOF 7
ENDMDL
MODEL 6
REMARK VINA RESULT:      -4.9     15.771     17.781
REMARK  7 active torsions:
REMARK  status: ('A' for Active; 'I' for Inactive)
REMARK    1  A    between atoms: C_2  and  C_3 
REMARK    2  A    between atoms: C_3  and  O_6 
REMARK    3  A    between atoms: C_3  and  C_4 
REMARK    4  A    between atoms: C_7  and  O_6 
REMARK    5  A    between atoms: C_9  and  C_10 
REMARK    6  A    between atoms: N_15  and  C_14 
REMARK    7  A    between atoms: N_20  and  C_19 
REMARK       I    between atoms: C_22  and  N_20 
ROOT
ATOM      1  C   LIG d   1      -5.455  92.607 117.971  0.00  0.00     0.161 C 
ATOM      2  C   LIG d   1      -5.918  93.751 118.641  0.00  0.00     0.016 C 
ATOM      3  C   LIG d   1      -7.197  94.314 118.428  0.00  0.00     0.038 C 
ATOM      4  C   LIG d   1      -8.163  93.679 117.634  0.00  0.00     0.028 C 
ATOM      5  C   LIG d   1      -7.566  92.795 116.544  0.00  0.00    -0.047 C 
ATOM      6  C   LIG d   1      -6.536  91.837 117.184  0.00  0.00     0.091 C 
ENDROOT
BRANCH   1   7
ATOM      7  O   LIG d   1      -4.792  91.729 118.902  0.00  0.00    -0.368 OA
BRANCH   7   8
ATOM      8  C   LIG d   1      -3.377  91.965 119.104  0.00  0.00     0.119 C 
BRANCH   8   9
ATOM      9  C   LIG d   1      -2.841  92.672 117.844  0.00  0.00     0.028 C 
ATOM     10  C   LIG d   1      -1.957  93.884 118.183  0.00  0.00     0.006 C 
ENDBRANCH   8   9
BRANCH   8  11
ATOM     11  C   LIG d   1      -2.599  90.648 119.191  0.00  0.00     0.028 C 
ATOM     12  C   LIG d   1      -3.106  89.590 118.199  0.00  0.00     0.006 C 
ENDBRANCH   8  11
ENDBRANCH   7   8
ENDBRANCH   1   7
BRANCH   6  13
ATOM     13  N   LIG d   1      -5.843  90.994 116.175  0.00  0.00    -0.311 N 
ATOM     14  C   LIG d   1      -6.244  89.767 115.845  0.00  0.00     0.210 C 
ATOM     15  C   LIG d   1      -5.376  89.063 114.797  0.00  0.00     0.109 C 
ATOM     16  O   LIG d   1      -7.254  89.207 116.297  0.00  0.00    -0.276 OA
ATOM     17  H   LIG d   1      -5.032  91.382 115.735  0.00  0.00     0.149 HD
ENDBRANCH   6  13
BRANCH   5  18
ATOM     18  N   LIG d   1      -8.680  92.089 115.883  0.00  0.00     0.381 N 
ATOM     19  H   LIG d   1      -8.604  92.190 114.891  0.00  0.00    -0.090 HD
ATOM     20  H   LIG d   1      -9.547  92.503 116.177  0.00  0.00    -0.090 HD
ATOM     21  H   LIG d   1      -8.665  91.123 116.128  0.00  0.00    -0.090 HD
ENDBRANCH   5  18
BRANCH   3  22
ATOM     22  C   LIG d   1      -7.505  95.548 118.981  0.00  0.00     0.382 C 
ATOM     23  O   LIG d   1      -6.665  96.479 118.944  0.00  0.00    -0.241 OA
ATOM     24  O   LIG d   1      -8.596  95.728 119.554  0.00  0.00    -0.241 OA
ENDBRANCH   3  22
TORSDOF 7
ENDMDL
MODEL 7
REMARK VINA RESULT:      -4.5      2.077      4.296
REMARK  7 active torsions:
REMARK  status: ('A' for Active; 'I' for Inactive)
REMARK    1  A    between atoms: C_2  and  C_3 
REMARK    2  A    between atoms: C_3  and  O_6 
REMARK    3  A    between atoms: C_3  and  C_4 
REMARK    4  A    between atoms: C_7  and  O_6 
REMARK    5  A    between atoms: C_9  and  C_10 
REMARK    6  A    between atoms: N_15  and  C_14 
REMARK    7  A    between atoms: N_20  and  C_19 
REMARK       I    between atoms: C_22  and  N_20 
ROOT
ATOM      1  C   LIG d   1      -5.276  75.533 116.621  0.00  0.00     0.161 C 
ATOM      2  C   LIG d   1      -3.923  75.864 116.436  0.00  0.00     0.016 C 
ATOM      3  C   LIG d   1      -3.366  76.191 115.179  0.00  0.00     0.038 C 
ATOM      4  C   LIG d   1      -4.163  76.357 114.036  0.00  0.00     0.028 C 
ATOM      5  C   LIG d   1      -5.451  75.542 114.071  0.00  0.00    -0.047 C 
ATOM      6  C   LIG d   1      -6.183  75.817 115.405  0.00  0.00     0.091 C 
ENDROOT
BRANCH   1   7
ATOM      7  O   LIG d   1      -5.787  76.198 117.793  0.00  0.00    -0.368 OA
BRANCH   7   8
ATOM      8  C   LIG d   1      -5.662  77.641 117.812  0.00  0.00     0.119 C 
BRANCH   8   9
ATOM      9  C   LIG d   1      -5.106  78.040 119.192  0.00  0.00     0.028 C 
ATOM     10  C   LIG d   1      -3.573  77.939 119.259  0.00  0.00     0.006 C 
ENDBRANCH   8   9
BRANCH   8  11
ATOM     11  C   LIG d   1      -7.032  78.320 117.715  0.00  0.00     0.028 C 
ATOM     12  C   LIG d   1      -8.178  77.424 118.210  0.00  0.00     0.006 C 
ENDBRANCH   8  11
ENDBRANCH   7   8
ENDBRANCH   1   7
BRANCH   6  13
ATOM     13  N   LIG d   1      -7.411  74.995 115.557  0.00  0.00    -0.311 N 
ATOM     14  C   LIG d   1      -7.391  73.682 115.779  0.00  0.00     0.210 C 
ATOM     15  C   LIG d   1      -8.770  73.023 115.885  0.00  0.00     0.109 C 
ATOM     16  O   LIG d   1      -6.363  73.005 115.930  0.00  0.00    -0.276 OA
ATOM     17  H   LIG d   1      -8.290  75.468 115.480  0.00  0.00     0.149 HD
ENDBRANCH   6  13
BRANCH   5  18
ATOM     18  N   LIG d   1      -6.247  75.915 112.887  0.00  0.00     0.381 N 
ATOM     19  H   LIG d   1      -5.661  75.934 112.077  0.00  0.00    -0.090 HD
ATOM     20  H   LIG d   1      -6.624  76.836 113.025  0.00  0.00    -0.090 HD
ATOM     21  H   LIG d   1      -6.988  75.262 112.755  0.00  0.00    -0.090 HD
ENDBRANCH   5  18
BRANCH   3  22
ATOM     22  C   LIG d   1      -1.992  76.316 115.048  0.00  0.00     0.382 C 
ATOM     23  O   LIG d   1      -1.354  75.508 114.330  0.00  0.00    -0.241 OA
ATOM     24  O   LIG d   1      -1.375  77.200 115.672  0.00  0.00    -0.241 OA
ENDBRANCH   3  22
TORSDOF 7
ENDMDL
MODEL 8
REMARK VINA RESULT:      -4.5     16.039     17.948
REMARK  7 active torsions:
REMARK  status: ('A' for Active; 'I' for Inactive)
REMARK    1  A    between atoms: C_2  and  C_3 
REMARK    2  A    between atoms: C_3  and  O_6 
REMARK    3  A    between atoms: C_3  and  C_4 
REMARK    4  A    between atoms: C_7  and  O_6 
REMARK    5  A    between atoms: C_9  and  C_10 
REMARK    6  A    between atoms: N_15  and  C_14 
REMARK    7  A    between atoms: N_20  and  C_19 
REMARK       I    between atoms: C_22  and  N_20 
ROOT
ATOM      1  C   LIG d   1      -5.656  92.635 117.833  0.00  0.00     0.161 C 
ATOM      2  C   LIG d   1      -5.661  93.893 118.457  0.00  0.00     0.016 C 
ATOM      3  C   LIG d   1      -6.803  94.725 118.524  0.00  0.00     0.038 C 
ATOM      4  C   LIG d   1      -8.065  94.285 118.100  0.00  0.00     0.028 C 
ATOM      5  C   LIG d   1      -8.002  93.223 117.007  0.00  0.00    -0.047 C 
ATOM      6  C   LIG d   1      -7.052  92.092 117.462  0.00  0.00     0.091 C 
ENDROOT
BRANCH   1   7
ATOM      7  O   LIG d   1      -4.951  91.684 118.655  0.00  0.00    -0.368 OA
BRANCH   7   8
ATOM      8  C   LIG d   1      -3.566  91.441 118.303  0.00  0.00     0.119 C 
BRANCH   8   9
ATOM      9  C   LIG d   1      -3.472  90.002 117.760  0.00  0.00     0.028 C 
ATOM     10  C   LIG d   1      -2.775  89.048 118.743  0.00  0.00     0.006 C 
ENDBRANCH   8   9
BRANCH   8  11
ATOM     11  C   LIG d   1      -2.664  91.467 119.540  0.00  0.00     0.028 C 
ATOM     12  C   LIG d   1      -1.426  92.359 119.356  0.00  0.00     0.006 C 
ENDBRANCH   8  11
ENDBRANCH   7   8
ENDBRANCH   1   7
BRANCH   6  13
ATOM     13  N   LIG d   1      -6.867  91.052 116.416  0.00  0.00    -0.311 N 
ATOM     14  C   LIG d   1      -6.609  91.334 115.140  0.00  0.00     0.210 C 
ATOM     15  C   LIG d   1      -6.474  90.114 114.224  0.00  0.00     0.109 C 
ATOM     16  O   LIG d   1      -6.447  92.476 114.687  0.00  0.00    -0.276 OA
ATOM     17  H   LIG d   1      -6.950  90.096 116.703  0.00  0.00     0.149 HD
ENDBRANCH   6  13
BRANCH   5  18
ATOM     18  N   LIG d   1      -9.379  92.757 116.758  0.00  0.00     0.381 N 
ATOM     19  H   LIG d   1      -9.473  91.806 117.053  0.00  0.00    -0.090 HD
ATOM     20  H   LIG d   1      -9.563  92.800 115.771  0.00  0.00    -0.090 HD
ATOM     21  H   LIG d   1     -10.028  93.331 117.250  0.00  0.00    -0.090 HD
ENDBRANCH   5  18
BRANCH   3  22
ATOM     22  C   LIG d   1      -6.679  96.027 118.984  0.00  0.00     0.382 C 
ATOM     23  O   LIG d   1      -7.703  96.727 119.167  0.00  0.00    -0.241 OA
ATOM     24  O   LIG d   1      -5.553  96.525 119.175  0.00  0.00    -0.241 OA
ENDBRANCH   3  22
TORSDOF 7
ENDMDL
MODEL 9
REMARK VINA RESULT:      -4.3     12.344     14.887
REMARK  7 active torsions:
REMARK  status: ('A' for Active; 'I' for Inactive)
REMARK    1  A    between atoms: C_2  and  C_3 
REMARK    2  A    between atoms: C_3  and  O_6 
REMARK    3  A    between atoms: C_3  and  C_4 
REMARK    4  A    between atoms: C_7  and  O_6 
REMARK    5  A    between atoms: C_9  and  C_10 
REMARK    6  A    between atoms: N_15  and  C_14 
REMARK    7  A    between atoms: N_20  and  C_19 
REMARK       I    between atoms: C_22  and  N_20 
ROOT
ATOM      1  C   LIG d   1       2.304  87.179 115.602  0.00  0.00     0.161 C 
ATOM      2  C   LIG d   1       2.942  88.248 114.951  0.00  0.00     0.016 C 
ATOM      3  C   LIG d   1       3.559  88.131 113.684  0.00  0.00     0.038 C 
ATOM      4  C   LIG d   1       3.447  86.967 112.910  0.00  0.00     0.028 C 
ATOM      5  C   LIG d   1       3.246  85.704 113.741  0.00  0.00    -0.047 C 
ATOM      6  C   LIG d   1       2.075  85.931 114.724  0.00  0.00     0.091 C 
ENDROOT
BRANCH   1   7
ATOM      7  O   LIG d   1       1.058  87.627 116.171  0.00  0.00    -0.368 OA
BRANCH   7   8
ATOM      8  C   LIG d   1       1.001  87.684 117.617  0.00  0.00     0.119 C 
BRANCH   8   9
ATOM      9  C   LIG d   1      -0.152  86.768 118.071  0.00  0.00     0.028 C 
ATOM     10  C   LIG d   1      -1.119  86.429 116.924  0.00  0.00     0.006 C 
ENDBRANCH   8   9
BRANCH   8  11
ATOM     11  C   LIG d   1       0.623  89.085 118.106  0.00  0.00     0.028 C 
ATOM     12  C   LIG d   1       0.144  90.003 116.970  0.00  0.00     0.006 C 
ENDBRANCH   8  11
ENDBRANCH   7   8
ENDBRANCH   1   7
BRANCH   6  13
ATOM     13  N   LIG d   1       1.866  84.774 115.633  0.00  0.00    -0.311 N 
ATOM     14  C   LIG d   1       0.984  83.805 115.395  0.00  0.00     0.210 C 
ATOM     15  C   LIG d   1       0.913  82.717 116.471  0.00  0.00     0.109 C 
ATOM     16  O   LIG d   1       0.276  83.727 114.380  0.00  0.00    -0.276 OA
ATOM     17  H   LIG d   1       2.421  84.742 116.466  0.00  0.00     0.149 HD
ENDBRANCH   6  13
BRANCH   5  18
ATOM     18  N   LIG d   1       3.007  84.589 112.805  0.00  0.00     0.381 N 
ATOM     19  H   LIG d   1       2.811  84.948 111.892  0.00  0.00    -0.090 HD
ATOM     20  H   LIG d   1       2.206  84.068 113.118  0.00  0.00    -0.090 HD
ATOM     21  H   LIG d   1       3.806  83.994 112.772  0.00  0.00    -0.090 HD
ENDBRANCH   5  18
BRANCH   3  22
ATOM     22  C   LIG d   1       4.332  89.174 113.197  0.00  0.00     0.382 C 
ATOM     23  O   LIG d   1       5.513  88.962 112.832  0.00  0.00    -0.241 OA
ATOM     24  O   LIG d   1       3.877  90.333 113.159  0.00  0.00    -0.241 OA
ENDBRANCH   3  22
TORSDOF 7
ENDMDL
