MODEL 1
REMARK VINA RESULT:      -5.9      0.000      0.000
REMARK  7 active torsions:
REMARK  status: ('A' for Active; 'I' for Inactive)
REMARK    1  A    between atoms: C_2  and  C_3 
REMARK    2  A    between atoms: C_3  and  O_6 
REMARK    3  A    between atoms: C_3  and  C_4 
REMARK    4  A    between atoms: C_7  and  O_6 
REMARK    5  A    between atoms: C_9  and  C_10 
REMARK    6  A    between atoms: N_15  and  C_14 
REMARK    7  A    between atoms: N_20  and  C_19 
REMARK       I    between atoms: C_22  and  N_20 
ROOT
ATOM      1  C   LIG d   1      -7.317  76.205 117.251  0.00  0.00     0.161 C 
ATOM      2  C   LIG d   1      -8.579  76.722 117.590  0.00  0.00     0.016 C 
ATOM      3  C   LIG d   1      -8.813  78.090 117.857  0.00  0.00     0.038 C 
ATOM      4  C   LIG d   1      -7.825  79.065 117.654  0.00  0.00     0.028 C 
ATOM      5  C   LIG d   1      -6.406  78.528 117.801  0.00  0.00    -0.047 C 
ATOM      6  C   LIG d   1      -6.251  77.270 116.916  0.00  0.00     0.091 C 
ENDROOT
BRANCH   1   7
ATOM      7  O   LIG d   1      -7.449  75.269 116.163  0.00  0.00    -0.368 OA
BRANCH   7   8
ATOM      8  C   LIG d   1      -7.241  73.874 116.494  0.00  0.00     0.119 C 
BRANCH   8   9
ATOM      9  C   LIG d   1      -6.519  73.218 115.301  0.00  0.00     0.028 C 
ATOM     10  C   LIG d   1      -5.743  74.238 114.451  0.00  0.00     0.006 C 
ENDBRANCH   8   9
BRANCH   8  11
ATOM     11  C   LIG d   1      -8.572  73.128 116.622  0.00  0.00     0.028 C 
ATOM     12  C   LIG d   1      -8.449  71.630 116.300  0.00  0.00     0.006 C 
ENDBRANCH   8  11
ENDBRANCH   7   8
ENDBRANCH   1   7
BRANCH   6  13
ATOM     13  N   LIG d   1      -4.917  76.633 117.065  0.00  0.00    -0.311 N 
ATOM     14  C   LIG d   1      -3.894  76.873 116.246  0.00  0.00     0.210 C 
ATOM     15  C   LIG d   1      -2.614  76.096 116.566  0.00  0.00     0.109 C 
ATOM     16  O   LIG d   1      -3.917  77.680 115.305  0.00  0.00    -0.276 OA
ATOM     17  H   LIG d   1      -4.801  75.987 117.822  0.00  0.00     0.149 HD
ENDBRANCH   6  13
BRANCH   5  18
ATOM     18  N   LIG d   1      -5.478  79.614 117.429  0.00  0.00     0.381 N 
ATOM     19  H   LIG d   1      -5.997  80.424 117.156  0.00  0.00    -0.090 HD
ATOM     20  H   LIG d   1      -4.926  79.315 116.645  0.00  0.00    -0.090 HD
ATOM     21  H   LIG d   1      -4.885  79.833 118.198  0.00  0.00    -0.090 HD
ENDBRANCH   5  18
BRANCH   3  22
ATOM     22  C   LIG d   1     -10.037  78.490 118.372  0.00  0.00     0.382 C 
ATOM     23  O   LIG d   1     -10.918  77.634 118.631  0.00  0.00    -0.241 OA
ATOM     24  O   LIG d   1     -10.289  79.698 118.537  0.00  0.00    -0.241 OA
ENDBRANCH   3  22
TORSDOF 7
ENDMDL
MODEL 2
REMARK VINA RESULT:      -5.1      1.977      4.692
REMARK  7 active torsions:
REMARK  status: ('A' for Active; 'I' for Inactive)
REMARK    1  A    between atoms: C_2  and  C_3 
REMARK    2  A    between atoms: C_3  and  O_6 
REMARK    3  A    between atoms: C_3  and  C_4 
REMARK    4  A    between atoms: C_7  and  O_6 
REMARK    5  A    between atoms: C_9  and  C_10 
REMARK    6  A    between atoms: N_15  and  C_14 
REMARK    7  A    between atoms: N_20  and  C_19 
REMARK       I    between atoms: C_22  and  N_20 
ROOT
ATOM      1  C   LIG d   1      -6.350  76.596 116.809  0.00  0.00     0.161 C 
ATOM      2  C   LIG d   1      -6.852  75.324 116.486  0.00  0.00     0.016 C 
ATOM      3  C   LIG d   1      -8.168  74.907 116.791  0.00  0.00     0.038 C 
ATOM      4  C   LIG d   1      -9.126  75.792 117.308  0.00  0.00     0.028 C 
ATOM      5  C   LIG d   1      -8.520  76.936 118.115  0.00  0.00    -0.047 C 
ATOM      6  C   LIG d   1      -7.414  77.613 117.274  0.00  0.00     0.091 C 
ENDROOT
BRANCH   1   7
ATOM      7  O   LIG d   1      -5.605  77.125 115.695  0.00  0.00    -0.368 OA
BRANCH   7   8
ATOM      8  C   LIG d   1      -4.163  77.127 115.835  0.00  0.00     0.119 C 
BRANCH   8   9
ATOM      9  C   LIG d   1      -3.614  75.955 114.998  0.00  0.00     0.028 C 
ATOM     10  C   LIG d   1      -3.003  74.846 115.870  0.00  0.00     0.006 C 
ENDBRANCH   8   9
BRANCH   8  11
ATOM     11  C   LIG d   1      -3.743  76.825 117.277  0.00  0.00     0.028 C 
ATOM     12  C   LIG d   1      -3.114  78.038 117.981  0.00  0.00     0.006 C 
ENDBRANCH   8  11
ENDBRANCH   7   8
ENDBRANCH   1   7
BRANCH   6  13
ATOM     13  N   LIG d   1      -6.711  78.688 118.021  0.00  0.00    -0.311 N 
ATOM     14  C   LIG d   1      -7.078  79.968 117.982  0.00  0.00     0.210 C 
ATOM     15  C   LIG d   1      -6.206  80.917 118.810  0.00  0.00     0.109 C 
ATOM     16  O   LIG d   1      -8.063  80.403 117.366  0.00  0.00    -0.276 OA
ATOM     17  H   LIG d   1      -5.920  78.419 118.572  0.00  0.00     0.149 HD
ENDBRANCH   6  13
BRANCH   5  18
ATOM     18  N   LIG d   1      -9.615  77.855 118.478  0.00  0.00     0.381 N 
ATOM     19  H   LIG d   1      -9.506  78.721 117.989  0.00  0.00    -0.090 HD
ATOM     20  H   LIG d   1      -9.570  78.042 119.464  0.00  0.00    -0.090 HD
ATOM     21  H   LIG d   1     -10.494  77.445 118.249  0.00  0.00    -0.090 HD
ENDBRANCH   5  18
BRANCH   3  22
ATOM     22  C   LIG d   1      -8.527  73.579 116.614  0.00  0.00     0.382 C 
ATOM     23  O   LIG d   1      -9.736  73.248 116.639  0.00  0.00    -0.241 OA
ATOM     24  O   LIG d   1      -7.653  72.702 116.475  0.00  0.00    -0.241 OA
ENDBRANCH   3  22
TORSDOF 7
ENDMDL
MODEL 3
REMARK VINA RESULT:      -4.8      2.315      5.750
REMARK  7 active torsions:
REMARK  status: ('A' for Active; 'I' for Inactive)
REMARK    1  A    between atoms: C_2  and  C_3 
REMARK    2  A    between atoms: C_3  and  O_6 
REMARK    3  A    between atoms: C_3  and  C_4 
REMARK    4  A    between atoms: C_7  and  O_6 
REMARK    5  A    between atoms: C_9  and  C_10 
REMARK    6  A    between atoms: N_15  and  C_14 
REMARK    7  A    between atoms: N_20  and  C_19 
REMARK       I    between atoms: C_22  and  N_20 
ROOT
ATOM      1  C   LIG d   1      -4.607  77.149 116.308  0.00  0.00     0.161 C 
ATOM      2  C   LIG d   1      -4.773  75.947 115.600  0.00  0.00     0.016 C 
ATOM      3  C   LIG d   1      -6.001  75.249 115.528  0.00  0.00     0.038 C 
ATOM      4  C   LIG d   1      -7.191  75.788 116.037  0.00  0.00     0.028 C 
ATOM      5  C   LIG d   1      -6.971  76.755 117.196  0.00  0.00    -0.047 C 
ATOM      6  C   LIG d   1      -5.921  77.809 116.777  0.00  0.00     0.091 C 
ENDROOT
BRANCH   1   7
ATOM      7  O   LIG d   1      -3.833  78.076 115.523  0.00  0.00    -0.368 OA
BRANCH   7   8
ATOM      8  C   LIG d   1      -2.748  77.505 114.750  0.00  0.00     0.119 C 
BRANCH   8   9
ATOM      9  C   LIG d   1      -1.429  77.901 115.440  0.00  0.00     0.028 C 
ATOM     10  C   LIG d   1      -0.884  76.786 116.348  0.00  0.00     0.006 C 
ENDBRANCH   8   9
BRANCH   8  11
ATOM     11  C   LIG d   1      -2.676  78.124 113.351  0.00  0.00     0.028 C 
ATOM     12  C   LIG d   1      -2.262  79.604 113.375  0.00  0.00     0.006 C 
ENDBRANCH   8  11
ENDBRANCH   7   8
ENDBRANCH   1   7
BRANCH   6  13
ATOM     13  N   LIG d   1      -5.584  78.744 117.882  0.00  0.00    -0.311 N 
ATOM     14  C   LIG d   1      -6.200  79.911 118.068  0.00  0.00     0.210 C 
ATOM     15  C   LIG d   1      -5.685  80.731 119.256  0.00  0.00     0.109 C 
ATOM     16  O   LIG d   1      -7.144  80.330 117.382  0.00  0.00    -0.276 OA
ATOM     17  H   LIG d   1      -4.851  78.469 118.505  0.00  0.00     0.149 HD
ENDBRANCH   6  13
BRANCH   5  18
ATOM     18  N   LIG d   1      -8.279  77.346 117.537  0.00  0.00     0.381 N 
ATOM     19  H   LIG d   1      -8.563  77.979 116.817  0.00  0.00    -0.090 HD
ATOM     20  H   LIG d   1      -8.188  77.864 118.394  0.00  0.00    -0.090 HD
ATOM     21  H   LIG d   1      -8.960  76.627 117.646  0.00  0.00    -0.090 HD
ENDBRANCH   5  18
BRANCH   3  22
ATOM     22  C   LIG d   1      -6.037  73.978 114.975  0.00  0.00     0.382 C 
ATOM     23  O   LIG d   1      -6.710  73.074 115.526  0.00  0.00    -0.241 OA
ATOM     24  O   LIG d   1      -5.370  73.712 113.957  0.00  0.00    -0.241 OA
ENDBRANCH   3  22
TORSDOF 7
ENDMDL
MODEL 4
REMARK VINA RESULT:      -4.5     13.547     16.061
REMARK  7 active torsions:
REMARK  status: ('A' for Active; 'I' for Inactive)
REMARK    1  A    between atoms: C_2  and  C_3 
REMARK    2  A    between atoms: C_3  and  O_6 
REMARK    3  A    between atoms: C_3  and  C_4 
REMARK    4  A    between atoms: C_7  and  O_6 
REMARK    5  A    between atoms: C_9  and  C_10 
REMARK    6  A    between atoms: N_15  and  C_14 
REMARK    7  A    between atoms: N_20  and  C_19 
REMARK       I    between atoms: C_22  and  N_20 
ROOT
ATOM      1  C   LIG d   1      -4.175  91.394 117.328  0.00  0.00     0.161 C 
ATOM      2  C   LIG d   1      -3.430  92.365 118.016  0.00  0.00     0.016 C 
ATOM      3  C   LIG d   1      -4.009  93.501 118.628  0.00  0.00     0.038 C 
ATOM      4  C   LIG d   1      -5.399  93.664 118.723  0.00  0.00     0.028 C 
ATOM      5  C   LIG d   1      -6.169  92.968 117.606  0.00  0.00    -0.047 C 
ATOM      6  C   LIG d   1      -5.703  91.497 117.517  0.00  0.00     0.091 C 
ENDROOT
BRANCH   1   7
ATOM      7  O   LIG d   1      -3.714  90.077 117.689  0.00  0.00    -0.368 OA
BRANCH   7   8
ATOM      8  C   LIG d   1      -2.569  90.024 118.575  0.00  0.00     0.119 C 
BRANCH   8   9
ATOM      9  C   LIG d   1      -1.327  89.730 117.711  0.00  0.00     0.028 C 
ATOM     10  C   LIG d   1      -0.125  90.611 118.092  0.00  0.00     0.006 C 
ENDBRANCH   8   9
BRANCH   8  11
ATOM     11  C   LIG d   1      -2.672  88.847 119.550  0.00  0.00     0.028 C 
ATOM     12  C   LIG d   1      -1.951  87.588 119.043  0.00  0.00     0.006 C 
ENDBRANCH   8  11
ENDBRANCH   7   8
ENDBRANCH   1   7
BRANCH   6  13
ATOM     13  N   LIG d   1      -6.346  90.766 116.393  0.00  0.00    -0.311 N 
ATOM     14  C   LIG d   1      -6.532  91.296 115.185  0.00  0.00     0.210 C 
ATOM     15  C   LIG d   1      -7.232  90.378 114.178  0.00  0.00     0.109 C 
ATOM     16  O   LIG d   1      -6.155  92.427 114.843  0.00  0.00    -0.276 OA
ATOM     17  H   LIG d   1      -6.654  89.831 116.574  0.00  0.00     0.149 HD
ENDBRANCH   6  13
BRANCH   5  18
ATOM     18  N   LIG d   1      -7.607  93.103 117.904  0.00  0.00     0.381 N 
ATOM     19  H   LIG d   1      -8.144  92.890 117.087  0.00  0.00    -0.090 HD
ATOM     20  H   LIG d   1      -7.797  94.054 118.167  0.00  0.00    -0.090 HD
ATOM     21  H   LIG d   1      -7.860  92.488 118.646  0.00  0.00    -0.090 HD
ENDBRANCH   5  18
BRANCH   3  22
ATOM     22  C   LIG d   1      -3.193  94.509 119.119  0.00  0.00     0.382 C 
ATOM     23  O   LIG d   1      -2.039  94.236 119.530  0.00  0.00    -0.241 OA
ATOM     24  O   LIG d   1      -3.611  95.679 119.196  0.00  0.00    -0.241 OA
ENDBRANCH   3  22
TORSDOF 7
ENDMDL
MODEL 5
REMARK VINA RESULT:      -4.4     13.382     15.892
REMARK  7 active torsions:
REMARK  status: ('A' for Active; 'I' for Inactive)
REMARK    1  A    between atoms: C_2  and  C_3 
REMARK    2  A    between atoms: C_3  and  O_6 
REMARK    3  A    between atoms: C_3  and  C_4 
REMARK    4  A    between atoms: C_7  and  O_6 
REMARK    5  A    between atoms: C_9  and  C_10 
REMARK    6  A    between atoms: N_15  and  C_14 
REMARK    7  A    between atoms: N_20  and  C_19 
REMARK       I    between atoms: C_22  and  N_20 
ROOT
ATOM      1  C   LIG d   1       4.478  86.244 115.483  0.00  0.00     0.161 C 
ATOM      2  C   LIG d   1       3.985  87.163 114.541  0.00  0.00     0.016 C 
ATOM      3  C   LIG d   1       4.694  88.317 114.136  0.00  0.00     0.038 C 
ATOM      4  C   LIG d   1       6.018  88.552 114.534  0.00  0.00     0.028 C 
ATOM      5  C   LIG d   1       6.368  87.917 115.876  0.00  0.00    -0.047 C 
ATOM      6  C   LIG d   1       5.967  86.425 115.845  0.00  0.00     0.091 C 
ENDROOT
BRANCH   1   7
ATOM      7  O   LIG d   1       4.233  84.899 115.027  0.00  0.00    -0.368 OA
BRANCH   7   8
ATOM      8  C   LIG d   1       3.507  84.771 113.779  0.00  0.00     0.119 C 
BRANCH   8   9
ATOM      9  C   LIG d   1       2.098  84.245 114.115  0.00  0.00     0.028 C 
ATOM     10  C   LIG d   1       0.986  85.142 113.545  0.00  0.00     0.006 C 
ENDBRANCH   8   9
BRANCH   8  11
ATOM     11  C   LIG d   1       4.134  83.703 112.878  0.00  0.00     0.028 C 
ATOM     12  C   LIG d   1       3.595  82.292 113.162  0.00  0.00     0.006 C 
ENDBRANCH   8  11
ENDBRANCH   7   8
ENDBRANCH   1   7
BRANCH   6  13
ATOM     13  N   LIG d   1       6.198  85.749 117.148  0.00  0.00    -0.311 N 
ATOM     14  C   LIG d   1       7.139  84.826 117.338  0.00  0.00     0.210 C 
ATOM     15  C   LIG d   1       7.195  84.241 118.753  0.00  0.00     0.109 C 
ATOM     16  O   LIG d   1       7.955  84.460 116.478  0.00  0.00    -0.276 OA
ATOM     17  H   LIG d   1       5.601  86.008 117.909  0.00  0.00     0.149 HD
ENDBRANCH   6  13
BRANCH   5  18
ATOM     18  N   LIG d   1       7.811  88.123 116.103  0.00  0.00     0.381 N 
ATOM     19  H   LIG d   1       8.156  87.432 116.739  0.00  0.00    -0.090 HD
ATOM     20  H   LIG d   1       7.949  89.029 116.516  0.00  0.00    -0.090 HD
ATOM     21  H   LIG d   1       8.304  88.066 115.239  0.00  0.00    -0.090 HD
ENDBRANCH   5  18
BRANCH   3  22
ATOM     22  C   LIG d   1       4.062  89.271 113.353  0.00  0.00     0.382 C 
ATOM     23  O   LIG d   1       2.965  89.007 112.805  0.00  0.00    -0.241 OA
ATOM     24  O   LIG d   1       4.597  90.378 113.151  0.00  0.00    -0.241 OA
ENDBRANCH   3  22
TORSDOF 7
ENDMDL
MODEL 6
REMARK VINA RESULT:      -4.3     13.139     15.849
REMARK  7 active torsions:
REMARK  status: ('A' for Active; 'I' for Inactive)
REMARK    1  A    between atoms: C_2  and  C_3 
REMARK    2  A    between atoms: C_3  and  O_6 
REMARK    3  A    between atoms: C_3  and  C_4 
REMARK    4  A    between atoms: C_7  and  O_6 
REMARK    5  A    between atoms: C_9  and  C_10 
REMARK    6  A    between atoms: N_15  and  C_14 
REMARK    7  A    between atoms: N_20  and  C_19 
REMARK       I    between atoms: C_22  and  N_20 
ROOT
ATOM      1  C   LIG d   1       4.378  86.545 116.097  0.00  0.00     0.161 C 
ATOM      2  C   LIG d   1       3.817  87.425 115.157  0.00  0.00     0.016 C 
ATOM      3  C   LIG d   1       4.583  88.322 114.376  0.00  0.00     0.038 C 
ATOM      4  C   LIG d   1       5.986  88.292 114.375  0.00  0.00     0.028 C 
ATOM      5  C   LIG d   1       6.581  87.769 115.678  0.00  0.00    -0.047 C 
ATOM      6  C   LIG d   1       5.914  86.419 116.029  0.00  0.00     0.091 C 
ENDROOT
BRANCH   1   7
ATOM      7  O   LIG d   1       3.763  85.247 115.977  0.00  0.00    -0.368 OA
BRANCH   7   8
ATOM      8  C   LIG d   1       2.329  85.237 115.771  0.00  0.00     0.119 C 
BRANCH   8   9
ATOM      9  C   LIG d   1       1.697  84.474 116.951  0.00  0.00     0.028 C 
ATOM     10  C   LIG d   1       0.969  85.408 117.931  0.00  0.00     0.006 C 
ENDBRANCH   8   9
BRANCH   8  11
ATOM     11  C   LIG d   1       1.952  84.436 114.521  0.00  0.00     0.028 C 
ATOM     12  C   LIG d   1       1.151  85.262 113.503  0.00  0.00     0.006 C 
ENDBRANCH   8  11
ENDBRANCH   7   8
ENDBRANCH   1   7
BRANCH   6  13
ATOM     13  N   LIG d   1       6.379  85.879 117.333  0.00  0.00    -0.311 N 
ATOM     14  C   LIG d   1       7.365  84.991 117.449  0.00  0.00     0.210 C 
ATOM     15  C   LIG d   1       7.673  84.551 118.884  0.00  0.00     0.109 C 
ATOM     16  O   LIG d   1       8.035  84.550 116.504  0.00  0.00    -0.276 OA
ATOM     17  H   LIG d   1       5.911  86.207 118.155  0.00  0.00     0.149 HD
ENDBRANCH   6  13
BRANCH   5  18
ATOM     18  N   LIG d   1       8.040  87.661 115.489  0.00  0.00     0.381 N 
ATOM     19  H   LIG d   1       8.387  88.488 115.045  0.00  0.00    -0.090 HD
ATOM     20  H   LIG d   1       8.234  86.877 114.891  0.00  0.00    -0.090 HD
ATOM     21  H   LIG d   1       8.490  87.535 116.369  0.00  0.00    -0.090 HD
ENDBRANCH   5  18
BRANCH   3  22
ATOM     22  C   LIG d   1       3.945  89.289 113.615  0.00  0.00     0.382 C 
ATOM     23  O   LIG d   1       2.747  89.130 113.276  0.00  0.00    -0.241 OA
ATOM     24  O   LIG d   1       4.564  90.298 113.227  0.00  0.00    -0.241 OA
ENDBRANCH   3  22
TORSDOF 7
ENDMDL
MODEL 7
REMARK VINA RESULT:      -4.2     16.232     18.757
REMARK  7 active torsions:
REMARK  status: ('A' for Active; 'I' for Inactive)
REMARK    1  A    between atoms: C_2  and  C_3 
REMARK    2  A    between atoms: C_3  and  O_6 
REMARK    3  A    between atoms: C_3  and  C_4 
REMARK    4  A    between atoms: C_7  and  O_6 
REMARK    5  A    between atoms: C_9  and  C_10 
REMARK    6  A    between atoms: N_15  and  C_14 
REMARK    7  A    between atoms: N_20  and  C_19 
REMARK       I    between atoms: C_22  and  N_20 
ROOT
ATOM      1  C   LIG d   1     -23.140  82.673 115.775  0.00  0.00     0.161 C 
ATOM      2  C   LIG d   1     -22.673  83.970 115.505  0.00  0.00     0.016 C 
ATOM      3  C   LIG d   1     -23.141  84.758 114.428  0.00  0.00     0.038 C 
ATOM      4  C   LIG d   1     -24.224  84.356 113.632  0.00  0.00     0.028 C 
ATOM      5  C   LIG d   1     -24.388  82.842 113.551  0.00  0.00    -0.047 C 
ATOM      6  C   LIG d   1     -24.400  82.262 114.984  0.00  0.00     0.091 C 
ENDROOT
BRANCH   1   7
ATOM      7  O   LIG d   1     -23.364  82.519 117.190  0.00  0.00    -0.368 OA
BRANCH   7   8
ATOM      8  C   LIG d   1     -22.923  83.614 118.029  0.00  0.00     0.119 C 
BRANCH   8   9
ATOM      9  C   LIG d   1     -22.091  83.012 119.177  0.00  0.00     0.028 C 
ATOM     10  C   LIG d   1     -21.028  82.020 118.674  0.00  0.00     0.006 C 
ENDBRANCH   8   9
BRANCH   8  11
ATOM     11  C   LIG d   1     -24.107  84.309 118.707  0.00  0.00     0.028 C 
ATOM     12  C   LIG d   1     -24.236  85.789 118.312  0.00  0.00     0.006 C 
ENDBRANCH   8  11
ENDBRANCH   7   8
ENDBRANCH   1   7
BRANCH   6  13
ATOM     13  N   LIG d   1     -24.472  80.778 114.993  0.00  0.00    -0.311 N 
ATOM     14  C   LIG d   1     -25.615  80.100 115.085  0.00  0.00     0.210 C 
ATOM     15  C   LIG d   1     -25.464  78.576 115.097  0.00  0.00     0.109 C 
ATOM     16  O   LIG d   1     -26.742  80.616 115.124  0.00  0.00    -0.276 OA
ATOM     17  H   LIG d   1     -23.607  80.278 114.934  0.00  0.00     0.149 HD
ENDBRANCH   6  13
BRANCH   5  18
ATOM     18  N   LIG d   1     -25.631  82.568 112.806  0.00  0.00     0.381 N 
ATOM     19  H   LIG d   1     -25.576  82.975 111.894  0.00  0.00    -0.090 HD
ATOM     20  H   LIG d   1     -26.402  82.989 113.293  0.00  0.00    -0.090 HD
ATOM     21  H   LIG d   1     -25.773  81.585 112.730  0.00  0.00    -0.090 HD
ENDBRANCH   5  18
BRANCH   3  22
ATOM     22  C   LIG d   1     -22.497  85.945 114.114  0.00  0.00     0.382 C 
ATOM     23  O   LIG d   1     -22.971  87.038 114.505  0.00  0.00    -0.241 OA
ATOM     24  O   LIG d   1     -21.471  85.939 113.407  0.00  0.00    -0.241 OA
ENDBRANCH   3  22
TORSDOF 7
ENDMDL
MODEL 8
REMARK VINA RESULT:      -4.2     15.463     17.871
REMARK  7 active torsions:
REMARK  status: ('A' for Active; 'I' for Inactive)
REMARK    1  A    between atoms: C_2  and  C_3 
REMARK    2  A    between atoms: C_3  and  O_6 
REMARK    3  A    between atoms: C_3  and  C_4 
REMARK    4  A    between atoms: C_7  and  O_6 
REMARK    5  A    between atoms: C_9  and  C_10 
REMARK    6  A    between atoms: N_15  and  C_14 
REMARK    7  A    between atoms: N_20  and  C_19 
REMARK       I    between atoms: C_22  and  N_20 
ROOT
ATOM      1  C   LIG d   1       5.519  87.607 116.369  0.00  0.00     0.161 C 
ATOM      2  C   LIG d   1       4.723  88.749 116.558  0.00  0.00     0.016 C 
ATOM      3  C   LIG d   1       5.244  90.005 116.945  0.00  0.00     0.038 C 
ATOM      4  C   LIG d   1       6.624  90.244 117.022  0.00  0.00     0.028 C 
ATOM      5  C   LIG d   1       7.438  88.992 117.332  0.00  0.00    -0.047 C 
ATOM      6  C   LIG d   1       7.038  87.875 116.341  0.00  0.00     0.091 C 
ENDROOT
BRANCH   1   7
ATOM      7  O   LIG d   1       5.110  86.919 115.171  0.00  0.00    -0.368 OA
BRANCH   7   8
ATOM      8  C   LIG d   1       4.284  87.675 114.252  0.00  0.00     0.119 C 
BRANCH   8   9
ATOM      9  C   LIG d   1       3.158  86.743 113.766  0.00  0.00     0.028 C 
ATOM     10  C   LIG d   1       3.697  85.419 113.198  0.00  0.00     0.006 C 
ENDBRANCH   8   9
BRANCH   8  11
ATOM     11  C   LIG d   1       5.063  88.062 112.991  0.00  0.00     0.028 C 
ATOM     12  C   LIG d   1       5.804  89.401 113.135  0.00  0.00     0.006 C 
ENDBRANCH   8  11
ENDBRANCH   7   8
ENDBRANCH   1   7
BRANCH   6  13
ATOM     13  N   LIG d   1       7.727  86.590 116.628  0.00  0.00    -0.311 N 
ATOM     14  C   LIG d   1       8.903  86.255 116.100  0.00  0.00     0.210 C 
ATOM     15  C   LIG d   1       9.427  84.876 116.511  0.00  0.00     0.109 C 
ATOM     16  O   LIG d   1       9.577  86.983 115.355  0.00  0.00    -0.276 OA
ATOM     17  H   LIG d   1       7.265  85.953 117.247  0.00  0.00     0.149 HD
ENDBRANCH   6  13
BRANCH   5  18
ATOM     18  N   LIG d   1       8.865  89.357 117.247  0.00  0.00     0.381 N 
ATOM     19  H   LIG d   1       8.997  90.046 116.534  0.00  0.00    -0.090 HD
ATOM     20  H   LIG d   1       9.395  88.540 116.999  0.00  0.00    -0.090 HD
ATOM     21  H   LIG d   1       9.179  89.711 118.124  0.00  0.00    -0.090 HD
ENDBRANCH   5  18
BRANCH   3  22
ATOM     22  C   LIG d   1       4.378  91.029 117.297  0.00  0.00     0.382 C 
ATOM     23  O   LIG d   1       4.335  92.079 116.611  0.00  0.00    -0.241 OA
ATOM     24  O   LIG d   1       3.670  90.935 118.318  0.00  0.00    -0.241 OA
ENDBRANCH   3  22
TORSDOF 7
ENDMDL
MODEL 9
REMARK VINA RESULT:      -4.1      2.503      6.133
REMARK  7 active torsions:
REMARK  status: ('A' for Active; 'I' for Inactive)
REMARK    1  A    between atoms: C_2  and  C_3 
REMARK    2  A    between atoms: C_3  and  O_6 
REMARK    3  A    between atoms: C_3  and  C_4 
REMARK    4  A    between atoms: C_7  and  O_6 
REMARK    5  A    between atoms: C_9  and  C_10 
REMARK    6  A    between atoms: N_15  and  C_14 
REMARK    7  A    between atoms: N_20  and  C_19 
REMARK       I    between atoms: C_22  and  N_20 
ROOT
ATOM      1  C   LIG d   1      -4.832  77.808 116.802  0.00  0.00     0.161 C 
ATOM      2  C   LIG d   1      -4.534  76.684 116.013  0.00  0.00     0.016 C 
ATOM      3  C   LIG d   1      -5.490  75.702 115.667  0.00  0.00     0.038 C 
ATOM      4  C   LIG d   1      -6.853  75.857 115.961  0.00  0.00     0.028 C 
ATOM      5  C   LIG d   1      -7.113  76.724 117.189  0.00  0.00    -0.047 C 
ATOM      6  C   LIG d   1      -6.337  78.052 117.039  0.00  0.00     0.091 C 
ENDROOT
BRANCH   1   7
ATOM      7  O   LIG d   1      -4.218  78.981 116.232  0.00  0.00    -0.368 OA
BRANCH   7   8
ATOM      8  C   LIG d   1      -3.046  79.485 116.919  0.00  0.00     0.119 C 
BRANCH   8   9
ATOM      9  C   LIG d   1      -1.808  78.992 116.145  0.00  0.00     0.028 C 
ATOM     10  C   LIG d   1      -0.494  79.302 116.881  0.00  0.00     0.006 C 
ENDBRANCH   8   9
BRANCH   8  11
ATOM     11  C   LIG d   1      -2.917  78.878 118.319  0.00  0.00     0.028 C 
ATOM     12  C   LIG d   1      -3.201  79.893 119.437  0.00  0.00     0.006 C 
ENDBRANCH   8  11
ENDBRANCH   7   8
ENDBRANCH   1   7
BRANCH   6  13
ATOM     13  N   LIG d   1      -6.468  78.924 118.236  0.00  0.00    -0.311 N 
ATOM     14  C   LIG d   1      -7.077  80.108 118.217  0.00  0.00     0.210 C 
ATOM     15  C   LIG d   1      -7.083  80.853 119.555  0.00  0.00     0.109 C 
ATOM     16  O   LIG d   1      -7.640  80.598 117.226  0.00  0.00    -0.276 OA
ATOM     17  H   LIG d   1      -6.067  78.589 119.090  0.00  0.00     0.149 HD
ENDBRANCH   6  13
BRANCH   5  18
ATOM     18  N   LIG d   1      -8.571  76.915 117.299  0.00  0.00     0.381 N 
ATOM     19  H   LIG d   1      -9.046  76.105 116.955  0.00  0.00    -0.090 HD
ATOM     20  H   LIG d   1      -8.839  77.701 116.734  0.00  0.00    -0.090 HD
ATOM     21  H   LIG d   1      -8.823  77.078 118.249  0.00  0.00    -0.090 HD
ENDBRANCH   5  18
BRANCH   3  22
ATOM     22  C   LIG d   1      -5.079  74.529 115.052  0.00  0.00     0.382 C 
ATOM     23  O   LIG d   1      -5.559  74.203 113.940  0.00  0.00    -0.241 OA
ATOM     24  O   LIG d   1      -4.267  73.772 115.616  0.00  0.00    -0.241 OA
ENDBRANCH   3  22
TORSDOF 7
ENDMDL
