MODEL 1
REMARK VINA RESULT:      -5.5      0.000      0.000
REMARK  7 active torsions:
REMARK  status: ('A' for Active; 'I' for Inactive)
REMARK    1  A    between atoms: C_2  and  C_3 
REMARK    2  A    between atoms: C_3  and  O_6 
REMARK    3  A    between atoms: C_3  and  C_4 
REMARK    4  A    between atoms: C_7  and  O_6 
REMARK    5  A    between atoms: C_9  and  C_10 
REMARK    6  A    between atoms: N_15  and  C_14 
REMARK    7  A    between atoms: N_20  and  C_19 
REMARK       I    between atoms: C_22  and  N_20 
ROOT
ATOM      1  C   LIG d   1      -8.105  73.593 117.321  0.00  0.00     0.161 C 
ATOM      2  C   LIG d   1      -8.295  72.249 116.960  0.00  0.00     0.016 C 
ATOM      3  C   LIG d   1      -9.468  71.520 117.263  0.00  0.00     0.038 C 
ATOM      4  C   LIG d   1     -10.599  72.134 117.819  0.00  0.00     0.028 C 
ATOM      5  C   LIG d   1     -10.270  73.364 118.659  0.00  0.00    -0.047 C 
ATOM      6  C   LIG d   1      -9.373  74.311 117.830  0.00  0.00     0.091 C 
ENDROOT
BRANCH   1   7
ATOM      7  O   LIG d   1      -7.527  74.319 116.218  0.00  0.00    -0.368 OA
BRANCH   7   8
ATOM      8  C   LIG d   1      -6.195  73.914 115.817  0.00  0.00     0.119 C 
BRANCH   8   9
ATOM      9  C   LIG d   1      -5.193  74.662 116.718  0.00  0.00     0.028 C 
ATOM     10  C   LIG d   1      -4.025  73.768 117.165  0.00  0.00     0.006 C 
ENDBRANCH   8   9
BRANCH   8  11
ATOM     11  C   LIG d   1      -5.879  74.373 114.390  0.00  0.00     0.028 C 
ATOM     12  C   LIG d   1      -6.702  75.598 113.963  0.00  0.00     0.006 C 
ENDBRANCH   8  11
ENDBRANCH   7   8
ENDBRANCH   1   7
BRANCH   6  13
ATOM     13  N   LIG d   1      -8.935  75.500 118.606  0.00  0.00    -0.311 N 
ATOM     14  C   LIG d   1      -9.625  76.638 118.656  0.00  0.00     0.210 C 
ATOM     15  C   LIG d   1      -8.985  77.746 119.498  0.00  0.00     0.109 C 
ATOM     16  O   LIG d   1     -10.722  76.825 118.108  0.00  0.00    -0.276 OA
ATOM     17  H   LIG d   1      -8.071  75.426 119.107  0.00  0.00     0.149 HD
ENDBRANCH   6  13
BRANCH   5  18
ATOM     18  N   LIG d   1     -11.547  73.983 119.062  0.00  0.00     0.381 N 
ATOM     19  H   LIG d   1     -11.399  74.582 119.850  0.00  0.00    -0.090 HD
ATOM     20  H   LIG d   1     -12.188  73.258 119.333  0.00  0.00    -0.090 HD
ATOM     21  H   LIG d   1     -11.927  74.506 118.304  0.00  0.00    -0.090 HD
ENDBRANCH   5  18
BRANCH   3  22
ATOM     22  C   LIG d   1      -9.501  70.151 117.046  0.00  0.00     0.382 C 
ATOM     23  O   LIG d   1     -10.477  69.475 117.452  0.00  0.00    -0.241 OA
ATOM     24  O   LIG d   1      -8.547  69.576 116.487  0.00  0.00    -0.241 OA
ENDBRANCH   3  22
TORSDOF 7
ENDMDL
MODEL 2
REMARK VINA RESULT:      -5.4      9.522     13.093
REMARK  7 active torsions:
REMARK  status: ('A' for Active; 'I' for Inactive)
REMARK    1  A    between atoms: C_2  and  C_3 
REMARK    2  A    between atoms: C_3  and  O_6 
REMARK    3  A    between atoms: C_3  and  C_4 
REMARK    4  A    between atoms: C_7  and  O_6 
REMARK    5  A    between atoms: C_9  and  C_10 
REMARK    6  A    between atoms: N_15  and  C_14 
REMARK    7  A    between atoms: N_20  and  C_19 
REMARK       I    between atoms: C_22  and  N_20 
ROOT
ATOM      1  C   LIG d   1     -16.759  65.450 114.537  0.00  0.00     0.161 C 
ATOM      2  C   LIG d   1     -16.411  66.545 113.729  0.00  0.00     0.016 C 
ATOM      3  C   LIG d   1     -15.384  67.460 114.058  0.00  0.00     0.038 C 
ATOM      4  C   LIG d   1     -14.529  67.253 115.151  0.00  0.00     0.028 C 
ATOM      5  C   LIG d   1     -15.166  66.439 116.272  0.00  0.00    -0.047 C 
ATOM      6  C   LIG d   1     -15.764  65.144 115.676  0.00  0.00     0.091 C 
ENDROOT
BRANCH   1   7
ATOM      7  O   LIG d   1     -16.956  64.281 113.716  0.00  0.00    -0.368 OA
BRANCH   7   8
ATOM      8  C   LIG d   1     -18.321  63.811 113.593  0.00  0.00     0.119 C 
BRANCH   8   9
ATOM      9  C   LIG d   1     -19.225  64.816 114.333  0.00  0.00     0.028 C 
ATOM     10  C   LIG d   1     -20.300  65.425 113.417  0.00  0.00     0.006 C 
ENDBRANCH   8   9
BRANCH   8  11
ATOM     11  C   LIG d   1     -18.519  62.477 114.319  0.00  0.00     0.028 C 
ATOM     12  C   LIG d   1     -19.345  62.616 115.607  0.00  0.00     0.006 C 
ENDBRANCH   8  11
ENDBRANCH   7   8
ENDBRANCH   1   7
BRANCH   6  13
ATOM     13  N   LIG d   1     -16.481  64.330 116.692  0.00  0.00    -0.311 N 
ATOM     14  C   LIG d   1     -15.904  63.350 117.385  0.00  0.00     0.210 C 
ATOM     15  C   LIG d   1     -16.827  62.623 118.368  0.00  0.00     0.109 C 
ATOM     16  O   LIG d   1     -14.707  63.035 117.303  0.00  0.00    -0.276 OA
ATOM     17  H   LIG d   1     -17.448  64.539 116.845  0.00  0.00     0.149 HD
ENDBRANCH   6  13
BRANCH   5  18
ATOM     18  N   LIG d   1     -14.123  66.181 117.284  0.00  0.00     0.381 N 
ATOM     19  H   LIG d   1     -13.752  65.261 117.160  0.00  0.00    -0.090 HD
ATOM     20  H   LIG d   1     -14.537  66.235 118.198  0.00  0.00    -0.090 HD
ATOM     21  H   LIG d   1     -13.394  66.855 117.201  0.00  0.00    -0.090 HD
ENDBRANCH   5  18
BRANCH   3  22
ATOM     22  C   LIG d   1     -15.231  68.619 113.312  0.00  0.00     0.382 C 
ATOM     23  O   LIG d   1     -14.094  69.134 113.182  0.00  0.00    -0.241 OA
ATOM     24  O   LIG d   1     -16.221  69.179 112.805  0.00  0.00    -0.241 OA
ENDBRANCH   3  22
TORSDOF 7
ENDMDL
MODEL 3
REMARK VINA RESULT:      -5.2      2.423      4.947
REMARK  7 active torsions:
REMARK  status: ('A' for Active; 'I' for Inactive)
REMARK    1  A    between atoms: C_2  and  C_3 
REMARK    2  A    between atoms: C_3  and  O_6 
REMARK    3  A    between atoms: C_3  and  C_4 
REMARK    4  A    between atoms: C_7  and  O_6 
REMARK    5  A    between atoms: C_9  and  C_10 
REMARK    6  A    between atoms: N_15  and  C_14 
REMARK    7  A    between atoms: N_20  and  C_19 
REMARK       I    between atoms: C_22  and  N_20 
ROOT
ATOM      1  C   LIG d   1      -9.456  75.756 117.458  0.00  0.00     0.161 C 
ATOM      2  C   LIG d   1     -10.721  75.845 118.061  0.00  0.00     0.016 C 
ATOM      3  C   LIG d   1     -11.578  74.735 118.241  0.00  0.00     0.038 C 
ATOM      4  C   LIG d   1     -11.161  73.424 117.963  0.00  0.00     0.028 C 
ATOM      5  C   LIG d   1     -10.085  73.346 116.886  0.00  0.00    -0.047 C 
ATOM      6  C   LIG d   1      -8.939  74.317 117.250  0.00  0.00     0.091 C 
ENDROOT
BRANCH   1   7
ATOM      7  O   LIG d   1      -8.500  76.528 118.211  0.00  0.00    -0.368 OA
BRANCH   7   8
ATOM      8  C   LIG d   1      -8.202  77.850 117.698  0.00  0.00     0.119 C 
BRANCH   8   9
ATOM      9  C   LIG d   1      -6.705  77.880 117.336  0.00  0.00     0.028 C 
ATOM     10  C   LIG d   1      -6.098  79.287 117.467  0.00  0.00     0.006 C 
ENDBRANCH   8   9
BRANCH   8  11
ATOM     11  C   LIG d   1      -8.380  78.920 118.780  0.00  0.00     0.028 C 
ATOM     12  C   LIG d   1      -9.757  79.600 118.724  0.00  0.00     0.006 C 
ENDBRANCH   8  11
ENDBRANCH   7   8
ENDBRANCH   1   7
BRANCH   6  13
ATOM     13  N   LIG d   1      -7.883  74.365 116.205  0.00  0.00    -0.311 N 
ATOM     14  C   LIG d   1      -6.787  73.608 116.235  0.00  0.00     0.210 C 
ATOM     15  C   LIG d   1      -5.817  73.829 115.070  0.00  0.00     0.109 C 
ATOM     16  O   LIG d   1      -6.542  72.752 117.098  0.00  0.00    -0.276 OA
ATOM     17  H   LIG d   1      -8.016  75.010 115.451  0.00  0.00     0.149 HD
ENDBRANCH   6  13
BRANCH   5  18
ATOM     18  N   LIG d   1      -9.646  71.941 116.795  0.00  0.00     0.381 N 
ATOM     19  H   LIG d   1      -8.658  71.885 116.940  0.00  0.00    -0.090 HD
ATOM     20  H   LIG d   1      -9.850  71.595 115.874  0.00  0.00    -0.090 HD
ATOM     21  H   LIG d   1     -10.121  71.391 117.477  0.00  0.00    -0.090 HD
ENDBRANCH   5  18
BRANCH   3  22
ATOM     22  C   LIG d   1     -12.882  74.935 118.666  0.00  0.00     0.382 C 
ATOM     23  O   LIG d   1     -13.560  75.877 118.187  0.00  0.00    -0.241 OA
ATOM     24  O   LIG d   1     -13.376  74.214 119.553  0.00  0.00    -0.241 OA
ENDBRANCH   3  22
TORSDOF 7
ENDMDL
MODEL 4
REMARK VINA RESULT:      -5.0     10.109     12.418
REMARK  7 active torsions:
REMARK  status: ('A' for Active; 'I' for Inactive)
REMARK    1  A    between atoms: C_2  and  C_3 
REMARK    2  A    between atoms: C_3  and  O_6 
REMARK    3  A    between atoms: C_3  and  C_4 
REMARK    4  A    between atoms: C_7  and  O_6 
REMARK    5  A    between atoms: C_9  and  C_10 
REMARK    6  A    between atoms: N_15  and  C_14 
REMARK    7  A    between atoms: N_20  and  C_19 
REMARK       I    between atoms: C_22  and  N_20 
ROOT
ATOM      1  C   LIG d   1     -15.420  65.347 115.663  0.00  0.00     0.161 C 
ATOM      2  C   LIG d   1     -15.143  66.631 115.165  0.00  0.00     0.016 C 
ATOM      3  C   LIG d   1     -15.813  67.196 114.056  0.00  0.00     0.038 C 
ATOM      4  C   LIG d   1     -16.917  66.570 113.459  0.00  0.00     0.028 C 
ATOM      5  C   LIG d   1     -16.905  65.052 113.605  0.00  0.00    -0.047 C 
ATOM      6  C   LIG d   1     -16.697  64.693 115.094  0.00  0.00     0.091 C 
ENDROOT
BRANCH   1   7
ATOM      7  O   LIG d   1     -15.474  65.382 117.103  0.00  0.00    -0.368 OA
BRANCH   7   8
ATOM      8  C   LIG d   1     -15.294  66.683 117.716  0.00  0.00     0.119 C 
BRANCH   8   9
ATOM      9  C   LIG d   1     -14.316  66.508 118.894  0.00  0.00     0.028 C 
ATOM     10  C   LIG d   1     -14.435  65.124 119.554  0.00  0.00     0.006 C 
ENDBRANCH   8   9
BRANCH   8  11
ATOM     11  C   LIG d   1     -16.596  67.189 118.342  0.00  0.00     0.028 C 
ATOM     12  C   LIG d   1     -17.394  68.104 117.399  0.00  0.00     0.006 C 
ENDBRANCH   8  11
ENDBRANCH   7   8
ENDBRANCH   1   7
BRANCH   6  13
ATOM     13  N   LIG d   1     -16.588  63.227 115.315  0.00  0.00    -0.311 N 
ATOM     14  C   LIG d   1     -17.626  62.456 115.635  0.00  0.00     0.210 C 
ATOM     15  C   LIG d   1     -17.291  60.974 115.837  0.00  0.00     0.109 C 
ATOM     16  O   LIG d   1     -18.796  62.852 115.739  0.00  0.00    -0.276 OA
ATOM     17  H   LIG d   1     -15.680  62.818 115.220  0.00  0.00     0.149 HD
ENDBRANCH   6  13
BRANCH   5  18
ATOM     18  N   LIG d   1     -18.178  64.541 113.061  0.00  0.00     0.381 N 
ATOM     19  H   LIG d   1     -18.017  63.683 112.573  0.00  0.00    -0.090 HD
ATOM     20  H   LIG d   1     -18.544  65.211 112.407  0.00  0.00    -0.090 HD
ATOM     21  H   LIG d   1     -18.831  64.395 113.799  0.00  0.00    -0.090 HD
ENDBRANCH   5  18
BRANCH   3  22
ATOM     22  C   LIG d   1     -15.353  68.383 113.507  0.00  0.00     0.382 C 
ATOM     23  O   LIG d   1     -16.133  69.114 112.849  0.00  0.00    -0.241 OA
ATOM     24  O   LIG d   1     -14.157  68.712 113.624  0.00  0.00    -0.241 OA
ENDBRANCH   3  22
TORSDOF 7
ENDMDL
MODEL 5
REMARK VINA RESULT:      -4.6      2.372      3.505
REMARK  7 active torsions:
REMARK  status: ('A' for Active; 'I' for Inactive)
REMARK    1  A    between atoms: C_2  and  C_3 
REMARK    2  A    between atoms: C_3  and  O_6 
REMARK    3  A    between atoms: C_3  and  C_4 
REMARK    4  A    between atoms: C_7  and  O_6 
REMARK    5  A    between atoms: C_9  and  C_10 
REMARK    6  A    between atoms: N_15  and  C_14 
REMARK    7  A    between atoms: N_20  and  C_19 
REMARK       I    between atoms: C_22  and  N_20 
ROOT
ATOM      1  C   LIG d   1      -8.121  74.594 118.696  0.00  0.00     0.161 C 
ATOM      2  C   LIG d   1      -9.339  73.909 118.549  0.00  0.00     0.016 C 
ATOM      3  C   LIG d   1     -10.575  74.557 118.323  0.00  0.00     0.038 C 
ATOM      4  C   LIG d   1     -10.654  75.936 118.077  0.00  0.00     0.028 C 
ATOM      5  C   LIG d   1      -9.521  76.732 118.716  0.00  0.00    -0.047 C 
ATOM      6  C   LIG d   1      -8.172  76.090 118.320  0.00  0.00     0.091 C 
ENDROOT
BRANCH   1   7
ATOM      7  O   LIG d   1      -7.089  73.923 117.946  0.00  0.00    -0.368 OA
BRANCH   7   8
ATOM      8  C   LIG d   1      -7.402  73.616 116.565  0.00  0.00     0.119 C 
BRANCH   8   9
ATOM      9  C   LIG d   1      -6.860  72.204 116.271  0.00  0.00     0.028 C 
ATOM     10  C   LIG d   1      -7.941  71.120 116.411  0.00  0.00     0.006 C 
ENDBRANCH   8   9
BRANCH   8  11
ATOM     11  C   LIG d   1      -6.655  74.546 115.605  0.00  0.00     0.028 C 
ATOM     12  C   LIG d   1      -5.754  73.786 114.620  0.00  0.00     0.006 C 
ENDBRANCH   8  11
ENDBRANCH   7   8
ENDBRANCH   1   7
BRANCH   6  13
ATOM     13  N   LIG d   1      -7.014  76.756 118.971  0.00  0.00    -0.311 N 
ATOM     14  C   LIG d   1      -6.299  77.718 118.389  0.00  0.00     0.210 C 
ATOM     15  C   LIG d   1      -5.136  78.256 119.228  0.00  0.00     0.109 C 
ATOM     16  O   LIG d   1      -6.538  78.199 117.271  0.00  0.00    -0.276 OA
ATOM     17  H   LIG d   1      -6.770  76.449 119.892  0.00  0.00     0.149 HD
ENDBRANCH   6  13
BRANCH   5  18
ATOM     18  N   LIG d   1      -9.650  78.131 118.266  0.00  0.00     0.381 N 
ATOM     19  H   LIG d   1      -9.205  78.243 117.377  0.00  0.00    -0.090 HD
ATOM     20  H   LIG d   1      -9.187  78.729 118.927  0.00  0.00    -0.090 HD
ATOM     21  H   LIG d   1     -10.612  78.380 118.198  0.00  0.00    -0.090 HD
ENDBRANCH   5  18
BRANCH   3  22
ATOM     22  C   LIG d   1     -11.753  73.830 118.382  0.00  0.00     0.382 C 
ATOM     23  O   LIG d   1     -12.853  74.400 118.181  0.00  0.00    -0.241 OA
ATOM     24  O   LIG d   1     -11.735  72.620 118.678  0.00  0.00    -0.241 OA
ENDBRANCH   3  22
TORSDOF 7
ENDMDL
MODEL 6
REMARK VINA RESULT:      -4.6      2.661      4.603
REMARK  7 active torsions:
REMARK  status: ('A' for Active; 'I' for Inactive)
REMARK    1  A    between atoms: C_2  and  C_3 
REMARK    2  A    between atoms: C_3  and  O_6 
REMARK    3  A    between atoms: C_3  and  C_4 
REMARK    4  A    between atoms: C_7  and  O_6 
REMARK    5  A    between atoms: C_9  and  C_10 
REMARK    6  A    between atoms: N_15  and  C_14 
REMARK    7  A    between atoms: N_20  and  C_19 
REMARK       I    between atoms: C_22  and  N_20 
ROOT
ATOM      1  C   LIG d   1      -7.522  74.723 117.072  0.00  0.00     0.161 C 
ATOM      2  C   LIG d   1      -8.887  74.595 117.378  0.00  0.00     0.016 C 
ATOM      3  C   LIG d   1      -9.510  73.355 117.651  0.00  0.00     0.038 C 
ATOM      4  C   LIG d   1      -8.773  72.169 117.787  0.00  0.00     0.028 C 
ATOM      5  C   LIG d   1      -7.473  72.170 116.990  0.00  0.00    -0.047 C 
ATOM      6  C   LIG d   1      -6.681  73.454 117.324  0.00  0.00     0.091 C 
ENDROOT
BRANCH   1   7
ATOM      7  O   LIG d   1      -6.964  75.844 117.786  0.00  0.00    -0.368 OA
BRANCH   7   8
ATOM      8  C   LIG d   1      -7.537  77.140 117.486  0.00  0.00     0.119 C 
BRANCH   8   9
ATOM      9  C   LIG d   1      -6.383  78.071 117.067  0.00  0.00     0.028 C 
ATOM     10  C   LIG d   1      -5.490  78.469 118.255  0.00  0.00     0.006 C 
ENDBRANCH   8   9
BRANCH   8  11
ATOM     11  C   LIG d   1      -8.145  77.784 118.736  0.00  0.00     0.028 C 
ATOM     12  C   LIG d   1      -9.366  78.662 118.420  0.00  0.00     0.006 C 
ENDBRANCH   8  11
ENDBRANCH   7   8
ENDBRANCH   1   7
BRANCH   6  13
ATOM     13  N   LIG d   1      -5.434  73.575 116.524  0.00  0.00    -0.311 N 
ATOM     14  C   LIG d   1      -4.269  73.966 117.038  0.00  0.00     0.210 C 
ATOM     15  C   LIG d   1      -3.113  74.042 116.035  0.00  0.00     0.109 C 
ATOM     16  O   LIG d   1      -4.075  74.227 118.234  0.00  0.00    -0.276 OA
ATOM     17  H   LIG d   1      -5.494  73.353 115.550  0.00  0.00     0.149 HD
ENDBRANCH   6  13
BRANCH   5  18
ATOM     18  N   LIG d   1      -6.741  70.935 117.330  0.00  0.00     0.381 N 
ATOM     19  H   LIG d   1      -7.273  70.395 117.984  0.00  0.00    -0.090 HD
ATOM     20  H   LIG d   1      -5.868  71.182 117.762  0.00  0.00    -0.090 HD
ATOM     21  H   LIG d   1      -6.574  70.400 116.507  0.00  0.00    -0.090 HD
ENDBRANCH   5  18
BRANCH   3  22
ATOM     22  C   LIG d   1     -10.891  73.288 117.753  0.00  0.00     0.382 C 
ATOM     23  O   LIG d   1     -11.427  72.369 118.419  0.00  0.00    -0.241 OA
ATOM     24  O   LIG d   1     -11.610  74.109 117.152  0.00  0.00    -0.241 OA
ENDBRANCH   3  22
TORSDOF 7
ENDMDL
MODEL 7
REMARK VINA RESULT:      -4.6     17.155     19.208
REMARK  7 active torsions:
REMARK  status: ('A' for Active; 'I' for Inactive)
REMARK    1  A    between atoms: C_2  and  C_3 
REMARK    2  A    between atoms: C_3  and  O_6 
REMARK    3  A    between atoms: C_3  and  C_4 
REMARK    4  A    between atoms: C_7  and  O_6 
REMARK    5  A    between atoms: C_9  and  C_10 
REMARK    6  A    between atoms: N_15  and  C_14 
REMARK    7  A    between atoms: N_20  and  C_19 
REMARK       I    between atoms: C_22  and  N_20 
ROOT
ATOM      1  C   LIG d   1     -22.932  83.411 115.870  0.00  0.00     0.161 C 
ATOM      2  C   LIG d   1     -22.363  84.662 115.578  0.00  0.00     0.016 C 
ATOM      3  C   LIG d   1     -22.828  85.505 114.542  0.00  0.00     0.038 C 
ATOM      4  C   LIG d   1     -23.997  85.218 113.821  0.00  0.00     0.028 C 
ATOM      5  C   LIG d   1     -24.309  83.728 113.741  0.00  0.00    -0.047 C 
ATOM      6  C   LIG d   1     -24.277  83.132 115.167  0.00  0.00     0.091 C 
ENDROOT
BRANCH   1   7
ATOM      7  O   LIG d   1     -23.071  83.259 117.297  0.00  0.00    -0.368 OA
BRANCH   7   8
ATOM      8  C   LIG d   1     -23.404  84.460 118.036  0.00  0.00     0.119 C 
BRANCH   8   9
ATOM      9  C   LIG d   1     -22.489  84.510 119.274  0.00  0.00     0.028 C 
ATOM     10  C   LIG d   1     -21.777  83.171 119.533  0.00  0.00     0.006 C 
ENDBRANCH   8   9
BRANCH   8  11
ATOM     11  C   LIG d   1     -24.831  84.396 118.589  0.00  0.00     0.028 C 
ATOM     12  C   LIG d   1     -25.834  85.198 117.744  0.00  0.00     0.006 C 
ENDBRANCH   8  11
ENDBRANCH   7   8
ENDBRANCH   1   7
BRANCH   6  13
ATOM     13  N   LIG d   1     -24.489  81.661 115.172  0.00  0.00    -0.311 N 
ATOM     14  C   LIG d   1     -25.384  81.052 115.948  0.00  0.00     0.210 C 
ATOM     15  C   LIG d   1     -25.427  79.527 115.811  0.00  0.00     0.109 C 
ATOM     16  O   LIG d   1     -26.168  81.632 116.714  0.00  0.00    -0.276 OA
ATOM     17  H   LIG d   1     -23.917  81.116 114.557  0.00  0.00     0.149 HD
ENDBRANCH   6  13
BRANCH   5  18
ATOM     18  N   LIG d   1     -25.622  83.582 113.084  0.00  0.00     0.381 N 
ATOM     19  H   LIG d   1     -25.684  82.684 112.648  0.00  0.00    -0.090 HD
ATOM     20  H   LIG d   1     -25.708  84.285 112.370  0.00  0.00    -0.090 HD
ATOM     21  H   LIG d   1     -26.352  83.687 113.753  0.00  0.00    -0.090 HD
ENDBRANCH   5  18
BRANCH   3  22
ATOM     22  C   LIG d   1     -22.097  86.630 114.191  0.00  0.00     0.382 C 
ATOM     23  O   LIG d   1     -21.177  86.541 113.343  0.00  0.00    -0.241 OA
ATOM     24  O   LIG d   1     -22.317  87.724 114.745  0.00  0.00    -0.241 OA
ENDBRANCH   3  22
TORSDOF 7
ENDMDL
MODEL 8
REMARK VINA RESULT:      -4.6     17.986     19.987
REMARK  7 active torsions:
REMARK  status: ('A' for Active; 'I' for Inactive)
REMARK    1  A    between atoms: C_2  and  C_3 
REMARK    2  A    between atoms: C_3  and  O_6 
REMARK    3  A    between atoms: C_3  and  C_4 
REMARK    4  A    between atoms: C_7  and  O_6 
REMARK    5  A    between atoms: C_9  and  C_10 
REMARK    6  A    between atoms: N_15  and  C_14 
REMARK    7  A    between atoms: N_20  and  C_19 
REMARK       I    between atoms: C_22  and  N_20 
ROOT
ATOM      1  C   LIG d   1     -23.936  83.445 114.036  0.00  0.00     0.161 C 
ATOM      2  C   LIG d   1     -22.922  84.409 114.163  0.00  0.00     0.016 C 
ATOM      3  C   LIG d   1     -23.168  85.801 114.174  0.00  0.00     0.038 C 
ATOM      4  C   LIG d   1     -24.470  86.323 114.208  0.00  0.00     0.028 C 
ATOM      5  C   LIG d   1     -25.508  85.406 113.572  0.00  0.00    -0.047 C 
ATOM      6  C   LIG d   1     -25.371  83.993 114.184  0.00  0.00     0.091 C 
ENDROOT
BRANCH   1   7
ATOM      7  O   LIG d   1     -23.711  82.371 114.970  0.00  0.00    -0.368 OA
BRANCH   7   8
ATOM      8  C   LIG d   1     -24.326  82.520 116.273  0.00  0.00     0.119 C 
BRANCH   8   9
ATOM      9  C   LIG d   1     -23.197  82.767 117.293  0.00  0.00     0.028 C 
ATOM     10  C   LIG d   1     -23.193  84.209 117.827  0.00  0.00     0.006 C 
ENDBRANCH   8   9
BRANCH   8  11
ATOM     11  C   LIG d   1     -25.002  81.221 116.722  0.00  0.00     0.028 C 
ATOM     12  C   LIG d   1     -25.125  80.191 115.588  0.00  0.00     0.006 C 
ENDBRANCH   8  11
ENDBRANCH   7   8
ENDBRANCH   1   7
BRANCH   6  13
ATOM     13  N   LIG d   1     -26.295  83.011 113.557  0.00  0.00    -0.311 N 
ATOM     14  C   LIG d   1     -27.473  82.675 114.080  0.00  0.00     0.210 C 
ATOM     15  C   LIG d   1     -28.259  81.630 113.283  0.00  0.00     0.109 C 
ATOM     16  O   LIG d   1     -27.955  83.167 115.111  0.00  0.00    -0.276 OA
ATOM     17  H   LIG d   1     -25.996  82.587 112.701  0.00  0.00     0.149 HD
ENDBRANCH   6  13
BRANCH   5  18
ATOM     18  N   LIG d   1     -26.835  86.008 113.800  0.00  0.00     0.381 N 
ATOM     19  H   LIG d   1     -27.103  85.886 114.756  0.00  0.00    -0.090 HD
ATOM     20  H   LIG d   1     -27.509  85.539 113.221  0.00  0.00    -0.090 HD
ATOM     21  H   LIG d   1     -26.812  86.979 113.576  0.00  0.00    -0.090 HD
ENDBRANCH   5  18
BRANCH   3  22
ATOM     22  C   LIG d   1     -22.104  86.687 114.109  0.00  0.00     0.382 C 
ATOM     23  O   LIG d   1     -22.116  87.733 114.802  0.00  0.00    -0.241 OA
ATOM     24  O   LIG d   1     -21.153  86.477 113.333  0.00  0.00    -0.241 OA
ENDBRANCH   3  22
TORSDOF 7
ENDMDL
MODEL 9
REMARK VINA RESULT:      -4.5      9.821     13.113
REMARK  7 active torsions:
REMARK  status: ('A' for Active; 'I' for Inactive)
REMARK    1  A    between atoms: C_2  and  C_3 
REMARK    2  A    between atoms: C_3  and  O_6 
REMARK    3  A    between atoms: C_3  and  C_4 
REMARK    4  A    between atoms: C_7  and  O_6 
REMARK    5  A    between atoms: C_9  and  C_10 
REMARK    6  A    between atoms: N_15  and  C_14 
REMARK    7  A    between atoms: N_20  and  C_19 
REMARK       I    between atoms: C_22  and  N_20 
ROOT
ATOM      1  C   LIG d   1     -17.027  64.913 114.652  0.00  0.00     0.161 C 
ATOM      2  C   LIG d   1     -17.324  63.833 115.500  0.00  0.00     0.016 C 
ATOM      3  C   LIG d   1     -16.650  63.593 116.719  0.00  0.00     0.038 C 
ATOM      4  C   LIG d   1     -15.728  64.508 117.250  0.00  0.00     0.028 C 
ATOM      5  C   LIG d   1     -15.032  65.351 116.187  0.00  0.00    -0.047 C 
ATOM      6  C   LIG d   1     -16.102  65.983 115.267  0.00  0.00     0.091 C 
ENDROOT
BRANCH   1   7
ATOM      7  O   LIG d   1     -18.249  65.516 114.183  0.00  0.00    -0.368 OA
BRANCH   7   8
ATOM      8  C   LIG d   1     -19.466  64.772 114.437  0.00  0.00     0.119 C 
BRANCH   8   9
ATOM      9  C   LIG d   1     -20.129  64.490 113.075  0.00  0.00     0.028 C 
ATOM     10  C   LIG d   1     -21.331  65.411 112.805  0.00  0.00     0.006 C 
ENDBRANCH   8   9
BRANCH   8  11
ATOM     11  C   LIG d   1     -20.481  65.613 115.216  0.00  0.00     0.028 C 
ATOM     12  C   LIG d   1     -19.983  66.002 116.617  0.00  0.00     0.006 C 
ENDBRANCH   8  11
ENDBRANCH   7   8
ENDBRANCH   1   7
BRANCH   6  13
ATOM     13  N   LIG d   1     -15.503  66.757 114.149  0.00  0.00    -0.311 N 
ATOM     14  C   LIG d   1     -15.584  68.082 114.047  0.00  0.00     0.210 C 
ATOM     15  C   LIG d   1     -14.914  68.678 112.805  0.00  0.00     0.109 C 
ATOM     16  O   LIG d   1     -16.120  68.824 114.884  0.00  0.00    -0.276 OA
ATOM     17  H   LIG d   1     -15.022  66.237 113.441  0.00  0.00     0.149 HD
ENDBRANCH   6  13
BRANCH   5  18
ATOM     18  N   LIG d   1     -14.205  66.354 116.885  0.00  0.00     0.381 N 
ATOM     19  H   LIG d   1     -14.744  66.800 117.600  0.00  0.00    -0.090 HD
ATOM     20  H   LIG d   1     -13.916  67.054 116.224  0.00  0.00    -0.090 HD
ATOM     21  H   LIG d   1     -13.405  65.916 117.287  0.00  0.00    -0.090 HD
ENDBRANCH   5  18
BRANCH   3  22
ATOM     22  C   LIG d   1     -16.866  62.406 117.402  0.00  0.00     0.382 C 
ATOM     23  O   LIG d   1     -16.927  61.322 116.772  0.00  0.00    -0.241 OA
ATOM     24  O   LIG d   1     -17.045  62.409 118.635  0.00  0.00    -0.241 OA
ENDBRANCH   3  22
TORSDOF 7
ENDMDL
