MODEL 1
REMARK VINA RESULT:      -5.0      0.000      0.000
REMARK  7 active torsions:
REMARK  status: ('A' for Active; 'I' for Inactive)
REMARK    1  A    between atoms: C_2  and  C_3 
REMARK    2  A    between atoms: C_3  and  O_6 
REMARK    3  A    between atoms: C_3  and  C_4 
REMARK    4  A    between atoms: C_7  and  O_6 
REMARK    5  A    between atoms: C_9  and  C_10 
REMARK    6  A    between atoms: N_15  and  C_14 
REMARK    7  A    between atoms: N_20  and  C_19 
REMARK       I    between atoms: C_22  and  N_20 
ROOT
ATOM      1  C   LIG d   1      -6.051  92.612 118.940  0.00  0.00     0.161 C 
ATOM      2  C   LIG d   1      -7.297  93.255 118.856  0.00  0.00     0.016 C 
ATOM      3  C   LIG d   1      -7.446  94.661 118.819  0.00  0.00     0.038 C 
ATOM      4  C   LIG d   1      -6.343  95.521 118.709  0.00  0.00     0.028 C 
ATOM      5  C   LIG d   1      -5.062  94.940 119.298  0.00  0.00    -0.047 C 
ATOM      6  C   LIG d   1      -4.833  93.530 118.708  0.00  0.00     0.091 C 
ENDROOT
BRANCH   1   7
ATOM      7  O   LIG d   1      -6.017  91.495 118.030  0.00  0.00    -0.368 OA
BRANCH   7   8
ATOM      8  C   LIG d   1      -5.431  91.750 116.729  0.00  0.00     0.119 C 
BRANCH   8   9
ATOM      9  C   LIG d   1      -6.577  92.123 115.770  0.00  0.00     0.028 C 
ATOM     10  C   LIG d   1      -6.408  91.491 114.378  0.00  0.00     0.006 C 
ENDBRANCH   8   9
BRANCH   8  11
ATOM     11  C   LIG d   1      -4.807  90.481 116.141  0.00  0.00     0.028 C 
ATOM     12  C   LIG d   1      -3.825  89.797 117.105  0.00  0.00     0.006 C 
ENDBRANCH   8  11
ENDBRANCH   7   8
ENDBRANCH   1   7
BRANCH   6  13
ATOM     13  N   LIG d   1      -3.645  92.856 119.295  0.00  0.00    -0.311 N 
ATOM     14  C   LIG d   1      -2.444  92.853 118.718  0.00  0.00     0.210 C 
ATOM     15  C   LIG d   1      -1.362  92.083 119.481  0.00  0.00     0.109 C 
ATOM     16  O   LIG d   1      -2.166  93.441 117.663  0.00  0.00    -0.276 OA
ATOM     17  H   LIG d   1      -3.774  92.381 120.167  0.00  0.00     0.149 HD
ENDBRANCH   6  13
BRANCH   5  18
ATOM     18  N   LIG d   1      -3.966  95.879 118.992  0.00  0.00     0.381 N 
ATOM     19  H   LIG d   1      -3.141  95.610 119.489  0.00  0.00    -0.090 HD
ATOM     20  H   LIG d   1      -4.231  96.799 119.298  0.00  0.00    -0.090 HD
ATOM     21  H   LIG d   1      -3.785  95.886 118.013  0.00  0.00    -0.090 HD
ENDBRANCH   5  18
BRANCH   3  22
ATOM     22  C   LIG d   1      -8.709  95.221 118.932  0.00  0.00     0.382 C 
ATOM     23  O   LIG d   1      -9.709  94.484 119.108  0.00  0.00    -0.241 OA
ATOM     24  O   LIG d   1      -8.868  96.451 118.815  0.00  0.00    -0.241 OA
ENDBRANCH   3  22
TORSDOF 7
ENDMDL
MODEL 2
REMARK VINA RESULT:      -5.0      3.256      5.349
REMARK  7 active torsions:
REMARK  status: ('A' for Active; 'I' for Inactive)
REMARK    1  A    between atoms: C_2  and  C_3 
REMARK    2  A    between atoms: C_3  and  O_6 
REMARK    3  A    between atoms: C_3  and  C_4 
REMARK    4  A    between atoms: C_7  and  O_6 
REMARK    5  A    between atoms: C_9  and  C_10 
REMARK    6  A    between atoms: N_15  and  C_14 
REMARK    7  A    between atoms: N_20  and  C_19 
REMARK       I    between atoms: C_22  and  N_20 
ROOT
ATOM      1  C   LIG d   1      -2.331  89.857 117.583  0.00  0.00     0.161 C 
ATOM      2  C   LIG d   1      -3.617  89.630 117.064  0.00  0.00     0.016 C 
ATOM      3  C   LIG d   1      -4.595  90.643 116.939  0.00  0.00     0.038 C 
ATOM      4  C   LIG d   1      -4.302  91.992 117.186  0.00  0.00     0.028 C 
ATOM      5  C   LIG d   1      -3.172  92.192 118.191  0.00  0.00    -0.047 C 
ATOM      6  C   LIG d   1      -1.956  91.344 117.754  0.00  0.00     0.091 C 
ENDROOT
BRANCH   1   7
ATOM      7  O   LIG d   1      -1.350  89.183 116.770  0.00  0.00    -0.368 OA
BRANCH   7   8
ATOM      8  C   LIG d   1      -1.012  87.832 117.169  0.00  0.00     0.119 C 
BRANCH   8   9
ATOM      9  C   LIG d   1      -0.970  87.801 118.709  0.00  0.00     0.028 C 
ATOM     10  C   LIG d   1       0.462  87.898 119.260  0.00  0.00     0.006 C 
ENDBRANCH   8   9
BRANCH   8  11
ATOM     11  C   LIG d   1       0.403  87.455 116.718  0.00  0.00     0.028 C 
ATOM     12  C   LIG d   1       0.423  86.243 115.774  0.00  0.00     0.006 C 
ENDBRANCH   8  11
ENDBRANCH   7   8
ENDBRANCH   1   7
BRANCH   6  13
ATOM     13  N   LIG d   1      -0.836  91.416 118.728  0.00  0.00    -0.311 N 
ATOM     14  C   LIG d   1       0.426  91.657 118.377  0.00  0.00     0.210 C 
ATOM     15  C   LIG d   1       1.429  91.669 119.535  0.00  0.00     0.109 C 
ATOM     16  O   LIG d   1       0.806  91.895 117.220  0.00  0.00    -0.276 OA
ATOM     17  H   LIG d   1      -1.059  91.267 119.692  0.00  0.00     0.149 HD
ENDBRANCH   6  13
BRANCH   5  18
ATOM     18  N   LIG d   1      -2.879  93.637 118.249  0.00  0.00     0.381 N 
ATOM     19  H   LIG d   1      -2.111  93.801 118.870  0.00  0.00    -0.090 HD
ATOM     20  H   LIG d   1      -3.684  94.118 118.609  0.00  0.00    -0.090 HD
ATOM     21  H   LIG d   1      -2.659  93.977 117.339  0.00  0.00    -0.090 HD
ENDBRANCH   5  18
BRANCH   3  22
ATOM     22  C   LIG d   1      -5.896  90.303 116.600  0.00  0.00     0.382 C 
ATOM     23  O   LIG d   1      -6.142  89.177 116.105  0.00  0.00    -0.241 OA
ATOM     24  O   LIG d   1      -6.821  91.125 116.743  0.00  0.00    -0.241 OA
ENDBRANCH   3  22
TORSDOF 7
ENDMDL
MODEL 3
REMARK VINA RESULT:      -4.8      2.779      4.836
REMARK  7 active torsions:
REMARK  status: ('A' for Active; 'I' for Inactive)
REMARK    1  A    between atoms: C_2  and  C_3 
REMARK    2  A    between atoms: C_3  and  O_6 
REMARK    3  A    between atoms: C_3  and  C_4 
REMARK    4  A    between atoms: C_7  and  O_6 
REMARK    5  A    between atoms: C_9  and  C_10 
REMARK    6  A    between atoms: N_15  and  C_14 
REMARK    7  A    between atoms: N_20  and  C_19 
REMARK       I    between atoms: C_22  and  N_20 
ROOT
ATOM      1  C   LIG d   1      -3.033  92.556 119.436  0.00  0.00     0.161 C 
ATOM      2  C   LIG d   1      -2.825  93.932 119.248  0.00  0.00     0.016 C 
ATOM      3  C   LIG d   1      -1.876  94.459 118.341  0.00  0.00     0.038 C 
ATOM      4  C   LIG d   1      -1.174  93.640 117.444  0.00  0.00     0.028 C 
ATOM      5  C   LIG d   1      -0.984  92.213 117.949  0.00  0.00    -0.047 C 
ATOM      6  C   LIG d   1      -2.355  91.650 118.387  0.00  0.00     0.091 C 
ENDROOT
BRANCH   1   7
ATOM      7  O   LIG d   1      -4.447  92.280 119.498  0.00  0.00    -0.368 OA
BRANCH   7   8
ATOM      8  C   LIG d   1      -5.255  92.859 118.444  0.00  0.00     0.119 C 
BRANCH   8   9
ATOM      9  C   LIG d   1      -6.401  93.640 119.116  0.00  0.00     0.028 C 
ATOM     10  C   LIG d   1      -7.048  94.664 118.168  0.00  0.00     0.006 C 
ENDBRANCH   8   9
BRANCH   8  11
ATOM     11  C   LIG d   1      -5.941  91.774 117.608  0.00  0.00     0.028 C 
ATOM     12  C   LIG d   1      -5.541  91.824 116.124  0.00  0.00     0.006 C 
ENDBRANCH   8  11
ENDBRANCH   7   8
ENDBRANCH   1   7
BRANCH   6  13
ATOM     13  N   LIG d   1      -2.247  90.288 118.972  0.00  0.00    -0.311 N 
ATOM     14  C   LIG d   1      -2.899  89.230 118.493  0.00  0.00     0.210 C 
ATOM     15  C   LIG d   1      -2.662  87.924 119.257  0.00  0.00     0.109 C 
ATOM     16  O   LIG d   1      -3.625  89.243 117.488  0.00  0.00    -0.276 OA
ATOM     17  H   LIG d   1      -1.654  90.181 119.772  0.00  0.00     0.149 HD
ENDBRANCH   6  13
BRANCH   5  18
ATOM     18  N   LIG d   1      -0.360  91.436 116.861  0.00  0.00     0.381 N 
ATOM     19  H   LIG d   1      -0.900  90.613 116.681  0.00  0.00    -0.090 HD
ATOM     20  H   LIG d   1       0.559  91.152 117.150  0.00  0.00    -0.090 HD
ATOM     21  H   LIG d   1      -0.301  91.991 116.036  0.00  0.00    -0.090 HD
ENDBRANCH   5  18
BRANCH   3  22
ATOM     22  C   LIG d   1      -1.594  95.817 118.352  0.00  0.00     0.382 C 
ATOM     23  O   LIG d   1      -2.529  96.651 118.285  0.00  0.00    -0.241 OA
ATOM     24  O   LIG d   1      -0.415  96.217 118.385  0.00  0.00    -0.241 OA
ENDBRANCH   3  22
TORSDOF 7
ENDMDL
MODEL 4
REMARK VINA RESULT:      -4.4     11.656     13.723
REMARK  7 active torsions:
REMARK  status: ('A' for Active; 'I' for Inactive)
REMARK    1  A    between atoms: C_2  and  C_3 
REMARK    2  A    between atoms: C_3  and  O_6 
REMARK    3  A    between atoms: C_3  and  C_4 
REMARK    4  A    between atoms: C_7  and  O_6 
REMARK    5  A    between atoms: C_9  and  C_10 
REMARK    6  A    between atoms: N_15  and  C_14 
REMARK    7  A    between atoms: N_20  and  C_19 
REMARK       I    between atoms: C_22  and  N_20 
ROOT
ATOM      1  C   LIG d   1       6.498  87.600 116.411  0.00  0.00     0.161 C 
ATOM      2  C   LIG d   1       5.628  88.698 116.521  0.00  0.00     0.016 C 
ATOM      3  C   LIG d   1       6.010  89.939 117.080  0.00  0.00     0.038 C 
ATOM      4  C   LIG d   1       7.339  90.217 117.431  0.00  0.00     0.028 C 
ATOM      5  C   LIG d   1       8.139  88.974 117.805  0.00  0.00    -0.047 C 
ATOM      6  C   LIG d   1       7.982  87.920 116.686  0.00  0.00     0.091 C 
ENDROOT
BRANCH   1   7
ATOM      7  O   LIG d   1       6.349  86.988 115.114  0.00  0.00    -0.368 OA
BRANCH   7   8
ATOM      8  C   LIG d   1       5.069  87.178 114.463  0.00  0.00     0.119 C 
BRANCH   8   9
ATOM      9  C   LIG d   1       4.443  85.785 114.257  0.00  0.00     0.028 C 
ATOM     10  C   LIG d   1       5.417  84.797 113.593  0.00  0.00     0.006 C 
ENDBRANCH   8   9
BRANCH   8  11
ATOM     11  C   LIG d   1       5.240  87.758 113.056  0.00  0.00     0.028 C 
ATOM     12  C   LIG d   1       5.414  89.285 113.058  0.00  0.00     0.006 C 
ENDBRANCH   8  11
ENDBRANCH   7   8
ENDBRANCH   1   7
BRANCH   6  13
ATOM     13  N   LIG d   1       8.665  86.641 117.011  0.00  0.00    -0.311 N 
ATOM     14  C   LIG d   1       9.912  86.360 116.636  0.00  0.00     0.210 C 
ATOM     15  C   LIG d   1      10.417  84.977 117.059  0.00  0.00     0.109 C 
ATOM     16  O   LIG d   1      10.658  87.137 116.022  0.00  0.00    -0.276 OA
ATOM     17  H   LIG d   1       8.143  85.966 117.534  0.00  0.00     0.149 HD
ENDBRANCH   6  13
BRANCH   5  18
ATOM     18  N   LIG d   1       9.539  89.391 118.014  0.00  0.00     0.381 N 
ATOM     19  H   LIG d   1      10.157  88.654 117.739  0.00  0.00    -0.090 HD
ATOM     20  H   LIG d   1       9.681  89.575 118.991  0.00  0.00    -0.090 HD
ATOM     21  H   LIG d   1       9.733  90.212 117.483  0.00  0.00    -0.090 HD
ENDBRANCH   5  18
BRANCH   3  22
ATOM     22  C   LIG d   1       5.047  90.905 117.331  0.00  0.00     0.382 C 
ATOM     23  O   LIG d   1       4.934  91.395 118.480  0.00  0.00    -0.241 OA
ATOM     24  O   LIG d   1       4.260  91.261 116.433  0.00  0.00    -0.241 OA
ENDBRANCH   3  22
TORSDOF 7
ENDMDL
MODEL 5
REMARK VINA RESULT:      -4.4     12.158     14.113
REMARK  7 active torsions:
REMARK  status: ('A' for Active; 'I' for Inactive)
REMARK    1  A    between atoms: C_2  and  C_3 
REMARK    2  A    between atoms: C_3  and  O_6 
REMARK    3  A    between atoms: C_3  and  C_4 
REMARK    4  A    between atoms: C_7  and  O_6 
REMARK    5  A    between atoms: C_9  and  C_10 
REMARK    6  A    between atoms: N_15  and  C_14 
REMARK    7  A    between atoms: N_20  and  C_19 
REMARK       I    between atoms: C_22  and  N_20 
ROOT
ATOM      1  C   LIG d   1       5.464  85.468 114.827  0.00  0.00     0.161 C 
ATOM      2  C   LIG d   1       4.743  86.371 114.029  0.00  0.00     0.016 C 
ATOM      3  C   LIG d   1       4.972  87.767 114.032  0.00  0.00     0.038 C 
ATOM      4  C   LIG d   1       6.047  88.340 114.727  0.00  0.00     0.028 C 
ATOM      5  C   LIG d   1       6.486  87.528 115.941  0.00  0.00    -0.047 C 
ATOM      6  C   LIG d   1       6.715  86.062 115.508  0.00  0.00     0.091 C 
ENDROOT
BRANCH   1   7
ATOM      7  O   LIG d   1       5.820  84.307 114.051  0.00  0.00    -0.368 OA
BRANCH   7   8
ATOM      8  C   LIG d   1       5.068  83.100 114.329  0.00  0.00     0.119 C 
BRANCH   8   9
ATOM      9  C   LIG d   1       4.047  82.918 113.189  0.00  0.00     0.028 C 
ATOM     10  C   LIG d   1       2.895  81.975 113.578  0.00  0.00     0.006 C 
ENDBRANCH   8   9
BRANCH   8  11
ATOM     11  C   LIG d   1       4.231  83.245 115.604  0.00  0.00     0.028 C 
ATOM     12  C   LIG d   1       4.756  82.383 116.763  0.00  0.00     0.006 C 
ENDBRANCH   8  11
ENDBRANCH   7   8
ENDBRANCH   1   7
BRANCH   6  13
ATOM     13  N   LIG d   1       7.065  85.181 116.653  0.00  0.00    -0.311 N 
ATOM     14  C   LIG d   1       8.177  84.450 116.702  0.00  0.00     0.210 C 
ATOM     15  C   LIG d   1       8.334  83.596 117.964  0.00  0.00     0.109 C 
ATOM     16  O   LIG d   1       9.063  84.452 115.835  0.00  0.00    -0.276 OA
ATOM     17  H   LIG d   1       6.416  85.143 117.415  0.00  0.00     0.149 HD
ENDBRANCH   6  13
BRANCH   5  18
ATOM     18  N   LIG d   1       7.698  88.165 116.489  0.00  0.00     0.381 N 
ATOM     19  H   LIG d   1       7.815  87.902 117.447  0.00  0.00    -0.090 HD
ATOM     20  H   LIG d   1       7.588  89.163 116.447  0.00  0.00    -0.090 HD
ATOM     21  H   LIG d   1       8.497  87.889 115.961  0.00  0.00    -0.090 HD
ENDBRANCH   5  18
BRANCH   3  22
ATOM     22  C   LIG d   1       4.095  88.609 113.365  0.00  0.00     0.382 C 
ATOM     23  O   LIG d   1       2.880  88.307 113.279  0.00  0.00    -0.241 OA
ATOM     24  O   LIG d   1       4.511  89.643 112.811  0.00  0.00    -0.241 OA
ENDBRANCH   3  22
TORSDOF 7
ENDMDL
MODEL 6
REMARK VINA RESULT:      -4.3      5.670      8.181
REMARK  7 active torsions:
REMARK  status: ('A' for Active; 'I' for Inactive)
REMARK    1  A    between atoms: C_2  and  C_3 
REMARK    2  A    between atoms: C_3  and  O_6 
REMARK    3  A    between atoms: C_3  and  C_4 
REMARK    4  A    between atoms: C_7  and  O_6 
REMARK    5  A    between atoms: C_9  and  C_10 
REMARK    6  A    between atoms: N_15  and  C_14 
REMARK    7  A    between atoms: N_20  and  C_19 
REMARK       I    between atoms: C_22  and  N_20 
ROOT
ATOM      1  C   LIG d   1       0.667  88.133 116.982  0.00  0.00     0.161 C 
ATOM      2  C   LIG d   1      -0.737  88.133 117.026  0.00  0.00     0.016 C 
ATOM      3  C   LIG d   1      -1.502  89.245 117.446  0.00  0.00     0.038 C 
ATOM      4  C   LIG d   1      -0.916  90.492 117.709  0.00  0.00     0.028 C 
ATOM      5  C   LIG d   1       0.536  90.395 118.164  0.00  0.00    -0.047 C 
ATOM      6  C   LIG d   1       1.320  89.521 117.159  0.00  0.00     0.091 C 
ENDROOT
BRANCH   1   7
ATOM      7  O   LIG d   1       1.118  87.520 115.758  0.00  0.00    -0.368 OA
BRANCH   7   8
ATOM      8  C   LIG d   1       1.856  86.281 115.901  0.00  0.00     0.119 C 
BRANCH   8   9
ATOM      9  C   LIG d   1       3.260  86.508 115.309  0.00  0.00     0.028 C 
ATOM     10  C   LIG d   1       3.303  87.702 114.339  0.00  0.00     0.006 C 
ENDBRANCH   8   9
BRANCH   8  11
ATOM     11  C   LIG d   1       1.236  85.164 115.056  0.00  0.00     0.028 C 
ATOM     12  C   LIG d   1      -0.061  85.597 114.355  0.00  0.00     0.006 C 
ENDBRANCH   8  11
ENDBRANCH   7   8
ENDBRANCH   1   7
BRANCH   6  13
ATOM     13  N   LIG d   1       2.730  89.305 117.575  0.00  0.00    -0.311 N 
ATOM     14  C   LIG d   1       3.734  90.095 117.200  0.00  0.00     0.210 C 
ATOM     15  C   LIG d   1       5.113  89.682 117.725  0.00  0.00     0.109 C 
ATOM     16  O   LIG d   1       3.609  91.117 116.508  0.00  0.00    -0.276 OA
ATOM     17  H   LIG d   1       2.917  88.516 118.163  0.00  0.00     0.149 HD
ENDBRANCH   6  13
BRANCH   5  18
ATOM     18  N   LIG d   1       1.063  91.769 118.270  0.00  0.00     0.381 N 
ATOM     19  H   LIG d   1       2.055  91.742 118.395  0.00  0.00    -0.090 HD
ATOM     20  H   LIG d   1       0.655  92.213 119.074  0.00  0.00    -0.090 HD
ATOM     21  H   LIG d   1       0.838  92.284 117.447  0.00  0.00    -0.090 HD
ENDBRANCH   5  18
BRANCH   3  22
ATOM     22  C   LIG d   1      -2.867  89.104 117.645  0.00  0.00     0.382 C 
ATOM     23  O   LIG d   1      -3.294  88.506 118.662  0.00  0.00    -0.241 OA
ATOM     24  O   LIG d   1      -3.677  89.527 116.798  0.00  0.00    -0.241 OA
ENDBRANCH   3  22
TORSDOF 7
ENDMDL
MODEL 7
REMARK VINA RESULT:      -4.3      8.144     10.807
REMARK  7 active torsions:
REMARK  status: ('A' for Active; 'I' for Inactive)
REMARK    1  A    between atoms: C_2  and  C_3 
REMARK    2  A    between atoms: C_3  and  O_6 
REMARK    3  A    between atoms: C_3  and  C_4 
REMARK    4  A    between atoms: C_7  and  O_6 
REMARK    5  A    between atoms: C_9  and  C_10 
REMARK    6  A    between atoms: N_15  and  C_14 
REMARK    7  A    between atoms: N_20  and  C_19 
REMARK       I    between atoms: C_22  and  N_20 
ROOT
ATOM      1  C   LIG d   1       2.766  87.476 116.751  0.00  0.00     0.161 C 
ATOM      2  C   LIG d   1       3.502  88.637 117.040  0.00  0.00     0.016 C 
ATOM      3  C   LIG d   1       4.157  89.410 116.054  0.00  0.00     0.038 C 
ATOM      4  C   LIG d   1       3.993  89.156 114.684  0.00  0.00     0.028 C 
ATOM      5  C   LIG d   1       3.673  87.698 114.372  0.00  0.00    -0.047 C 
ATOM      6  C   LIG d   1       2.484  87.246 115.251  0.00  0.00     0.091 C 
ENDROOT
BRANCH   1   7
ATOM      7  O   LIG d   1       1.534  87.479 117.498  0.00  0.00    -0.368 OA
BRANCH   7   8
ATOM      8  C   LIG d   1       0.424  88.187 116.892  0.00  0.00     0.119 C 
BRANCH   8   9
ATOM      9  C   LIG d   1       0.124  89.417 117.771  0.00  0.00     0.028 C 
ATOM     10  C   LIG d   1       0.494  90.739 117.077  0.00  0.00     0.006 C 
ENDBRANCH   8   9
BRANCH   8  11
ATOM     11  C   LIG d   1      -0.856  87.347 116.922  0.00  0.00     0.028 C 
ATOM     12  C   LIG d   1      -2.067  88.123 117.463  0.00  0.00     0.006 C 
ENDBRANCH   8  11
ENDBRANCH   7   8
ENDBRANCH   1   7
BRANCH   6  13
ATOM     13  N   LIG d   1       2.160  85.807 115.070  0.00  0.00    -0.311 N 
ATOM     14  C   LIG d   1       1.091  85.375 114.402  0.00  0.00     0.210 C 
ATOM     15  C   LIG d   1       0.933  83.852 114.351  0.00  0.00     0.109 C 
ATOM     16  O   LIG d   1       0.277  86.107 113.820  0.00  0.00    -0.276 OA
ATOM     17  H   LIG d   1       2.785  85.143 115.483  0.00  0.00     0.149 HD
ENDBRANCH   6  13
BRANCH   5  18
ATOM     18  N   LIG d   1       3.392  87.602 112.927  0.00  0.00     0.381 N 
ATOM     19  H   LIG d   1       2.762  86.845 112.754  0.00  0.00    -0.090 HD
ATOM     20  H   LIG d   1       4.251  87.416 112.441  0.00  0.00    -0.090 HD
ATOM     21  H   LIG d   1       2.995  88.455 112.600  0.00  0.00    -0.090 HD
ENDBRANCH   5  18
BRANCH   3  22
ATOM     22  C   LIG d   1       5.018  90.426 116.437  0.00  0.00     0.382 C 
ATOM     23  O   LIG d   1       4.567  91.569 116.691  0.00  0.00    -0.241 OA
ATOM     24  O   LIG d   1       6.247  90.227 116.489  0.00  0.00    -0.241 OA
ENDBRANCH   3  22
TORSDOF 7
ENDMDL
MODEL 8
REMARK VINA RESULT:      -4.2      2.867      4.916
REMARK  7 active torsions:
REMARK  status: ('A' for Active; 'I' for Inactive)
REMARK    1  A    between atoms: C_2  and  C_3 
REMARK    2  A    between atoms: C_3  and  O_6 
REMARK    3  A    between atoms: C_3  and  C_4 
REMARK    4  A    between atoms: C_7  and  O_6 
REMARK    5  A    between atoms: C_9  and  C_10 
REMARK    6  A    between atoms: N_15  and  C_14 
REMARK    7  A    between atoms: N_20  and  C_19 
REMARK       I    between atoms: C_22  and  N_20 
ROOT
ATOM      1  C   LIG d   1      -3.119  91.610 117.876  0.00  0.00     0.161 C 
ATOM      2  C   LIG d   1      -2.529  92.752 118.444  0.00  0.00     0.016 C 
ATOM      3  C   LIG d   1      -3.271  93.792 119.049  0.00  0.00     0.038 C 
ATOM      4  C   LIG d   1      -4.654  93.689 119.264  0.00  0.00     0.028 C 
ATOM      5  C   LIG d   1      -5.357  92.784 118.258  0.00  0.00    -0.047 C 
ATOM      6  C   LIG d   1      -4.617  91.428 118.200  0.00  0.00     0.091 C 
ENDROOT
BRANCH   1   7
ATOM      7  O   LIG d   1      -2.377  90.435 118.259  0.00  0.00    -0.368 OA
BRANCH   7   8
ATOM      8  C   LIG d   1      -1.869  89.621 117.174  0.00  0.00     0.119 C 
BRANCH   8   9
ATOM      9  C   LIG d   1      -2.321  88.171 117.432  0.00  0.00     0.028 C 
ATOM     10  C   LIG d   1      -2.494  87.868 118.930  0.00  0.00     0.006 C 
ENDBRANCH   8   9
BRANCH   8  11
ATOM     11  C   LIG d   1      -0.338  89.576 117.181  0.00  0.00     0.028 C 
ATOM     12  C   LIG d   1       0.273  90.293 118.395  0.00  0.00     0.006 C 
ENDBRANCH   8  11
ENDBRANCH   7   8
ENDBRANCH   1   7
BRANCH   6  13
ATOM     13  N   LIG d   1      -5.190  90.513 117.178  0.00  0.00    -0.311 N 
ATOM     14  C   LIG d   1      -5.591  90.918 115.974  0.00  0.00     0.210 C 
ATOM     15  C   LIG d   1      -6.169  89.816 115.081  0.00  0.00     0.109 C 
ATOM     16  O   LIG d   1      -5.493  92.079 115.549  0.00  0.00    -0.276 OA
ATOM     17  H   LIG d   1      -5.276  89.548 117.428  0.00  0.00     0.149 HD
ENDBRANCH   6  13
BRANCH   5  18
ATOM     18  N   LIG d   1      -6.764  92.657 118.680  0.00  0.00     0.381 N 
ATOM     19  H   LIG d   1      -7.256  93.505 118.478  0.00  0.00    -0.090 HD
ATOM     20  H   LIG d   1      -6.793  92.505 119.673  0.00  0.00    -0.090 HD
ATOM     21  H   LIG d   1      -7.195  91.894 118.206  0.00  0.00    -0.090 HD
ENDBRANCH   5  18
BRANCH   3  22
ATOM     22  C   LIG d   1      -2.634  94.970 119.411  0.00  0.00     0.382 C 
ATOM     23  O   LIG d   1      -3.300  96.024 119.554  0.00  0.00    -0.241 OA
ATOM     24  O   LIG d   1      -1.397  95.001 119.554  0.00  0.00    -0.241 OA
ENDBRANCH   3  22
TORSDOF 7
ENDMDL
MODEL 9
REMARK VINA RESULT:      -4.2      9.257     11.698
REMARK  7 active torsions:
REMARK  status: ('A' for Active; 'I' for Inactive)
REMARK    1  A    between atoms: C_2  and  C_3 
REMARK    2  A    between atoms: C_3  and  O_6 
REMARK    3  A    between atoms: C_3  and  C_4 
REMARK    4  A    between atoms: C_7  and  O_6 
REMARK    5  A    between atoms: C_9  and  C_10 
REMARK    6  A    between atoms: N_15  and  C_14 
REMARK    7  A    between atoms: N_20  and  C_19 
REMARK       I    between atoms: C_22  and  N_20 
ROOT
ATOM      1  C   LIG d   1       3.147  87.707 114.615  0.00  0.00     0.161 C 
ATOM      2  C   LIG d   1       3.446  88.952 115.194  0.00  0.00     0.016 C 
ATOM      3  C   LIG d   1       2.881  89.400 116.410  0.00  0.00     0.038 C 
ATOM      4  C   LIG d   1       2.089  88.565 117.213  0.00  0.00     0.028 C 
ATOM      5  C   LIG d   1       1.355  87.486 116.424  0.00  0.00    -0.047 C 
ATOM      6  C   LIG d   1       2.372  86.737 115.532  0.00  0.00     0.091 C 
ENDROOT
BRANCH   1   7
ATOM      7  O   LIG d   1       4.358  87.087 114.139  0.00  0.00    -0.368 OA
BRANCH   7   8
ATOM      8  C   LIG d   1       5.080  86.278 115.100  0.00  0.00     0.119 C 
BRANCH   8   9
ATOM      9  C   LIG d   1       6.290  87.102 115.581  0.00  0.00     0.028 C 
ATOM     10  C   LIG d   1       6.230  87.407 117.087  0.00  0.00     0.006 C 
ENDBRANCH   8   9
BRANCH   8  11
ATOM     11  C   LIG d   1       5.676  85.030 114.442  0.00  0.00     0.028 C 
ATOM     12  C   LIG d   1       5.153  84.802 113.014  0.00  0.00     0.006 C 
ENDBRANCH   8  11
ENDBRANCH   7   8
ENDBRANCH   1   7
BRANCH   6  13
ATOM     13  N   LIG d   1       1.723  85.720 114.664  0.00  0.00    -0.311 N 
ATOM     14  C   LIG d   1       1.863  84.408 114.842  0.00  0.00     0.210 C 
ATOM     15  C   LIG d   1       1.126  83.534 113.822  0.00  0.00     0.109 C 
ATOM     16  O   LIG d   1       2.503  83.884 115.766  0.00  0.00    -0.276 OA
ATOM     17  H   LIG d   1       1.161  86.058 113.907  0.00  0.00     0.149 HD
ENDBRANCH   6  13
BRANCH   5  18
ATOM     18  N   LIG d   1       0.680  86.605 117.396  0.00  0.00     0.381 N 
ATOM     19  H   LIG d   1       1.349  85.993 117.819  0.00  0.00    -0.090 HD
ATOM     20  H   LIG d   1       0.003  86.044 116.910  0.00  0.00    -0.090 HD
ATOM     21  H   LIG d   1       0.229  87.151 118.096  0.00  0.00    -0.090 HD
ENDBRANCH   5  18
BRANCH   3  22
ATOM     22  C   LIG d   1       3.075  90.712 116.816  0.00  0.00     0.382 C 
ATOM     23  O   LIG d   1       2.152  91.330 117.400  0.00  0.00    -0.241 OA
ATOM     24  O   LIG d   1       4.144  91.299 116.565  0.00  0.00    -0.241 OA
ENDBRANCH   3  22
TORSDOF 7
ENDMDL
