MODEL 1
REMARK VINA RESULT:      -5.1      0.000      0.000
REMARK  7 active torsions:
REMARK  status: ('A' for Active; 'I' for Inactive)
REMARK    1  A    between atoms: C_2  and  C_3 
REMARK    2  A    between atoms: C_3  and  O_6 
REMARK    3  A    between atoms: C_3  and  C_4 
REMARK    4  A    between atoms: C_7  and  O_6 
REMARK    5  A    between atoms: C_9  and  C_10 
REMARK    6  A    between atoms: N_15  and  C_14 
REMARK    7  A    between atoms: N_20  and  C_19 
REMARK       I    between atoms: C_22  and  N_20 
ROOT
ATOM      1  C   LIG d   1      -6.659  77.015 117.372  0.00  0.00     0.161 C 
ATOM      2  C   LIG d   1      -6.423  76.205 116.249  0.00  0.00     0.016 C 
ATOM      3  C   LIG d   1      -5.133  75.948 115.732  0.00  0.00     0.038 C 
ATOM      4  C   LIG d   1      -3.971  76.365 116.398  0.00  0.00     0.028 C 
ATOM      5  C   LIG d   1      -4.177  77.611 117.254  0.00  0.00    -0.047 C 
ATOM      6  C   LIG d   1      -5.397  77.388 118.177  0.00  0.00     0.091 C 
ENDROOT
BRANCH   1   7
ATOM      7  O   LIG d   1      -7.634  76.390 118.230  0.00  0.00    -0.368 OA
BRANCH   7   8
ATOM      8  C   LIG d   1      -8.966  76.960 118.203  0.00  0.00     0.119 C 
BRANCH   8   9
ATOM      9  C   LIG d   1      -9.167  77.727 119.524  0.00  0.00     0.028 C 
ATOM     10  C   LIG d   1      -9.381  79.234 119.302  0.00  0.00     0.006 C 
ENDBRANCH   8   9
BRANCH   8  11
ATOM     11  C   LIG d   1     -10.040  75.868 118.200  0.00  0.00     0.028 C 
ATOM     12  C   LIG d   1      -9.731  74.732 117.212  0.00  0.00     0.006 C 
ENDBRANCH   8  11
ENDBRANCH   7   8
ENDBRANCH   1   7
BRANCH   6  13
ATOM     13  N   LIG d   1      -5.720  78.591 118.988  0.00  0.00    -0.311 N 
ATOM     14  C   LIG d   1      -5.676  79.832 118.509  0.00  0.00     0.210 C 
ATOM     15  C   LIG d   1      -6.027  80.929 119.519  0.00  0.00     0.109 C 
ATOM     16  O   LIG d   1      -5.411  80.128 117.334  0.00  0.00    -0.276 OA
ATOM     17  H   LIG d   1      -5.976  78.440 119.945  0.00  0.00     0.149 HD
ENDBRANCH   6  13
BRANCH   5  18
ATOM     18  N   LIG d   1      -2.926  77.853 117.997  0.00  0.00     0.381 N 
ATOM     19  H   LIG d   1      -3.117  77.889 118.978  0.00  0.00    -0.090 HD
ATOM     20  H   LIG d   1      -2.548  78.741 117.716  0.00  0.00    -0.090 HD
ATOM     21  H   LIG d   1      -2.270  77.129 117.805  0.00  0.00    -0.090 HD
ENDBRANCH   5  18
BRANCH   3  22
ATOM     22  C   LIG d   1      -4.997  75.300 114.513  0.00  0.00     0.382 C 
ATOM     23  O   LIG d   1      -5.316  75.888 113.452  0.00  0.00    -0.241 OA
ATOM     24  O   LIG d   1      -4.601  74.120 114.466  0.00  0.00    -0.241 OA
ENDBRANCH   3  22
TORSDOF 7
ENDMDL
MODEL 2
REMARK VINA RESULT:      -5.0      3.464      5.066
REMARK  7 active torsions:
REMARK  status: ('A' for Active; 'I' for Inactive)
REMARK    1  A    between atoms: C_2  and  C_3 
REMARK    2  A    between atoms: C_3  and  O_6 
REMARK    3  A    between atoms: C_3  and  C_4 
REMARK    4  A    between atoms: C_7  and  O_6 
REMARK    5  A    between atoms: C_9  and  C_10 
REMARK    6  A    between atoms: N_15  and  C_14 
REMARK    7  A    between atoms: N_20  and  C_19 
REMARK       I    between atoms: C_22  and  N_20 
ROOT
ATOM      1  C   LIG d   1      -3.211  75.638 115.786  0.00  0.00     0.161 C 
ATOM      2  C   LIG d   1      -2.764  74.678 116.709  0.00  0.00     0.016 C 
ATOM      3  C   LIG d   1      -1.484  74.711 117.308  0.00  0.00     0.038 C 
ATOM      4  C   LIG d   1      -0.614  75.799 117.139  0.00  0.00     0.028 C 
ATOM      5  C   LIG d   1      -0.821  76.540 115.822  0.00  0.00    -0.047 C 
ATOM      6  C   LIG d   1      -2.319  76.892 115.674  0.00  0.00     0.091 C 
ENDROOT
BRANCH   1   7
ATOM      7  O   LIG d   1      -4.568  76.015 116.092  0.00  0.00    -0.368 OA
BRANCH   7   8
ATOM      8  C   LIG d   1      -5.606  75.298 115.379  0.00  0.00     0.119 C 
BRANCH   8   9
ATOM      9  C   LIG d   1      -5.338  75.474 113.872  0.00  0.00     0.028 C 
ATOM     10  C   LIG d   1      -6.459  76.254 113.164  0.00  0.00     0.006 C 
ENDBRANCH   8   9
BRANCH   8  11
ATOM     11  C   LIG d   1      -6.983  75.922 115.622  0.00  0.00     0.028 C 
ATOM     12  C   LIG d   1      -7.816  75.144 116.654  0.00  0.00     0.006 C 
ENDBRANCH   8  11
ENDBRANCH   7   8
ENDBRANCH   1   7
BRANCH   6  13
ATOM     13  N   LIG d   1      -2.622  77.544 114.373  0.00  0.00    -0.311 N 
ATOM     14  C   LIG d   1      -2.766  78.861 114.230  0.00  0.00     0.210 C 
ATOM     15  C   LIG d   1      -3.096  79.324 112.807  0.00  0.00     0.109 C 
ATOM     16  O   LIG d   1      -2.620  79.692 115.139  0.00  0.00    -0.276 OA
ATOM     17  H   LIG d   1      -2.726  76.947 113.577  0.00  0.00     0.149 HD
ENDBRANCH   6  13
BRANCH   5  18
ATOM     18  N   LIG d   1       0.053  77.728 115.838  0.00  0.00     0.381 N 
ATOM     19  H   LIG d   1       0.384  77.893 116.767  0.00  0.00    -0.090 HD
ATOM     20  H   LIG d   1      -0.480  78.528 115.545  0.00  0.00    -0.090 HD
ATOM     21  H   LIG d   1       0.825  77.591 115.223  0.00  0.00    -0.090 HD
ENDBRANCH   5  18
BRANCH   3  22
ATOM     22  C   LIG d   1      -1.047  73.629 118.056  0.00  0.00     0.382 C 
ATOM     23  O   LIG d   1      -1.519  73.426 119.201  0.00  0.00    -0.241 OA
ATOM     24  O   LIG d   1      -0.155  72.877 117.619  0.00  0.00    -0.241 OA
ENDBRANCH   3  22
TORSDOF 7
ENDMDL
MODEL 3
REMARK VINA RESULT:      -5.0     17.361     19.871
REMARK  7 active torsions:
REMARK  status: ('A' for Active; 'I' for Inactive)
REMARK    1  A    between atoms: C_2  and  C_3 
REMARK    2  A    between atoms: C_3  and  O_6 
REMARK    3  A    between atoms: C_3  and  C_4 
REMARK    4  A    between atoms: C_7  and  O_6 
REMARK    5  A    between atoms: C_9  and  C_10 
REMARK    6  A    between atoms: N_15  and  C_14 
REMARK    7  A    between atoms: N_20  and  C_19 
REMARK       I    between atoms: C_22  and  N_20 
ROOT
ATOM      1  C   LIG d   1     -23.635  83.256 114.803  0.00  0.00     0.161 C 
ATOM      2  C   LIG d   1     -22.830  84.402 114.695  0.00  0.00     0.016 C 
ATOM      3  C   LIG d   1     -23.302  85.642 114.207  0.00  0.00     0.038 C 
ATOM      4  C   LIG d   1     -24.660  85.863 113.934  0.00  0.00     0.028 C 
ATOM      5  C   LIG d   1     -25.415  84.594 113.550  0.00  0.00    -0.047 C 
ATOM      6  C   LIG d   1     -25.146  83.508 114.616  0.00  0.00     0.091 C 
ENDROOT
BRANCH   1   7
ATOM      7  O   LIG d   1     -23.389  82.603 116.064  0.00  0.00    -0.368 OA
BRANCH   7   8
ATOM      8  C   LIG d   1     -24.037  83.186 117.221  0.00  0.00     0.119 C 
BRANCH   8   9
ATOM      9  C   LIG d   1     -22.932  83.613 118.206  0.00  0.00     0.028 C 
ATOM     10  C   LIG d   1     -21.598  82.897 117.937  0.00  0.00     0.006 C 
ENDBRANCH   8   9
BRANCH   8  11
ATOM     11  C   LIG d   1     -24.873  82.147 117.975  0.00  0.00     0.028 C 
ATOM     12  C   LIG d   1     -24.640  80.715 117.468  0.00  0.00     0.006 C 
ENDBRANCH   8  11
ENDBRANCH   7   8
ENDBRANCH   1   7
BRANCH   6  13
ATOM     13  N   LIG d   1     -25.779  82.208 114.272  0.00  0.00    -0.311 N 
ATOM     14  C   LIG d   1     -26.957  81.816 114.755  0.00  0.00     0.210 C 
ATOM     15  C   LIG d   1     -27.419  80.431 114.289  0.00  0.00     0.109 C 
ATOM     16  O   LIG d   1     -27.679  82.497 115.499  0.00  0.00    -0.276 OA
ATOM     17  H   LIG d   1     -25.277  81.606 113.650  0.00  0.00     0.149 HD
ENDBRANCH   6  13
BRANCH   5  18
ATOM     18  N   LIG d   1     -26.843  84.945 113.428  0.00  0.00     0.381 N 
ATOM     19  H   LIG d   1     -26.961  85.646 112.725  0.00  0.00    -0.090 HD
ATOM     20  H   LIG d   1     -27.161  85.320 114.304  0.00  0.00    -0.090 HD
ATOM     21  H   LIG d   1     -27.374  84.135 113.194  0.00  0.00    -0.090 HD
ENDBRANCH   5  18
BRANCH   3  22
ATOM     22  C   LIG d   1     -22.404  86.666 113.949  0.00  0.00     0.382 C 
ATOM     23  O   LIG d   1     -21.420  86.463 113.198  0.00  0.00    -0.241 OA
ATOM     24  O   LIG d   1     -22.541  87.779 114.493  0.00  0.00    -0.241 OA
ENDBRANCH   3  22
TORSDOF 7
ENDMDL
MODEL 4
REMARK VINA RESULT:      -4.8     12.189     15.173
REMARK  7 active torsions:
REMARK  status: ('A' for Active; 'I' for Inactive)
REMARK    1  A    between atoms: C_2  and  C_3 
REMARK    2  A    between atoms: C_3  and  O_6 
REMARK    3  A    between atoms: C_3  and  C_4 
REMARK    4  A    between atoms: C_7  and  O_6 
REMARK    5  A    between atoms: C_9  and  C_10 
REMARK    6  A    between atoms: N_15  and  C_14 
REMARK    7  A    between atoms: N_20  and  C_19 
REMARK       I    between atoms: C_22  and  N_20 
ROOT
ATOM      1  C   LIG d   1       2.098  88.965 116.719  0.00  0.00     0.161 C 
ATOM      2  C   LIG d   1       2.488  90.270 117.064  0.00  0.00     0.016 C 
ATOM      3  C   LIG d   1       3.618  90.916 116.512  0.00  0.00     0.038 C 
ATOM      4  C   LIG d   1       4.352  90.353 115.457  0.00  0.00     0.028 C 
ATOM      5  C   LIG d   1       4.299  88.830 115.428  0.00  0.00    -0.047 C 
ATOM      6  C   LIG d   1       2.822  88.378 115.490  0.00  0.00     0.091 C 
ENDROOT
BRANCH   1   7
ATOM      7  O   LIG d   1       0.670  88.916 116.531  0.00  0.00    -0.368 OA
BRANCH   7   8
ATOM      8  C   LIG d   1      -0.046  87.950 117.339  0.00  0.00     0.119 C 
BRANCH   8   9
ATOM      9  C   LIG d   1      -1.183  88.700 118.059  0.00  0.00     0.028 C 
ATOM     10  C   LIG d   1      -1.165  90.211 117.770  0.00  0.00     0.006 C 
ENDBRANCH   8   9
BRANCH   8  11
ATOM     11  C   LIG d   1       0.841  87.390 118.456  0.00  0.00     0.028 C 
ATOM     12  C   LIG d   1       0.830  85.855 118.512  0.00  0.00     0.006 C 
ENDBRANCH   8  11
ENDBRANCH   7   8
ENDBRANCH   1   7
BRANCH   6  13
ATOM     13  N   LIG d   1       2.684  86.899 115.550  0.00  0.00    -0.311 N 
ATOM     14  C   LIG d   1       1.956  86.195 114.685  0.00  0.00     0.210 C 
ATOM     15  C   LIG d   1       1.931  84.685 114.940  0.00  0.00     0.109 C 
ATOM     16  O   LIG d   1       1.354  86.674 113.712  0.00  0.00    -0.276 OA
ATOM     17  H   LIG d   1       3.164  86.426 116.290  0.00  0.00     0.149 HD
ENDBRANCH   6  13
BRANCH   5  18
ATOM     18  N   LIG d   1       4.989  88.383 114.203  0.00  0.00     0.381 N 
ATOM     19  H   LIG d   1       5.555  87.583 114.406  0.00  0.00    -0.090 HD
ATOM     20  H   LIG d   1       5.591  89.121 113.881  0.00  0.00    -0.090 HD
ATOM     21  H   LIG d   1       4.322  88.157 113.499  0.00  0.00    -0.090 HD
ENDBRANCH   5  18
BRANCH   3  22
ATOM     22  C   LIG d   1       4.047  92.123 117.043  0.00  0.00     0.382 C 
ATOM     23  O   LIG d   1       5.037  92.153 117.813  0.00  0.00    -0.241 OA
ATOM     24  O   LIG d   1       3.430  93.177 116.796  0.00  0.00    -0.241 OA
ENDBRANCH   3  22
TORSDOF 7
ENDMDL
MODEL 5
REMARK VINA RESULT:      -4.8      2.968      5.523
REMARK  7 active torsions:
REMARK  status: ('A' for Active; 'I' for Inactive)
REMARK    1  A    between atoms: C_2  and  C_3 
REMARK    2  A    between atoms: C_3  and  O_6 
REMARK    3  A    between atoms: C_3  and  C_4 
REMARK    4  A    between atoms: C_7  and  O_6 
REMARK    5  A    between atoms: C_9  and  C_10 
REMARK    6  A    between atoms: N_15  and  C_14 
REMARK    7  A    between atoms: N_20  and  C_19 
REMARK       I    between atoms: C_22  and  N_20 
ROOT
ATOM      1  C   LIG d   1      -3.177  77.986 117.119  0.00  0.00     0.161 C 
ATOM      2  C   LIG d   1      -2.284  78.949 117.620  0.00  0.00     0.016 C 
ATOM      3  C   LIG d   1      -0.996  79.170 117.081  0.00  0.00     0.038 C 
ATOM      4  C   LIG d   1      -0.568  78.544 115.901  0.00  0.00     0.028 C 
ATOM      5  C   LIG d   1      -1.239  77.197 115.653  0.00  0.00    -0.047 C 
ATOM      6  C   LIG d   1      -2.771  77.371 115.764  0.00  0.00     0.091 C 
ENDROOT
BRANCH   1   7
ATOM      7  O   LIG d   1      -4.503  78.544 117.039  0.00  0.00    -0.368 OA
BRANCH   7   8
ATOM      8  C   LIG d   1      -5.439  78.114 118.057  0.00  0.00     0.119 C 
BRANCH   8   9
ATOM      9  C   LIG d   1      -6.455  77.171 117.384  0.00  0.00     0.028 C 
ATOM     10  C   LIG d   1      -7.637  76.827 118.305  0.00  0.00     0.006 C 
ENDBRANCH   8   9
BRANCH   8  11
ATOM     11  C   LIG d   1      -6.266  79.289 118.587  0.00  0.00     0.028 C 
ATOM     12  C   LIG d   1      -5.663  80.654 118.222  0.00  0.00     0.006 C 
ENDBRANCH   8  11
ENDBRANCH   7   8
ENDBRANCH   1   7
BRANCH   6  13
ATOM     13  N   LIG d   1      -3.499  76.084 115.618  0.00  0.00    -0.311 N 
ATOM     14  C   LIG d   1      -4.361  75.837 114.632  0.00  0.00     0.210 C 
ATOM     15  C   LIG d   1      -5.017  74.454 114.679  0.00  0.00     0.109 C 
ATOM     16  O   LIG d   1      -4.619  76.620 113.706  0.00  0.00    -0.276 OA
ATOM     17  H   LIG d   1      -3.325  75.380 116.308  0.00  0.00     0.149 HD
ENDBRANCH   6  13
BRANCH   5  18
ATOM     18  N   LIG d   1      -0.805  76.721 114.326  0.00  0.00     0.381 N 
ATOM     19  H   LIG d   1      -0.310  77.449 113.850  0.00  0.00    -0.090 HD
ATOM     20  H   LIG d   1      -1.618  76.486 113.783  0.00  0.00    -0.090 HD
ATOM     21  H   LIG d   1      -0.220  75.921 114.424  0.00  0.00    -0.090 HD
ENDBRANCH   5  18
BRANCH   3  22
ATOM     22  C   LIG d   1      -0.106  79.998 117.748  0.00  0.00     0.382 C 
ATOM     23  O   LIG d   1       0.079  81.173 117.347  0.00  0.00    -0.241 OA
ATOM     24  O   LIG d   1       0.548  79.571 118.718  0.00  0.00    -0.241 OA
ENDBRANCH   3  22
TORSDOF 7
ENDMDL
MODEL 6
REMARK VINA RESULT:      -4.8     13.839     16.225
REMARK  7 active torsions:
REMARK  status: ('A' for Active; 'I' for Inactive)
REMARK    1  A    between atoms: C_2  and  C_3 
REMARK    2  A    between atoms: C_3  and  O_6 
REMARK    3  A    between atoms: C_3  and  C_4 
REMARK    4  A    between atoms: C_7  and  O_6 
REMARK    5  A    between atoms: C_9  and  C_10 
REMARK    6  A    between atoms: N_15  and  C_14 
REMARK    7  A    between atoms: N_20  and  C_19 
REMARK       I    between atoms: C_22  and  N_20 
ROOT
ATOM      1  C   LIG d   1       4.091  89.802 115.149  0.00  0.00     0.161 C 
ATOM      2  C   LIG d   1       3.287  88.860 114.486  0.00  0.00     0.016 C 
ATOM      3  C   LIG d   1       3.468  87.463 114.602  0.00  0.00     0.038 C 
ATOM      4  C   LIG d   1       4.377  86.906 115.513  0.00  0.00     0.028 C 
ATOM      5  C   LIG d   1       5.555  87.821 115.830  0.00  0.00    -0.047 C 
ATOM      6  C   LIG d   1       5.016  89.212 116.235  0.00  0.00     0.091 C 
ENDROOT
BRANCH   1   7
ATOM      7  O   LIG d   1       3.265  90.843 115.707  0.00  0.00    -0.368 OA
BRANCH   7   8
ATOM      8  C   LIG d   1       2.726  90.591 117.028  0.00  0.00     0.119 C 
BRANCH   8   9
ATOM      9  C   LIG d   1       1.192  90.537 116.899  0.00  0.00     0.028 C 
ATOM     10  C   LIG d   1       0.616  89.174 117.319  0.00  0.00     0.006 C 
ENDBRANCH   8   9
BRANCH   8  11
ATOM     11  C   LIG d   1       3.013  91.758 117.978  0.00  0.00     0.028 C 
ATOM     12  C   LIG d   1       3.783  92.903 117.301  0.00  0.00     0.006 C 
ENDBRANCH   8  11
ENDBRANCH   7   8
ENDBRANCH   1   7
BRANCH   6  13
ATOM     13  N   LIG d   1       6.105  90.193 116.479  0.00  0.00    -0.311 N 
ATOM     14  C   LIG d   1       6.600  90.452 117.688  0.00  0.00     0.210 C 
ATOM     15  C   LIG d   1       7.705  91.513 117.720  0.00  0.00     0.109 C 
ATOM     16  O   LIG d   1       6.252  89.882 118.733  0.00  0.00    -0.276 OA
ATOM     17  H   LIG d   1       6.468  90.679 115.683  0.00  0.00     0.149 HD
ENDBRANCH   6  13
BRANCH   5  18
ATOM     18  N   LIG d   1       6.348  87.176 116.893  0.00  0.00     0.381 N 
ATOM     19  H   LIG d   1       6.098  87.561 117.782  0.00  0.00    -0.090 HD
ATOM     20  H   LIG d   1       7.322  87.362 116.731  0.00  0.00    -0.090 HD
ATOM     21  H   LIG d   1       6.185  86.193 116.891  0.00  0.00    -0.090 HD
ENDBRANCH   5  18
BRANCH   3  22
ATOM     22  C   LIG d   1       2.762  86.607 113.769  0.00  0.00     0.382 C 
ATOM     23  O   LIG d   1       1.748  87.022 113.159  0.00  0.00    -0.241 OA
ATOM     24  O   LIG d   1       3.101  85.414 113.656  0.00  0.00    -0.241 OA
ENDBRANCH   3  22
TORSDOF 7
ENDMDL
MODEL 7
REMARK VINA RESULT:      -4.7      4.226      6.023
REMARK  7 active torsions:
REMARK  status: ('A' for Active; 'I' for Inactive)
REMARK    1  A    between atoms: C_2  and  C_3 
REMARK    2  A    between atoms: C_3  and  O_6 
REMARK    3  A    between atoms: C_3  and  C_4 
REMARK    4  A    between atoms: C_7  and  O_6 
REMARK    5  A    between atoms: C_9  and  C_10 
REMARK    6  A    between atoms: N_15  and  C_14 
REMARK    7  A    between atoms: N_20  and  C_19 
REMARK       I    between atoms: C_22  and  N_20 
ROOT
ATOM      1  C   LIG d   1      -2.533  76.764 117.281  0.00  0.00     0.161 C 
ATOM      2  C   LIG d   1      -3.464  76.014 116.546  0.00  0.00     0.016 C 
ATOM      3  C   LIG d   1      -3.807  76.298 115.203  0.00  0.00     0.038 C 
ATOM      4  C   LIG d   1      -3.123  77.266 114.453  0.00  0.00     0.028 C 
ATOM      5  C   LIG d   1      -2.528  78.383 115.304  0.00  0.00    -0.047 C 
ATOM      6  C   LIG d   1      -1.696  77.755 116.445  0.00  0.00     0.091 C 
ENDROOT
BRANCH   1   7
ATOM      7  O   LIG d   1      -1.669  75.880 118.022  0.00  0.00    -0.368 OA
BRANCH   7   8
ATOM      8  C   LIG d   1      -1.493  74.551 117.472  0.00  0.00     0.119 C 
BRANCH   8   9
ATOM      9  C   LIG d   1      -1.335  73.577 118.655  0.00  0.00     0.028 C 
ATOM     10  C   LIG d   1       0.031  72.870 118.655  0.00  0.00     0.006 C 
ENDBRANCH   8   9
BRANCH   8  11
ATOM     11  C   LIG d   1      -0.186  74.444 116.681  0.00  0.00     0.028 C 
ATOM     12  C   LIG d   1      -0.401  74.520 115.161  0.00  0.00     0.006 C 
ENDBRANCH   8  11
ENDBRANCH   7   8
ENDBRANCH   1   7
BRANCH   6  13
ATOM     13  N   LIG d   1      -1.147  78.777 117.375  0.00  0.00    -0.311 N 
ATOM     14  C   LIG d   1       0.055  79.330 117.229  0.00  0.00     0.210 C 
ATOM     15  C   LIG d   1       0.435  80.347 118.311  0.00  0.00     0.109 C 
ATOM     16  O   LIG d   1       0.831  79.100 116.289  0.00  0.00    -0.276 OA
ATOM     17  H   LIG d   1      -1.723  79.045 118.149  0.00  0.00     0.149 HD
ENDBRANCH   6  13
BRANCH   5  18
ATOM     18  N   LIG d   1      -1.730  79.246 114.413  0.00  0.00     0.381 N 
ATOM     19  H   LIG d   1      -0.759  79.023 114.507  0.00  0.00    -0.090 HD
ATOM     20  H   LIG d   1      -1.861  80.204 114.685  0.00  0.00    -0.090 HD
ATOM     21  H   LIG d   1      -2.017  79.118 113.468  0.00  0.00    -0.090 HD
ENDBRANCH   5  18
BRANCH   3  22
ATOM     22  C   LIG d   1      -4.871  75.635 114.610  0.00  0.00     0.382 C 
ATOM     23  O   LIG d   1      -4.742  74.441 114.248  0.00  0.00    -0.241 OA
ATOM     24  O   LIG d   1      -5.943  76.230 114.393  0.00  0.00    -0.241 OA
ENDBRANCH   3  22
TORSDOF 7
ENDMDL
MODEL 8
REMARK VINA RESULT:      -4.7      2.194      5.279
REMARK  7 active torsions:
REMARK  status: ('A' for Active; 'I' for Inactive)
REMARK    1  A    between atoms: C_2  and  C_3 
REMARK    2  A    between atoms: C_3  and  O_6 
REMARK    3  A    between atoms: C_3  and  C_4 
REMARK    4  A    between atoms: C_7  and  O_6 
REMARK    5  A    between atoms: C_9  and  C_10 
REMARK    6  A    between atoms: N_15  and  C_14 
REMARK    7  A    between atoms: N_20  and  C_19 
REMARK       I    between atoms: C_22  and  N_20 
ROOT
ATOM      1  C   LIG d   1      -5.872  77.471 117.754  0.00  0.00     0.161 C 
ATOM      2  C   LIG d   1      -7.169  77.324 118.271  0.00  0.00     0.016 C 
ATOM      3  C   LIG d   1      -8.119  76.419 117.744  0.00  0.00     0.038 C 
ATOM      4  C   LIG d   1      -7.782  75.485 116.753  0.00  0.00     0.028 C 
ATOM      5  C   LIG d   1      -6.636  75.940 115.857  0.00  0.00    -0.047 C 
ATOM      6  C   LIG d   1      -5.450  76.383 116.745  0.00  0.00     0.091 C 
ENDROOT
BRANCH   1   7
ATOM      7  O   LIG d   1      -4.921  77.547 118.835  0.00  0.00    -0.368 OA
BRANCH   7   8
ATOM      8  C   LIG d   1      -4.289  78.835 119.038  0.00  0.00     0.119 C 
BRANCH   8   9
ATOM      9  C   LIG d   1      -4.863  79.804 117.986  0.00  0.00     0.028 C 
ATOM     10  C   LIG d   1      -5.639  80.969 118.623  0.00  0.00     0.006 C 
ENDBRANCH   8   9
BRANCH   8  11
ATOM     11  C   LIG d   1      -2.786  78.770 118.751  0.00  0.00     0.028 C 
ATOM     12  C   LIG d   1      -2.385  79.551 117.489  0.00  0.00     0.006 C 
ENDBRANCH   8  11
ENDBRANCH   7   8
ENDBRANCH   1   7
BRANCH   6  13
ATOM     13  N   LIG d   1      -4.317  76.922 115.949  0.00  0.00    -0.311 N 
ATOM     14  C   LIG d   1      -3.294  76.178 115.532  0.00  0.00     0.210 C 
ATOM     15  C   LIG d   1      -2.222  76.935 114.743  0.00  0.00     0.109 C 
ATOM     16  O   LIG d   1      -3.189  74.955 115.714  0.00  0.00    -0.276 OA
ATOM     17  H   LIG d   1      -4.337  77.899 115.730  0.00  0.00     0.149 HD
ENDBRANCH   6  13
BRANCH   5  18
ATOM     18  N   LIG d   1      -6.299  74.818 114.960  0.00  0.00     0.381 N 
ATOM     19  H   LIG d   1      -5.391  74.962 114.564  0.00  0.00    -0.090 HD
ATOM     20  H   LIG d   1      -6.968  74.787 114.212  0.00  0.00    -0.090 HD
ATOM     21  H   LIG d   1      -6.316  73.960 115.466  0.00  0.00    -0.090 HD
ENDBRANCH   5  18
BRANCH   3  22
ATOM     22  C   LIG d   1      -9.434  76.469 118.182  0.00  0.00     0.382 C 
ATOM     23  O   LIG d   1      -9.824  77.433 118.885  0.00  0.00    -0.241 OA
ATOM     24  O   LIG d   1     -10.223  75.541 117.921  0.00  0.00    -0.241 OA
ENDBRANCH   3  22
TORSDOF 7
ENDMDL
MODEL 9
REMARK VINA RESULT:      -4.5     14.907     18.019
REMARK  7 active torsions:
REMARK  status: ('A' for Active; 'I' for Inactive)
REMARK    1  A    between atoms: C_2  and  C_3 
REMARK    2  A    between atoms: C_3  and  O_6 
REMARK    3  A    between atoms: C_3  and  C_4 
REMARK    4  A    between atoms: C_7  and  O_6 
REMARK    5  A    between atoms: C_9  and  C_10 
REMARK    6  A    between atoms: N_15  and  C_14 
REMARK    7  A    between atoms: N_20  and  C_19 
REMARK       I    between atoms: C_22  and  N_20 
ROOT
ATOM      1  C   LIG d   1     -15.948  62.929 117.578  0.00  0.00     0.161 C 
ATOM      2  C   LIG d   1     -15.395  64.033 118.249  0.00  0.00     0.016 C 
ATOM      3  C   LIG d   1     -15.317  65.327 117.685  0.00  0.00     0.038 C 
ATOM      4  C   LIG d   1     -15.929  65.641 116.462  0.00  0.00     0.028 C 
ATOM      5  C   LIG d   1     -16.056  64.445 115.524  0.00  0.00    -0.047 C 
ATOM      6  C   LIG d   1     -16.720  63.277 116.288  0.00  0.00     0.091 C 
ENDROOT
BRANCH   1   7
ATOM      7  O   LIG d   1     -16.789  62.181 118.479  0.00  0.00    -0.368 OA
BRANCH   7   8
ATOM      8  C   LIG d   1     -16.309  60.867 118.855  0.00  0.00     0.119 C 
BRANCH   8   9
ATOM      9  C   LIG d   1     -14.881  60.718 118.297  0.00  0.00     0.028 C 
ATOM     10  C   LIG d   1     -14.177  59.452 118.815  0.00  0.00     0.006 C 
ENDBRANCH   8   9
BRANCH   8  11
ATOM     11  C   LIG d   1     -17.126  59.761 118.180  0.00  0.00     0.028 C 
ATOM     12  C   LIG d   1     -18.612  60.124 118.032  0.00  0.00     0.006 C 
ENDBRANCH   8  11
ENDBRANCH   7   8
ENDBRANCH   1   7
BRANCH   6  13
ATOM     13  N   LIG d   1     -16.806  62.040 115.468  0.00  0.00    -0.311 N 
ATOM     14  C   LIG d   1     -17.874  61.716 114.740  0.00  0.00     0.210 C 
ATOM     15  C   LIG d   1     -17.763  60.387 113.986  0.00  0.00     0.109 C 
ATOM     16  O   LIG d   1     -18.889  62.418 114.622  0.00  0.00    -0.276 OA
ATOM     17  H   LIG d   1     -16.014  61.428 115.482  0.00  0.00     0.149 HD
ENDBRANCH   6  13
BRANCH   5  18
ATOM     18  N   LIG d   1     -16.832  64.882 114.348  0.00  0.00     0.381 N 
ATOM     19  H   LIG d   1     -16.505  65.776 114.040  0.00  0.00    -0.090 HD
ATOM     20  H   LIG d   1     -17.798  64.973 114.611  0.00  0.00    -0.090 HD
ATOM     21  H   LIG d   1     -16.742  64.215 113.613  0.00  0.00    -0.090 HD
ENDBRANCH   5  18
BRANCH   3  22
ATOM     22  C   LIG d   1     -14.587  66.314 118.328  0.00  0.00     0.382 C 
ATOM     23  O   LIG d   1     -13.761  67.004 117.684  0.00  0.00    -0.241 OA
ATOM     24  O   LIG d   1     -14.711  66.493 119.555  0.00  0.00    -0.241 OA
ENDBRANCH   3  22
TORSDOF 7
ENDMDL
