MODEL 1
REMARK VINA RESULT:      -5.5      0.000      0.000
REMARK  7 active torsions:
REMARK  status: ('A' for Active; 'I' for Inactive)
REMARK    1  A    between atoms: C_2  and  C_3 
REMARK    2  A    between atoms: C_3  and  O_6 
REMARK    3  A    between atoms: C_3  and  C_4 
REMARK    4  A    between atoms: C_7  and  O_6 
REMARK    5  A    between atoms: C_9  and  C_10 
REMARK    6  A    between atoms: N_15  and  C_14 
REMARK    7  A    between atoms: N_20  and  C_19 
REMARK       I    between atoms: C_22  and  N_20 
ROOT
ATOM      1  C   LIG d   1      -3.626  90.291 117.210  0.00  0.00     0.161 C 
ATOM      2  C   LIG d   1      -3.425  89.214 116.330  0.00  0.00     0.016 C 
ATOM      3  C   LIG d   1      -4.371  88.818 115.356  0.00  0.00     0.038 C 
ATOM      4  C   LIG d   1      -5.524  89.571 115.093  0.00  0.00     0.028 C 
ATOM      5  C   LIG d   1      -6.010  90.374 116.295  0.00  0.00    -0.047 C 
ATOM      6  C   LIG d   1      -4.829  91.193 116.863  0.00  0.00     0.091 C 
ENDROOT
BRANCH   1   7
ATOM      7  O   LIG d   1      -2.421  91.076 117.303  0.00  0.00    -0.368 OA
BRANCH   7   8
ATOM      8  C   LIG d   1      -1.683  90.966 118.545  0.00  0.00     0.119 C 
BRANCH   8   9
ATOM      9  C   LIG d   1      -1.446  92.395 119.071  0.00  0.00     0.028 C 
ATOM     10  C   LIG d   1      -1.889  93.471 118.065  0.00  0.00     0.006 C 
ENDBRANCH   8   9
BRANCH   8  11
ATOM     11  C   LIG d   1      -0.286  90.382 118.314  0.00  0.00     0.028 C 
ATOM     12  C   LIG d   1       0.180  90.513 116.855  0.00  0.00     0.006 C 
ENDBRANCH   8  11
ENDBRANCH   7   8
ENDBRANCH   1   7
BRANCH   6  13
ATOM     13  N   LIG d   1      -5.198  91.942 118.093  0.00  0.00    -0.311 N 
ATOM     14  C   LIG d   1      -5.848  93.104 118.075  0.00  0.00     0.210 C 
ATOM     15  C   LIG d   1      -6.111  93.718 119.454  0.00  0.00     0.109 C 
ATOM     16  O   LIG d   1      -6.259  93.670 117.051  0.00  0.00    -0.276 OA
ATOM     17  H   LIG d   1      -4.930  91.540 118.970  0.00  0.00     0.149 HD
ENDBRANCH   6  13
BRANCH   5  18
ATOM     18  N   LIG d   1      -7.134  91.217 115.844  0.00  0.00     0.381 N 
ATOM     19  H   LIG d   1      -7.086  92.111 116.289  0.00  0.00    -0.090 HD
ATOM     20  H   LIG d   1      -7.997  90.777 116.110  0.00  0.00    -0.090 HD
ATOM     21  H   LIG d   1      -7.100  91.328 114.854  0.00  0.00    -0.090 HD
ENDBRANCH   5  18
BRANCH   3  22
ATOM     22  C   LIG d   1      -4.185  87.633 114.660  0.00  0.00     0.382 C 
ATOM     23  O   LIG d   1      -3.887  86.583 115.279  0.00  0.00    -0.241 OA
ATOM     24  O   LIG d   1      -4.268  87.610 113.418  0.00  0.00    -0.241 OA
ENDBRANCH   3  22
TORSDOF 7
ENDMDL
MODEL 2
REMARK VINA RESULT:      -5.3     11.861     14.430
REMARK  7 active torsions:
REMARK  status: ('A' for Active; 'I' for Inactive)
REMARK    1  A    between atoms: C_2  and  C_3 
REMARK    2  A    between atoms: C_3  and  O_6 
REMARK    3  A    between atoms: C_3  and  C_4 
REMARK    4  A    between atoms: C_7  and  O_6 
REMARK    5  A    between atoms: C_9  and  C_10 
REMARK    6  A    between atoms: N_15  and  C_14 
REMARK    7  A    between atoms: N_20  and  C_19 
REMARK       I    between atoms: C_22  and  N_20 
ROOT
ATOM      1  C   LIG d   1      -2.069  77.046 114.880  0.00  0.00     0.161 C 
ATOM      2  C   LIG d   1      -3.291  76.689 114.286  0.00  0.00     0.016 C 
ATOM      3  C   LIG d   1      -4.105  75.631 114.754  0.00  0.00     0.038 C 
ATOM      4  C   LIG d   1      -3.823  74.952 115.949  0.00  0.00     0.028 C 
ATOM      5  C   LIG d   1      -2.340  74.941 116.303  0.00  0.00    -0.047 C 
ATOM      6  C   LIG d   1      -1.800  76.388 116.250  0.00  0.00     0.091 C 
ENDROOT
BRANCH   1   7
ATOM      7  O   LIG d   1      -1.978  78.480 114.986  0.00  0.00    -0.368 OA
BRANCH   7   8
ATOM      8  C   LIG d   1      -1.053  79.129 114.079  0.00  0.00     0.119 C 
BRANCH   8   9
ATOM      9  C   LIG d   1      -0.485  80.365 114.804  0.00  0.00     0.028 C 
ATOM     10  C   LIG d   1      -0.309  80.131 116.313  0.00  0.00     0.006 C 
ENDBRANCH   8   9
BRANCH   8  11
ATOM     11  C   LIG d   1      -1.774  79.678 112.845  0.00  0.00     0.028 C 
ATOM     12  C   LIG d   1      -2.593  80.943 113.147  0.00  0.00     0.006 C 
ENDBRANCH   8  11
ENDBRANCH   7   8
ENDBRANCH   1   7
BRANCH   6  13
ATOM     13  N   LIG d   1      -0.337  76.457 116.502  0.00  0.00    -0.311 N 
ATOM     14  C   LIG d   1       0.189  76.707 117.700  0.00  0.00     0.210 C 
ATOM     15  C   LIG d   1       1.720  76.754 117.736  0.00  0.00     0.109 C 
ATOM     16  O   LIG d   1      -0.465  76.863 118.741  0.00  0.00    -0.276 OA
ATOM     17  H   LIG d   1       0.268  76.312 115.718  0.00  0.00     0.149 HD
ENDBRANCH   6  13
BRANCH   5  18
ATOM     18  N   LIG d   1      -2.205  74.322 117.636  0.00  0.00     0.381 N 
ATOM     19  H   LIG d   1      -1.454  74.756 118.136  0.00  0.00    -0.090 HD
ATOM     20  H   LIG d   1      -1.987  73.348 117.522  0.00  0.00    -0.090 HD
ATOM     21  H   LIG d   1      -3.055  74.423 118.146  0.00  0.00    -0.090 HD
ENDBRANCH   5  18
BRANCH   3  22
ATOM     22  C   LIG d   1      -5.194  75.218 114.003  0.00  0.00     0.382 C 
ATOM     23  O   LIG d   1      -5.392  75.706 112.864  0.00  0.00    -0.241 OA
ATOM     24  O   LIG d   1      -6.006  74.395 114.467  0.00  0.00    -0.241 OA
ENDBRANCH   3  22
TORSDOF 7
ENDMDL
MODEL 3
REMARK VINA RESULT:      -5.3      2.308      4.415
REMARK  7 active torsions:
REMARK  status: ('A' for Active; 'I' for Inactive)
REMARK    1  A    between atoms: C_2  and  C_3 
REMARK    2  A    between atoms: C_3  and  O_6 
REMARK    3  A    between atoms: C_3  and  C_4 
REMARK    4  A    between atoms: C_7  and  O_6 
REMARK    5  A    between atoms: C_9  and  C_10 
REMARK    6  A    between atoms: N_15  and  C_14 
REMARK    7  A    between atoms: N_20  and  C_19 
REMARK       I    between atoms: C_22  and  N_20 
ROOT
ATOM      1  C   LIG d   1      -3.039  90.766 117.078  0.00  0.00     0.161 C 
ATOM      2  C   LIG d   1      -4.102  91.629 116.764  0.00  0.00     0.016 C 
ATOM      3  C   LIG d   1      -5.159  91.277 115.892  0.00  0.00     0.038 C 
ATOM      4  C   LIG d   1      -5.304  89.975 115.391  0.00  0.00     0.028 C 
ATOM      5  C   LIG d   1      -3.984  89.220 115.277  0.00  0.00    -0.047 C 
ATOM      6  C   LIG d   1      -3.239  89.304 116.629  0.00  0.00     0.091 C 
ENDROOT
BRANCH   1   7
ATOM      7  O   LIG d   1      -2.766  90.823 118.492  0.00  0.00    -0.368 OA
BRANCH   7   8
ATOM      8  C   LIG d   1      -1.561  91.529 118.880  0.00  0.00     0.119 C 
BRANCH   8   9
ATOM      9  C   LIG d   1      -1.986  92.910 119.416  0.00  0.00     0.028 C 
ATOM     10  C   LIG d   1      -1.682  94.044 118.423  0.00  0.00     0.006 C 
ENDBRANCH   8   9
BRANCH   8  11
ATOM     11  C   LIG d   1      -0.671  91.820 117.669  0.00  0.00     0.028 C 
ATOM     12  C   LIG d   1       0.648  91.032 117.694  0.00  0.00     0.006 C 
ENDBRANCH   8  11
ENDBRANCH   7   8
ENDBRANCH   1   7
BRANCH   6  13
ATOM     13  N   LIG d   1      -1.900  88.662 116.579  0.00  0.00    -0.311 N 
ATOM     14  C   LIG d   1      -1.675  87.405 116.958  0.00  0.00     0.210 C 
ATOM     15  C   LIG d   1      -0.217  86.946 116.844  0.00  0.00     0.109 C 
ATOM     16  O   LIG d   1      -2.549  86.616 117.347  0.00  0.00    -0.276 OA
ATOM     17  H   LIG d   1      -1.138  89.220 116.246  0.00  0.00     0.149 HD
ENDBRANCH   6  13
BRANCH   5  18
ATOM     18  N   LIG d   1      -4.296  87.835 114.874  0.00  0.00     0.381 N 
ATOM     19  H   LIG d   1      -3.462  87.283 114.885  0.00  0.00    -0.090 HD
ATOM     20  H   LIG d   1      -4.657  87.843 113.936  0.00  0.00    -0.090 HD
ATOM     21  H   LIG d   1      -4.971  87.444 115.494  0.00  0.00    -0.090 HD
ENDBRANCH   5  18
BRANCH   3  22
ATOM     22  C   LIG d   1      -6.062  92.246 115.482  0.00  0.00     0.382 C 
ATOM     23  O   LIG d   1      -6.113  92.585 114.275  0.00  0.00    -0.241 OA
ATOM     24  O   LIG d   1      -6.797  92.816 116.310  0.00  0.00    -0.241 OA
ENDBRANCH   3  22
TORSDOF 7
ENDMDL
MODEL 4
REMARK VINA RESULT:      -5.1      1.614      2.259
REMARK  7 active torsions:
REMARK  status: ('A' for Active; 'I' for Inactive)
REMARK    1  A    between atoms: C_2  and  C_3 
REMARK    2  A    between atoms: C_3  and  O_6 
REMARK    3  A    between atoms: C_3  and  C_4 
REMARK    4  A    between atoms: C_7  and  O_6 
REMARK    5  A    between atoms: C_9  and  C_10 
REMARK    6  A    between atoms: N_15  and  C_14 
REMARK    7  A    between atoms: N_20  and  C_19 
REMARK       I    between atoms: C_22  and  N_20 
ROOT
ATOM      1  C   LIG d   1      -3.237  90.088 117.504  0.00  0.00     0.161 C 
ATOM      2  C   LIG d   1      -3.334  88.943 116.696  0.00  0.00     0.016 C 
ATOM      3  C   LIG d   1      -4.162  88.865 115.552  0.00  0.00     0.038 C 
ATOM      4  C   LIG d   1      -4.838  89.987 115.049  0.00  0.00     0.028 C 
ATOM      5  C   LIG d   1      -5.167  91.025 116.117  0.00  0.00    -0.047 C 
ATOM      6  C   LIG d   1      -3.881  91.357 116.907  0.00  0.00     0.091 C 
ENDROOT
BRANCH   1   7
ATOM      7  O   LIG d   1      -1.856  90.335 117.835  0.00  0.00    -0.368 OA
BRANCH   7   8
ATOM      8  C   LIG d   1      -0.892  89.400 117.292  0.00  0.00     0.119 C 
BRANCH   8   9
ATOM      9  C   LIG d   1      -0.218  88.687 118.480  0.00  0.00     0.028 C 
ATOM     10  C   LIG d   1      -0.945  87.392 118.876  0.00  0.00     0.006 C 
ENDBRANCH   8   9
BRANCH   8  11
ATOM     11  C   LIG d   1       0.240  90.128 116.561  0.00  0.00     0.028 C 
ATOM     12  C   LIG d   1       0.574  91.491 117.187  0.00  0.00     0.006 C 
ENDBRANCH   8  11
ENDBRANCH   7   8
ENDBRANCH   1   7
BRANCH   6  13
ATOM     13  N   LIG d   1      -4.132  92.302 118.026  0.00  0.00    -0.311 N 
ATOM     14  C   LIG d   1      -3.296  93.285 118.357  0.00  0.00     0.210 C 
ATOM     15  C   LIG d   1      -3.736  94.132 119.555  0.00  0.00     0.109 C 
ATOM     16  O   LIG d   1      -2.249  93.557 117.751  0.00  0.00    -0.276 OA
ATOM     17  H   LIG d   1      -4.974  92.174 118.552  0.00  0.00     0.149 HD
ENDBRANCH   6  13
BRANCH   5  18
ATOM     18  N   LIG d   1      -5.745  92.198 115.434  0.00  0.00     0.381 N 
ATOM     19  H   LIG d   1      -5.012  92.794 115.105  0.00  0.00    -0.090 HD
ATOM     20  H   LIG d   1      -6.301  92.716 116.092  0.00  0.00    -0.090 HD
ATOM     21  H   LIG d   1      -6.312  91.903 114.670  0.00  0.00    -0.090 HD
ENDBRANCH   5  18
BRANCH   3  22
ATOM     22  C   LIG d   1      -4.351  87.645 114.922  0.00  0.00     0.382 C 
ATOM     23  O   LIG d   1      -3.854  86.602 115.412  0.00  0.00    -0.241 OA
ATOM     24  O   LIG d   1      -4.975  87.579 113.846  0.00  0.00    -0.241 OA
ENDBRANCH   3  22
TORSDOF 7
ENDMDL
MODEL 5
REMARK VINA RESULT:      -5.1      1.867      5.049
REMARK  7 active torsions:
REMARK  status: ('A' for Active; 'I' for Inactive)
REMARK    1  A    between atoms: C_2  and  C_3 
REMARK    2  A    between atoms: C_3  and  O_6 
REMARK    3  A    between atoms: C_3  and  C_4 
REMARK    4  A    between atoms: C_7  and  O_6 
REMARK    5  A    between atoms: C_9  and  C_10 
REMARK    6  A    between atoms: N_15  and  C_14 
REMARK    7  A    between atoms: N_20  and  C_19 
REMARK       I    between atoms: C_22  and  N_20 
ROOT
ATOM      1  C   LIG d   1      -3.770  91.268 117.140  0.00  0.00     0.161 C 
ATOM      2  C   LIG d   1      -3.836  92.352 118.031  0.00  0.00     0.016 C 
ATOM      3  C   LIG d   1      -4.897  93.286 118.043  0.00  0.00     0.038 C 
ATOM      4  C   LIG d   1      -6.048  93.111 117.260  0.00  0.00     0.028 C 
ATOM      5  C   LIG d   1      -5.798  92.310 115.986  0.00  0.00    -0.047 C 
ATOM      6  C   LIG d   1      -5.070  90.997 116.354  0.00  0.00     0.091 C 
ENDROOT
BRANCH   1   7
ATOM      7  O   LIG d   1      -3.354  90.082 117.845  0.00  0.00    -0.368 OA
BRANCH   7   8
ATOM      8  C   LIG d   1      -2.016  89.606 117.557  0.00  0.00     0.119 C 
BRANCH   8   9
ATOM      9  C   LIG d   1      -2.136  88.147 117.075  0.00  0.00     0.028 C 
ATOM     10  C   LIG d   1      -0.765  87.483 116.867  0.00  0.00     0.006 C 
ENDBRANCH   8   9
BRANCH   8  11
ATOM     11  C   LIG d   1      -1.162  89.544 118.827  0.00  0.00     0.028 C 
ATOM     12  C   LIG d   1      -0.420  90.860 119.112  0.00  0.00     0.006 C 
ENDBRANCH   8  11
ENDBRANCH   7   8
ENDBRANCH   1   7
BRANCH   6  13
ATOM     13  N   LIG d   1      -4.711  90.193 115.156  0.00  0.00    -0.311 N 
ATOM     14  C   LIG d   1      -5.057  88.916 115.001  0.00  0.00     0.210 C 
ATOM     15  C   LIG d   1      -4.569  88.268 113.701  0.00  0.00     0.109 C 
ATOM     16  O   LIG d   1      -5.748  88.268 115.800  0.00  0.00    -0.276 OA
ATOM     17  H   LIG d   1      -4.177  90.650 114.443  0.00  0.00     0.149 HD
ENDBRANCH   6  13
BRANCH   5  18
ATOM     18  N   LIG d   1      -7.103  92.085 115.337  0.00  0.00     0.381 N 
ATOM     19  H   LIG d   1      -7.516  92.963 115.093  0.00  0.00    -0.090 HD
ATOM     20  H   LIG d   1      -7.713  91.620 115.986  0.00  0.00    -0.090 HD
ATOM     21  H   LIG d   1      -6.986  91.526 114.521  0.00  0.00    -0.090 HD
ENDBRANCH   5  18
BRANCH   3  22
ATOM     22  C   LIG d   1      -4.796  94.432 118.816  0.00  0.00     0.382 C 
ATOM     23  O   LIG d   1      -3.785  94.615 119.537  0.00  0.00    -0.241 OA
ATOM     24  O   LIG d   1      -5.722  95.265 118.837  0.00  0.00    -0.241 OA
ENDBRANCH   3  22
TORSDOF 7
ENDMDL
MODEL 6
REMARK VINA RESULT:      -4.9     26.347     29.096
REMARK  7 active torsions:
REMARK  status: ('A' for Active; 'I' for Inactive)
REMARK    1  A    between atoms: C_2  and  C_3 
REMARK    2  A    between atoms: C_3  and  O_6 
REMARK    3  A    between atoms: C_3  and  C_4 
REMARK    4  A    between atoms: C_7  and  O_6 
REMARK    5  A    between atoms: C_9  and  C_10 
REMARK    6  A    between atoms: N_15  and  C_14 
REMARK    7  A    between atoms: N_20  and  C_19 
REMARK       I    between atoms: C_22  and  N_20 
ROOT
ATOM      1  C   LIG d   1     -17.486  64.562 116.045  0.00  0.00     0.161 C 
ATOM      2  C   LIG d   1     -17.855  63.314 115.516  0.00  0.00     0.016 C 
ATOM      3  C   LIG d   1     -17.555  62.910 114.195  0.00  0.00     0.038 C 
ATOM      4  C   LIG d   1     -16.726  63.671 113.357  0.00  0.00     0.028 C 
ATOM      5  C   LIG d   1     -16.752  65.162 113.673  0.00  0.00    -0.047 C 
ATOM      6  C   LIG d   1     -16.486  65.360 115.183  0.00  0.00     0.091 C 
ENDROOT
BRANCH   1   7
ATOM      7  O   LIG d   1     -16.971  64.393 117.381  0.00  0.00    -0.368 OA
BRANCH   7   8
ATOM      8  C   LIG d   1     -17.798  64.910 118.453  0.00  0.00     0.119 C 
BRANCH   8   9
ATOM      9  C   LIG d   1     -18.956  65.694 117.807  0.00  0.00     0.028 C 
ATOM     10  C   LIG d   1     -19.010  67.157 118.278  0.00  0.00     0.006 C 
ENDBRANCH   8   9
BRANCH   8  11
ATOM     11  C   LIG d   1     -17.037  65.934 119.299  0.00  0.00     0.028 C 
ATOM     12  C   LIG d   1     -15.533  65.631 119.392  0.00  0.00     0.006 C 
ENDBRANCH   8  11
ENDBRANCH   7   8
ENDBRANCH   1   7
BRANCH   6  13
ATOM     13  N   LIG d   1     -16.577  66.786 115.592  0.00  0.00    -0.311 N 
ATOM     14  C   LIG d   1     -15.570  67.453 116.153  0.00  0.00     0.210 C 
ATOM     15  C   LIG d   1     -15.881  68.908 116.517  0.00  0.00     0.109 C 
ATOM     16  O   LIG d   1     -14.438  66.987 116.354  0.00  0.00    -0.276 OA
ATOM     17  H   LIG d   1     -17.450  67.250 115.437  0.00  0.00     0.149 HD
ENDBRANCH   6  13
BRANCH   5  18
ATOM     18  N   LIG d   1     -15.743  65.816 112.818  0.00  0.00     0.381 N 
ATOM     19  H   LIG d   1     -15.216  65.123 112.325  0.00  0.00    -0.090 HD
ATOM     20  H   LIG d   1     -15.112  66.338 113.400  0.00  0.00    -0.090 HD
ATOM     21  H   LIG d   1     -16.190  66.427 112.169  0.00  0.00    -0.090 HD
ENDBRANCH   5  18
BRANCH   3  22
ATOM     22  C   LIG d   1     -18.118  61.749 113.686  0.00  0.00     0.382 C 
ATOM     23  O   LIG d   1     -17.658  60.631 114.020  0.00  0.00    -0.241 OA
ATOM     24  O   LIG d   1     -19.052  61.808 112.864  0.00  0.00    -0.241 OA
ENDBRANCH   3  22
TORSDOF 7
ENDMDL
MODEL 7
REMARK VINA RESULT:      -4.8      2.069      5.016
REMARK  7 active torsions:
REMARK  status: ('A' for Active; 'I' for Inactive)
REMARK    1  A    between atoms: C_2  and  C_3 
REMARK    2  A    between atoms: C_3  and  O_6 
REMARK    3  A    between atoms: C_3  and  C_4 
REMARK    4  A    between atoms: C_7  and  O_6 
REMARK    5  A    between atoms: C_9  and  C_10 
REMARK    6  A    between atoms: N_15  and  C_14 
REMARK    7  A    between atoms: N_20  and  C_19 
REMARK       I    between atoms: C_22  and  N_20 
ROOT
ATOM      1  C   LIG d   1      -3.403  91.564 117.487  0.00  0.00     0.161 C 
ATOM      2  C   LIG d   1      -2.526  92.524 118.020  0.00  0.00     0.016 C 
ATOM      3  C   LIG d   1      -2.963  93.703 118.668  0.00  0.00     0.038 C 
ATOM      4  C   LIG d   1      -4.316  93.929 118.962  0.00  0.00     0.028 C 
ATOM      5  C   LIG d   1      -5.271  93.232 117.998  0.00  0.00    -0.047 C 
ATOM      6  C   LIG d   1      -4.880  91.739 117.897  0.00  0.00     0.091 C 
ENDROOT
BRANCH   1   7
ATOM      7  O   LIG d   1      -2.943  90.241 117.826  0.00  0.00    -0.368 OA
BRANCH   7   8
ATOM      8  C   LIG d   1      -2.235  89.526 116.783  0.00  0.00     0.119 C 
BRANCH   8   9
ATOM      9  C   LIG d   1      -2.881  88.133 116.657  0.00  0.00     0.028 C 
ATOM     10  C   LIG d   1      -4.050  88.115 115.658  0.00  0.00     0.006 C 
ENDBRANCH   8   9
BRANCH   8  11
ATOM     11  C   LIG d   1      -0.778  89.264 117.176  0.00  0.00     0.028 C 
ATOM     12  C   LIG d   1       0.193  90.298 116.585  0.00  0.00     0.006 C 
ENDBRANCH   8  11
ENDBRANCH   7   8
ENDBRANCH   1   7
BRANCH   6  13
ATOM     13  N   LIG d   1      -5.711  91.002 116.910  0.00  0.00    -0.311 N 
ATOM     14  C   LIG d   1      -5.937  91.437 115.672  0.00  0.00     0.210 C 
ATOM     15  C   LIG d   1      -6.838  90.533 114.823  0.00  0.00     0.109 C 
ATOM     16  O   LIG d   1      -5.451  92.468 115.184  0.00  0.00    -0.276 OA
ATOM     17  H   LIG d   1      -6.119  90.139 117.212  0.00  0.00     0.149 HD
ENDBRANCH   6  13
BRANCH   5  18
ATOM     18  N   LIG d   1      -6.642  93.438 118.502  0.00  0.00     0.381 N 
ATOM     19  H   LIG d   1      -6.885  94.406 118.435  0.00  0.00    -0.090 HD
ATOM     20  H   LIG d   1      -6.676  93.170 119.470  0.00  0.00    -0.090 HD
ATOM     21  H   LIG d   1      -7.285  92.889 117.975  0.00  0.00    -0.090 HD
ENDBRANCH   5  18
BRANCH   3  22
ATOM     22  C   LIG d   1      -2.045  94.689 118.992  0.00  0.00     0.382 C 
ATOM     23  O   LIG d   1      -2.442  95.797 119.428  0.00  0.00    -0.241 OA
ATOM     24  O   LIG d   1      -0.827  94.502 118.814  0.00  0.00    -0.241 OA
ENDBRANCH   3  22
TORSDOF 7
ENDMDL
MODEL 8
REMARK VINA RESULT:      -4.7     10.823     13.782
REMARK  7 active torsions:
REMARK  status: ('A' for Active; 'I' for Inactive)
REMARK    1  A    between atoms: C_2  and  C_3 
REMARK    2  A    between atoms: C_3  and  O_6 
REMARK    3  A    between atoms: C_3  and  C_4 
REMARK    4  A    between atoms: C_7  and  O_6 
REMARK    5  A    between atoms: C_9  and  C_10 
REMARK    6  A    between atoms: N_15  and  C_14 
REMARK    7  A    between atoms: N_20  and  C_19 
REMARK       I    between atoms: C_22  and  N_20 
ROOT
ATOM      1  C   LIG d   1      -0.502  78.412 115.256  0.00  0.00     0.161 C 
ATOM      2  C   LIG d   1      -0.879  79.764 115.191  0.00  0.00     0.016 C 
ATOM      3  C   LIG d   1      -1.958  80.233 114.406  0.00  0.00     0.038 C 
ATOM      4  C   LIG d   1      -2.832  79.356 113.746  0.00  0.00     0.028 C 
ATOM      5  C   LIG d   1      -2.188  78.025 113.376  0.00  0.00    -0.047 C 
ATOM      6  C   LIG d   1      -1.512  77.427 114.631  0.00  0.00     0.091 C 
ENDROOT
BRANCH   1   7
ATOM      7  O   LIG d   1      -0.226  78.047 116.623  0.00  0.00    -0.368 OA
BRANCH   7   8
ATOM      8  C   LIG d   1      -1.372  77.673 117.426  0.00  0.00     0.119 C 
BRANCH   8   9
ATOM      9  C   LIG d   1      -1.383  78.582 118.670  0.00  0.00     0.028 C 
ATOM     10  C   LIG d   1      -0.072  79.371 118.831  0.00  0.00     0.006 C 
ENDBRANCH   8   9
BRANCH   8  11
ATOM     11  C   LIG d   1      -1.232  76.247 117.967  0.00  0.00     0.028 C 
ATOM     12  C   LIG d   1       0.202  75.707 117.857  0.00  0.00     0.006 C 
ENDBRANCH   8  11
ENDBRANCH   7   8
ENDBRANCH   1   7
BRANCH   6  13
ATOM     13  N   LIG d   1      -0.786  76.164 114.337  0.00  0.00    -0.311 N 
ATOM     14  C   LIG d   1      -1.311  74.955 114.529  0.00  0.00     0.210 C 
ATOM     15  C   LIG d   1      -0.386  73.786 114.181  0.00  0.00     0.109 C 
ATOM     16  O   LIG d   1      -2.467  74.741 114.924  0.00  0.00    -0.276 OA
ATOM     17  H   LIG d   1       0.147  76.246 113.984  0.00  0.00     0.149 HD
ENDBRANCH   6  13
BRANCH   5  18
ATOM     18  N   LIG d   1      -3.245  77.158 112.821  0.00  0.00     0.381 N 
ATOM     19  H   LIG d   1      -4.099  77.674 112.741  0.00  0.00    -0.090 HD
ATOM     20  H   LIG d   1      -3.399  76.389 113.449  0.00  0.00    -0.090 HD
ATOM     21  H   LIG d   1      -2.971  76.816 111.926  0.00  0.00    -0.090 HD
ENDBRANCH   5  18
BRANCH   3  22
ATOM     22  C   LIG d   1      -2.146  81.597 114.243  0.00  0.00     0.382 C 
ATOM     23  O   LIG d   1      -3.092  82.019 113.536  0.00  0.00    -0.241 OA
ATOM     24  O   LIG d   1      -1.354  82.410 114.757  0.00  0.00    -0.241 OA
ENDBRANCH   3  22
TORSDOF 7
ENDMDL
MODEL 9
REMARK VINA RESULT:      -4.7     26.358     29.383
REMARK  7 active torsions:
REMARK  status: ('A' for Active; 'I' for Inactive)
REMARK    1  A    between atoms: C_2  and  C_3 
REMARK    2  A    between atoms: C_3  and  O_6 
REMARK    3  A    between atoms: C_3  and  C_4 
REMARK    4  A    between atoms: C_7  and  O_6 
REMARK    5  A    between atoms: C_9  and  C_10 
REMARK    6  A    between atoms: N_15  and  C_14 
REMARK    7  A    between atoms: N_20  and  C_19 
REMARK       I    between atoms: C_22  and  N_20 
ROOT
ATOM      1  C   LIG d   1     -16.396  64.443 116.656  0.00  0.00     0.161 C 
ATOM      2  C   LIG d   1     -15.783  65.659 117.004  0.00  0.00     0.016 C 
ATOM      3  C   LIG d   1     -15.383  66.628 116.056  0.00  0.00     0.038 C 
ATOM      4  C   LIG d   1     -15.707  66.513 114.696  0.00  0.00     0.028 C 
ATOM      5  C   LIG d   1     -15.877  65.069 114.234  0.00  0.00    -0.047 C 
ATOM      6  C   LIG d   1     -16.858  64.349 115.187  0.00  0.00     0.091 C 
ENDROOT
BRANCH   1   7
ATOM      7  O   LIG d   1     -17.499  64.180 117.546  0.00  0.00    -0.368 OA
BRANCH   7   8
ATOM      8  C   LIG d   1     -18.756  64.816 117.208  0.00  0.00     0.119 C 
BRANCH   8   9
ATOM      9  C   LIG d   1     -19.123  65.760 118.369  0.00  0.00     0.028 C 
ATOM     10  C   LIG d   1     -18.982  67.243 117.986  0.00  0.00     0.006 C 
ENDBRANCH   8   9
BRANCH   8  11
ATOM     11  C   LIG d   1     -19.896  63.795 117.140  0.00  0.00     0.028 C 
ATOM     12  C   LIG d   1     -19.458  62.384 117.563  0.00  0.00     0.006 C 
ENDBRANCH   8  11
ENDBRANCH   7   8
ENDBRANCH   1   7
BRANCH   6  13
ATOM     13  N   LIG d   1     -17.016  62.909 114.856  0.00  0.00    -0.311 N 
ATOM     14  C   LIG d   1     -18.008  62.434 114.105  0.00  0.00     0.210 C 
ATOM     15  C   LIG d   1     -17.995  60.915 113.904  0.00  0.00     0.109 C 
ATOM     16  O   LIG d   1     -18.879  63.129 113.561  0.00  0.00    -0.276 OA
ATOM     17  H   LIG d   1     -16.335  62.278 115.231  0.00  0.00     0.149 HD
ENDBRANCH   6  13
BRANCH   5  18
ATOM     18  N   LIG d   1     -16.347  65.101 112.836  0.00  0.00     0.381 N 
ATOM     19  H   LIG d   1     -16.516  66.047 112.557  0.00  0.00    -0.090 HD
ATOM     20  H   LIG d   1     -17.212  64.594 112.772  0.00  0.00    -0.090 HD
ATOM     21  H   LIG d   1     -15.667  64.687 112.238  0.00  0.00    -0.090 HD
ENDBRANCH   5  18
BRANCH   3  22
ATOM     22  C   LIG d   1     -14.614  67.709 116.460  0.00  0.00     0.382 C 
ATOM     23  O   LIG d   1     -14.643  68.086 117.656  0.00  0.00    -0.241 OA
ATOM     24  O   LIG d   1     -13.926  68.339 115.635  0.00  0.00    -0.241 OA
ENDBRANCH   3  22
TORSDOF 7
ENDMDL
