MODEL 1
REMARK VINA RESULT:      -5.0      0.000      0.000
REMARK  7 active torsions:
REMARK  status: ('A' for Active; 'I' for Inactive)
REMARK    1  A    between atoms: C_2  and  C_3 
REMARK    2  A    between atoms: C_3  and  O_6 
REMARK    3  A    between atoms: C_3  and  C_4 
REMARK    4  A    between atoms: C_7  and  O_6 
REMARK    5  A    between atoms: C_9  and  C_10 
REMARK    6  A    between atoms: N_15  and  C_14 
REMARK    7  A    between atoms: N_20  and  C_19 
REMARK       I    between atoms: C_22  and  N_20 
ROOT
ATOM      1  C   LIG d   1      -2.204  76.901 114.731  0.00  0.00     0.161 C 
ATOM      2  C   LIG d   1      -1.893  75.773 115.509  0.00  0.00     0.016 C 
ATOM      3  C   LIG d   1      -1.106  75.829 116.682  0.00  0.00     0.038 C 
ATOM      4  C   LIG d   1      -0.699  77.049 117.244  0.00  0.00     0.028 C 
ATOM      5  C   LIG d   1      -0.562  78.171 116.221  0.00  0.00    -0.047 C 
ATOM      6  C   LIG d   1      -1.863  78.254 115.389  0.00  0.00     0.091 C 
ENDROOT
BRANCH   1   7
ATOM      7  O   LIG d   1      -3.594  76.865 114.353  0.00  0.00    -0.368 OA
BRANCH   7   8
ATOM      8  C   LIG d   1      -4.506  76.299 115.326  0.00  0.00     0.119 C 
BRANCH   8   9
ATOM      9  C   LIG d   1      -5.481  75.378 114.567  0.00  0.00     0.028 C 
ATOM     10  C   LIG d   1      -5.807  74.095 115.351  0.00  0.00     0.006 C 
ENDBRANCH   8   9
BRANCH   8  11
ATOM     11  C   LIG d   1      -5.383  77.381 115.963  0.00  0.00     0.028 C 
ATOM     12  C   LIG d   1      -5.107  77.565 117.464  0.00  0.00     0.006 C 
ENDBRANCH   8  11
ENDBRANCH   7   8
ENDBRANCH   1   7
BRANCH   6  13
ATOM     13  N   LIG d   1      -1.781  79.271 114.309  0.00  0.00    -0.311 N 
ATOM     14  C   LIG d   1      -2.618  80.303 114.209  0.00  0.00     0.210 C 
ATOM     15  C   LIG d   1      -2.371  81.222 113.009  0.00  0.00     0.109 C 
ATOM     16  O   LIG d   1      -3.522  80.561 115.018  0.00  0.00    -0.276 OA
ATOM     17  H   LIG d   1      -1.057  79.156 113.627  0.00  0.00     0.149 HD
ENDBRANCH   6  13
BRANCH   5  18
ATOM     18  N   LIG d   1      -0.268  79.414 116.959  0.00  0.00     0.381 N 
ATOM     19  H   LIG d   1      -0.425  80.205 116.367  0.00  0.00    -0.090 HD
ATOM     20  H   LIG d   1       0.700  79.410 117.230  0.00  0.00    -0.090 HD
ATOM     21  H   LIG d   1      -0.846  79.475 117.768  0.00  0.00    -0.090 HD
ENDBRANCH   5  18
BRANCH   3  22
ATOM     22  C   LIG d   1      -0.683  74.653 117.283  0.00  0.00     0.382 C 
ATOM     23  O   LIG d   1       0.068  74.697 118.287  0.00  0.00    -0.241 OA
ATOM     24  O   LIG d   1      -1.008  73.549 116.808  0.00  0.00    -0.241 OA
ENDBRANCH   3  22
TORSDOF 7
ENDMDL
MODEL 2
REMARK VINA RESULT:      -4.8      2.175      4.996
REMARK  7 active torsions:
REMARK  status: ('A' for Active; 'I' for Inactive)
REMARK    1  A    between atoms: C_2  and  C_3 
REMARK    2  A    between atoms: C_3  and  O_6 
REMARK    3  A    between atoms: C_3  and  C_4 
REMARK    4  A    between atoms: C_7  and  O_6 
REMARK    5  A    between atoms: C_9  and  C_10 
REMARK    6  A    between atoms: N_15  and  C_14 
REMARK    7  A    between atoms: N_20  and  C_19 
REMARK       I    between atoms: C_22  and  N_20 
ROOT
ATOM      1  C   LIG d   1      -4.502  77.182 117.194  0.00  0.00     0.161 C 
ATOM      2  C   LIG d   1      -5.293  78.340 117.287  0.00  0.00     0.016 C 
ATOM      3  C   LIG d   1      -4.826  79.630 116.947  0.00  0.00     0.038 C 
ATOM      4  C   LIG d   1      -3.576  79.831 116.344  0.00  0.00     0.028 C 
ATOM      5  C   LIG d   1      -2.553  78.758 116.699  0.00  0.00    -0.047 C 
ATOM      6  C   LIG d   1      -3.172  77.367 116.434  0.00  0.00     0.091 C 
ENDROOT
BRANCH   1   7
ATOM      7  O   LIG d   1      -5.270  76.112 116.609  0.00  0.00    -0.368 OA
BRANCH   7   8
ATOM      8  C   LIG d   1      -5.166  75.965 115.172  0.00  0.00     0.119 C 
BRANCH   8   9
ATOM      9  C   LIG d   1      -6.468  76.514 114.555  0.00  0.00     0.028 C 
ATOM     10  C   LIG d   1      -6.354  76.726 113.036  0.00  0.00     0.006 C 
ENDBRANCH   8   9
BRANCH   8  11
ATOM     11  C   LIG d   1      -5.115  74.490 114.764  0.00  0.00     0.028 C 
ATOM     12  C   LIG d   1      -6.008  73.598 115.641  0.00  0.00     0.006 C 
ENDBRANCH   8  11
ENDBRANCH   7   8
ENDBRANCH   1   7
BRANCH   6  13
ATOM     13  N   LIG d   1      -2.268  76.257 116.834  0.00  0.00    -0.311 N 
ATOM     14  C   LIG d   1      -1.672  75.446 115.962  0.00  0.00     0.210 C 
ATOM     15  C   LIG d   1      -0.796  74.356 116.587  0.00  0.00     0.109 C 
ATOM     16  O   LIG d   1      -1.760  75.547 114.729  0.00  0.00    -0.276 OA
ATOM     17  H   LIG d   1      -2.116  76.124 117.815  0.00  0.00     0.149 HD
ENDBRANCH   6  13
BRANCH   5  18
ATOM     18  N   LIG d   1      -1.342  79.013 115.897  0.00  0.00     0.381 N 
ATOM     19  H   LIG d   1      -1.540  79.694 115.191  0.00  0.00    -0.090 HD
ATOM     20  H   LIG d   1      -1.066  78.160 115.443  0.00  0.00    -0.090 HD
ATOM     21  H   LIG d   1      -0.606  79.338 116.484  0.00  0.00    -0.090 HD
ENDBRANCH   5  18
BRANCH   3  22
ATOM     22  C   LIG d   1      -5.599  80.742 117.248  0.00  0.00     0.382 C 
ATOM     23  O   LIG d   1      -5.081  81.728 117.824  0.00  0.00    -0.241 OA
ATOM     24  O   LIG d   1      -6.818  80.752 116.989  0.00  0.00    -0.241 OA
ENDBRANCH   3  22
TORSDOF 7
ENDMDL
MODEL 3
REMARK VINA RESULT:      -4.8      2.480      3.782
REMARK  7 active torsions:
REMARK  status: ('A' for Active; 'I' for Inactive)
REMARK    1  A    between atoms: C_2  and  C_3 
REMARK    2  A    between atoms: C_3  and  O_6 
REMARK    3  A    between atoms: C_3  and  C_4 
REMARK    4  A    between atoms: C_7  and  O_6 
REMARK    5  A    between atoms: C_9  and  C_10 
REMARK    6  A    between atoms: N_15  and  C_14 
REMARK    7  A    between atoms: N_20  and  C_19 
REMARK       I    between atoms: C_22  and  N_20 
ROOT
ATOM      1  C   LIG d   1      -2.897  78.304 114.523  0.00  0.00     0.161 C 
ATOM      2  C   LIG d   1      -3.873  77.309 114.699  0.00  0.00     0.016 C 
ATOM      3  C   LIG d   1      -3.578  75.998 115.138  0.00  0.00     0.038 C 
ATOM      4  C   LIG d   1      -2.297  75.634 115.578  0.00  0.00     0.028 C 
ATOM      5  C   LIG d   1      -1.182  76.456 114.941  0.00  0.00    -0.047 C 
ATOM      6  C   LIG d   1      -1.510  77.958 115.104  0.00  0.00     0.091 C 
ENDROOT
BRANCH   1   7
ATOM      7  O   LIG d   1      -3.369  79.554 115.064  0.00  0.00    -0.368 OA
BRANCH   7   8
ATOM      8  C   LIG d   1      -3.533  79.604 116.503  0.00  0.00     0.119 C 
BRANCH   8   9
ATOM      9  C   LIG d   1      -4.920  80.210 116.790  0.00  0.00     0.028 C 
ATOM     10  C   LIG d   1      -6.001  79.134 116.985  0.00  0.00     0.006 C 
ENDBRANCH   8   9
BRANCH   8  11
ATOM     11  C   LIG d   1      -2.529  80.567 117.144  0.00  0.00     0.028 C 
ATOM     12  C   LIG d   1      -3.131  81.364 118.313  0.00  0.00     0.006 C 
ENDBRANCH   8  11
ENDBRANCH   7   8
ENDBRANCH   1   7
BRANCH   6  13
ATOM     13  N   LIG d   1      -0.511  78.832 114.436  0.00  0.00    -0.311 N 
ATOM     14  C   LIG d   1       0.484  79.436 115.082  0.00  0.00     0.210 C 
ATOM     15  C   LIG d   1       1.389  80.309 114.207  0.00  0.00     0.109 C 
ATOM     16  O   LIG d   1       0.723  79.307 116.292  0.00  0.00    -0.276 OA
ATOM     17  H   LIG d   1      -0.612  78.967 113.449  0.00  0.00     0.149 HD
ENDBRANCH   6  13
BRANCH   5  18
ATOM     18  N   LIG d   1       0.085  76.067 115.590  0.00  0.00     0.381 N 
ATOM     19  H   LIG d   1       0.715  76.844 115.597  0.00  0.00    -0.090 HD
ATOM     20  H   LIG d   1       0.506  75.324 115.061  0.00  0.00    -0.090 HD
ATOM     21  H   LIG d   1      -0.089  75.763 116.523  0.00  0.00    -0.090 HD
ENDBRANCH   5  18
BRANCH   3  22
ATOM     22  C   LIG d   1      -4.564  75.023 115.101  0.00  0.00     0.382 C 
ATOM     23  O   LIG d   1      -5.359  74.899 116.063  0.00  0.00    -0.241 OA
ATOM     24  O   LIG d   1      -4.640  74.237 114.137  0.00  0.00    -0.241 OA
ENDBRANCH   3  22
TORSDOF 7
ENDMDL
MODEL 4
REMARK VINA RESULT:      -4.8      3.091      4.681
REMARK  7 active torsions:
REMARK  status: ('A' for Active; 'I' for Inactive)
REMARK    1  A    between atoms: C_2  and  C_3 
REMARK    2  A    between atoms: C_3  and  O_6 
REMARK    3  A    between atoms: C_3  and  C_4 
REMARK    4  A    between atoms: C_7  and  O_6 
REMARK    5  A    between atoms: C_9  and  C_10 
REMARK    6  A    between atoms: N_15  and  C_14 
REMARK    7  A    between atoms: N_20  and  C_19 
REMARK       I    between atoms: C_22  and  N_20 
ROOT
ATOM      1  C   LIG d   1      -3.149  78.768 115.918  0.00  0.00     0.161 C 
ATOM      2  C   LIG d   1      -2.254  79.842 116.058  0.00  0.00     0.016 C 
ATOM      3  C   LIG d   1      -1.083  79.987 115.279  0.00  0.00     0.038 C 
ATOM      4  C   LIG d   1      -0.804  79.140 114.196  0.00  0.00     0.028 C 
ATOM      5  C   LIG d   1      -1.416  77.750 114.341  0.00  0.00    -0.047 C 
ATOM      6  C   LIG d   1      -2.920  77.895 114.667  0.00  0.00     0.091 C 
ENDROOT
BRANCH   1   7
ATOM      7  O   LIG d   1      -4.505  79.255 115.948  0.00  0.00    -0.368 OA
BRANCH   7   8
ATOM      8  C   LIG d   1      -5.155  79.252 117.242  0.00  0.00     0.119 C 
BRANCH   8   9
ATOM      9  C   LIG d   1      -5.654  77.818 117.507  0.00  0.00     0.028 C 
ATOM     10  C   LIG d   1      -5.283  77.318 118.913  0.00  0.00     0.006 C 
ENDBRANCH   8   9
BRANCH   8  11
ATOM     11  C   LIG d   1      -6.414  80.125 117.236  0.00  0.00     0.028 C 
ATOM     12  C   LIG d   1      -6.099  81.626 117.328  0.00  0.00     0.006 C 
ENDBRANCH   8  11
ENDBRANCH   7   8
ENDBRANCH   1   7
BRANCH   6  13
ATOM     13  N   LIG d   1      -3.576  76.584 114.908  0.00  0.00    -0.311 N 
ATOM     14  C   LIG d   1      -4.615  76.143 114.200  0.00  0.00     0.210 C 
ATOM     15  C   LIG d   1      -5.153  74.773 114.625  0.00  0.00     0.109 C 
ATOM     16  O   LIG d   1      -5.121  76.742 113.239  0.00  0.00    -0.276 OA
ATOM     17  H   LIG d   1      -3.209  76.019 115.648  0.00  0.00     0.149 HD
ENDBRANCH   6  13
BRANCH   5  18
ATOM     18  N   LIG d   1      -1.164  77.020 113.084  0.00  0.00     0.381 N 
ATOM     19  H   LIG d   1      -0.246  76.622 113.101  0.00  0.00    -0.090 HD
ATOM     20  H   LIG d   1      -1.214  77.666 112.316  0.00  0.00    -0.090 HD
ATOM     21  H   LIG d   1      -1.843  76.300 112.966  0.00  0.00    -0.090 HD
ENDBRANCH   5  18
BRANCH   3  22
ATOM     22  C   LIG d   1      -0.156  80.964 115.607  0.00  0.00     0.382 C 
ATOM     23  O   LIG d   1       0.746  81.272 114.790  0.00  0.00    -0.241 OA
ATOM     24  O   LIG d   1      -0.182  81.510 116.726  0.00  0.00    -0.241 OA
ENDBRANCH   3  22
TORSDOF 7
ENDMDL
MODEL 5
REMARK VINA RESULT:      -4.6      2.567      4.849
REMARK  7 active torsions:
REMARK  status: ('A' for Active; 'I' for Inactive)
REMARK    1  A    between atoms: C_2  and  C_3 
REMARK    2  A    between atoms: C_3  and  O_6 
REMARK    3  A    between atoms: C_3  and  C_4 
REMARK    4  A    between atoms: C_7  and  O_6 
REMARK    5  A    between atoms: C_9  and  C_10 
REMARK    6  A    between atoms: N_15  and  C_14 
REMARK    7  A    between atoms: N_20  and  C_19 
REMARK       I    between atoms: C_22  and  N_20 
ROOT
ATOM      1  C   LIG d   1      -4.246  78.323 116.177  0.00  0.00     0.161 C 
ATOM      2  C   LIG d   1      -5.569  78.725 116.428  0.00  0.00     0.016 C 
ATOM      3  C   LIG d   1      -5.904  79.884 117.164  0.00  0.00     0.038 C 
ATOM      4  C   LIG d   1      -4.932  80.809 117.574  0.00  0.00     0.028 C 
ATOM      5  C   LIG d   1      -3.555  80.188 117.782  0.00  0.00    -0.047 C 
ATOM      6  C   LIG d   1      -3.174  79.379 116.521  0.00  0.00     0.091 C 
ENDROOT
BRANCH   1   7
ATOM      7  O   LIG d   1      -4.114  77.904 114.804  0.00  0.00    -0.368 OA
BRANCH   7   8
ATOM      8  C   LIG d   1      -3.949  76.482 114.585  0.00  0.00     0.119 C 
BRANCH   8   9
ATOM      9  C   LIG d   1      -5.325  75.912 114.189  0.00  0.00     0.028 C 
ATOM     10  C   LIG d   1      -5.824  74.843 115.176  0.00  0.00     0.006 C 
ENDBRANCH   8   9
BRANCH   8  11
ATOM     11  C   LIG d   1      -3.569  75.759 115.881  0.00  0.00     0.028 C 
ATOM     12  C   LIG d   1      -2.179  75.106 115.813  0.00  0.00     0.006 C 
ENDBRANCH   8  11
ENDBRANCH   7   8
ENDBRANCH   1   7
BRANCH   6  13
ATOM     13  N   LIG d   1      -1.877  78.669 116.673  0.00  0.00    -0.311 N 
ATOM     14  C   LIG d   1      -0.898  78.730 115.772  0.00  0.00     0.210 C 
ATOM     15  C   LIG d   1       0.348  77.907 116.115  0.00  0.00     0.109 C 
ATOM     16  O   LIG d   1      -0.931  79.412 114.737  0.00  0.00    -0.276 OA
ATOM     17  H   LIG d   1      -1.754  78.117 117.499  0.00  0.00     0.149 HD
ENDBRANCH   6  13
BRANCH   5  18
ATOM     18  N   LIG d   1      -2.611  81.284 118.072  0.00  0.00     0.381 N 
ATOM     19  H   LIG d   1      -2.285  81.209 119.015  0.00  0.00    -0.090 HD
ATOM     20  H   LIG d   1      -3.091  82.161 117.973  0.00  0.00    -0.090 HD
ATOM     21  H   LIG d   1      -1.840  81.245 117.443  0.00  0.00    -0.090 HD
ENDBRANCH   5  18
BRANCH   3  22
ATOM     22  C   LIG d   1      -7.222  80.107 117.533  0.00  0.00     0.382 C 
ATOM     23  O   LIG d   1      -7.879  79.197 118.092  0.00  0.00    -0.241 OA
ATOM     24  O   LIG d   1      -7.776  81.192 117.272  0.00  0.00    -0.241 OA
ENDBRANCH   3  22
TORSDOF 7
ENDMDL
MODEL 6
REMARK VINA RESULT:      -4.6      2.379      5.328
REMARK  7 active torsions:
REMARK  status: ('A' for Active; 'I' for Inactive)
REMARK    1  A    between atoms: C_2  and  C_3 
REMARK    2  A    between atoms: C_3  and  O_6 
REMARK    3  A    between atoms: C_3  and  C_4 
REMARK    4  A    between atoms: C_7  and  O_6 
REMARK    5  A    between atoms: C_9  and  C_10 
REMARK    6  A    between atoms: N_15  and  C_14 
REMARK    7  A    between atoms: N_20  and  C_19 
REMARK       I    between atoms: C_22  and  N_20 
ROOT
ATOM      1  C   LIG d   1      -1.060  77.857 114.724  0.00  0.00     0.161 C 
ATOM      2  C   LIG d   1      -2.365  77.483 114.363  0.00  0.00     0.016 C 
ATOM      3  C   LIG d   1      -3.012  76.330 114.865  0.00  0.00     0.038 C 
ATOM      4  C   LIG d   1      -2.448  75.550 115.885  0.00  0.00     0.028 C 
ATOM      5  C   LIG d   1      -0.924  75.601 115.916  0.00  0.00    -0.047 C 
ATOM      6  C   LIG d   1      -0.472  77.079 115.920  0.00  0.00     0.091 C 
ENDROOT
BRANCH   1   7
ATOM      7  O   LIG d   1      -1.010  79.275 114.975  0.00  0.00    -0.368 OA
BRANCH   7   8
ATOM      8  C   LIG d   1      -0.053  80.029 114.191  0.00  0.00     0.119 C 
BRANCH   8   9
ATOM      9  C   LIG d   1       0.752  80.910 115.165  0.00  0.00     0.028 C 
ATOM     10  C   LIG d   1       0.070  81.044 116.537  0.00  0.00     0.006 C 
ENDBRANCH   8   9
BRANCH   8  11
ATOM     11  C   LIG d   1      -0.755  81.007 113.245  0.00  0.00     0.028 C 
ATOM     12  C   LIG d   1      -2.275  81.062 113.465  0.00  0.00     0.006 C 
ENDBRANCH   8  11
ENDBRANCH   7   8
ENDBRANCH   1   7
BRANCH   6  13
ATOM     13  N   LIG d   1       1.006  77.220 115.864  0.00  0.00    -0.311 N 
ATOM     14  C   LIG d   1       1.730  77.745 116.851  0.00  0.00     0.210 C 
ATOM     15  C   LIG d   1       3.237  77.815 116.582  0.00  0.00     0.109 C 
ATOM     16  O   LIG d   1       1.271  78.130 117.937  0.00  0.00    -0.276 OA
ATOM     17  H   LIG d   1       1.464  76.904 115.032  0.00  0.00     0.149 HD
ENDBRANCH   6  13
BRANCH   5  18
ATOM     18  N   LIG d   1      -0.477  74.856 117.108  0.00  0.00     0.381 N 
ATOM     19  H   LIG d   1       0.248  74.216 116.855  0.00  0.00    -0.090 HD
ATOM     20  H   LIG d   1      -1.252  74.329 117.471  0.00  0.00    -0.090 HD
ATOM     21  H   LIG d   1      -0.144  75.490 117.801  0.00  0.00    -0.090 HD
ENDBRANCH   5  18
BRANCH   3  22
ATOM     22  C   LIG d   1      -4.219  75.925 114.316  0.00  0.00     0.382 C 
ATOM     23  O   LIG d   1      -4.507  74.705 114.266  0.00  0.00    -0.241 OA
ATOM     24  O   LIG d   1      -5.004  76.761 113.830  0.00  0.00    -0.241 OA
ENDBRANCH   3  22
TORSDOF 7
ENDMDL
MODEL 7
REMARK VINA RESULT:      -4.6      3.437      5.917
REMARK  7 active torsions:
REMARK  status: ('A' for Active; 'I' for Inactive)
REMARK    1  A    between atoms: C_2  and  C_3 
REMARK    2  A    between atoms: C_3  and  O_6 
REMARK    3  A    between atoms: C_3  and  C_4 
REMARK    4  A    between atoms: C_7  and  O_6 
REMARK    5  A    between atoms: C_9  and  C_10 
REMARK    6  A    between atoms: N_15  and  C_14 
REMARK    7  A    between atoms: N_20  and  C_19 
REMARK       I    between atoms: C_22  and  N_20 
ROOT
ATOM      1  C   LIG d   1      -5.729  78.811 117.087  0.00  0.00     0.161 C 
ATOM      2  C   LIG d   1      -7.094  79.043 117.320  0.00  0.00     0.016 C 
ATOM      3  C   LIG d   1      -7.587  80.191 117.981  0.00  0.00     0.038 C 
ATOM      4  C   LIG d   1      -6.752  81.266 118.322  0.00  0.00     0.028 C 
ATOM      5  C   LIG d   1      -5.303  80.855 118.560  0.00  0.00    -0.047 C 
ATOM      6  C   LIG d   1      -4.812  80.024 117.353  0.00  0.00     0.091 C 
ENDROOT
BRANCH   1   7
ATOM      7  O   LIG d   1      -5.538  78.324 115.744  0.00  0.00    -0.368 OA
BRANCH   7   8
ATOM      8  C   LIG d   1      -5.039  76.969 115.622  0.00  0.00     0.119 C 
BRANCH   8   9
ATOM      9  C   LIG d   1      -3.840  77.003 114.655  0.00  0.00     0.028 C 
ATOM     10  C   LIG d   1      -2.617  76.253 115.210  0.00  0.00     0.006 C 
ENDBRANCH   8   9
BRANCH   8  11
ATOM     11  C   LIG d   1      -6.070  76.053 114.957  0.00  0.00     0.028 C 
ATOM     12  C   LIG d   1      -5.867  74.572 115.312  0.00  0.00     0.006 C 
ENDBRANCH   8  11
ENDBRANCH   7   8
ENDBRANCH   1   7
BRANCH   6  13
ATOM     13  N   LIG d   1      -3.430  79.511 117.542  0.00  0.00    -0.311 N 
ATOM     14  C   LIG d   1      -2.442  79.731 116.676  0.00  0.00     0.210 C 
ATOM     15  C   LIG d   1      -1.100  79.095 117.053  0.00  0.00     0.109 C 
ATOM     16  O   LIG d   1      -2.541  80.419 115.649  0.00  0.00    -0.276 OA
ATOM     17  H   LIG d   1      -3.254  78.969 118.365  0.00  0.00     0.149 HD
ENDBRANCH   6  13
BRANCH   5  18
ATOM     18  N   LIG d   1      -4.519  82.087 118.770  0.00  0.00     0.381 N 
ATOM     19  H   LIG d   1      -3.545  81.866 118.815  0.00  0.00    -0.090 HD
ATOM     20  H   LIG d   1      -4.790  82.499 119.646  0.00  0.00    -0.090 HD
ATOM     21  H   LIG d   1      -4.688  82.730 118.028  0.00  0.00    -0.090 HD
ENDBRANCH   5  18
BRANCH   3  22
ATOM     22  C   LIG d   1      -8.924  80.255 118.344  0.00  0.00     0.382 C 
ATOM     23  O   LIG d   1      -9.616  79.209 118.374  0.00  0.00    -0.241 OA
ATOM     24  O   LIG d   1      -9.458  81.351 118.599  0.00  0.00    -0.241 OA
ENDBRANCH   3  22
TORSDOF 7
ENDMDL
MODEL 8
REMARK VINA RESULT:      -4.5     12.345     14.664
REMARK  7 active torsions:
REMARK  status: ('A' for Active; 'I' for Inactive)
REMARK    1  A    between atoms: C_2  and  C_3 
REMARK    2  A    between atoms: C_3  and  O_6 
REMARK    3  A    between atoms: C_3  and  C_4 
REMARK    4  A    between atoms: C_7  and  O_6 
REMARK    5  A    between atoms: C_9  and  C_10 
REMARK    6  A    between atoms: N_15  and  C_14 
REMARK    7  A    between atoms: N_20  and  C_19 
REMARK       I    between atoms: C_22  and  N_20 
ROOT
ATOM      1  C   LIG d   1      11.380  75.573 115.473  0.00  0.00     0.161 C 
ATOM      2  C   LIG d   1      10.040  75.975 115.602  0.00  0.00     0.016 C 
ATOM      3  C   LIG d   1       9.559  77.233 115.170  0.00  0.00     0.038 C 
ATOM      4  C   LIG d   1      10.361  78.121 114.438  0.00  0.00     0.028 C 
ATOM      5  C   LIG d   1      11.851  77.972 114.727  0.00  0.00    -0.047 C 
ATOM      6  C   LIG d   1      12.245  76.484 114.577  0.00  0.00     0.091 C 
ENDROOT
BRANCH   1   7
ATOM      7  O   LIG d   1      11.438  74.211 115.007  0.00  0.00    -0.368 OA
BRANCH   7   8
ATOM      8  C   LIG d   1      10.875  73.210 115.890  0.00  0.00     0.119 C 
BRANCH   8   9
ATOM      9  C   LIG d   1      11.718  73.203 117.180  0.00  0.00     0.028 C 
ATOM     10  C   LIG d   1      10.996  72.514 118.350  0.00  0.00     0.006 C 
ENDBRANCH   8   9
BRANCH   8  11
ATOM     11  C   LIG d   1      11.020  71.803 115.303  0.00  0.00     0.028 C 
ATOM     12  C   LIG d   1       9.678  71.063 115.191  0.00  0.00     0.006 C 
ENDBRANCH   8  11
ENDBRANCH   7   8
ENDBRANCH   1   7
BRANCH   6  13
ATOM     13  N   LIG d   1      13.668  76.237 114.925  0.00  0.00    -0.311 N 
ATOM     14  C   LIG d   1      14.645  76.184 114.021  0.00  0.00     0.210 C 
ATOM     15  C   LIG d   1      16.038  75.897 114.591  0.00  0.00     0.109 C 
ATOM     16  O   LIG d   1      14.496  76.379 112.806  0.00  0.00    -0.276 OA
ATOM     17  H   LIG d   1      13.884  76.098 115.893  0.00  0.00     0.149 HD
ENDBRANCH   6  13
BRANCH   5  18
ATOM     18  N   LIG d   1      12.577  78.859 113.799  0.00  0.00     0.381 N 
ATOM     19  H   LIG d   1      12.088  78.910 112.928  0.00  0.00    -0.090 HD
ATOM     20  H   LIG d   1      13.489  78.473 113.627  0.00  0.00    -0.090 HD
ATOM     21  H   LIG d   1      12.662  79.769 114.194  0.00  0.00    -0.090 HD
ENDBRANCH   5  18
BRANCH   3  22
ATOM     22  C   LIG d   1       8.274  77.630 115.505  0.00  0.00     0.382 C 
ATOM     23  O   LIG d   1       8.050  78.150 116.625  0.00  0.00    -0.241 OA
ATOM     24  O   LIG d   1       7.327  77.433 114.720  0.00  0.00    -0.241 OA
ENDBRANCH   3  22
TORSDOF 7
ENDMDL
MODEL 9
REMARK VINA RESULT:      -4.4     11.203     14.324
REMARK  7 active torsions:
REMARK  status: ('A' for Active; 'I' for Inactive)
REMARK    1  A    between atoms: C_2  and  C_3 
REMARK    2  A    between atoms: C_3  and  O_6 
REMARK    3  A    between atoms: C_3  and  C_4 
REMARK    4  A    between atoms: C_7  and  O_6 
REMARK    5  A    between atoms: C_9  and  C_10 
REMARK    6  A    between atoms: N_15  and  C_14 
REMARK    7  A    between atoms: N_20  and  C_19 
REMARK       I    between atoms: C_22  and  N_20 
ROOT
ATOM      1  C   LIG d   1       4.674  87.638 116.409  0.00  0.00     0.161 C 
ATOM      2  C   LIG d   1       3.861  88.783 116.373  0.00  0.00     0.016 C 
ATOM      3  C   LIG d   1       4.335  90.084 116.662  0.00  0.00     0.038 C 
ATOM      4  C   LIG d   1       5.698  90.348 116.860  0.00  0.00     0.028 C 
ATOM      5  C   LIG d   1       6.475  89.154 117.403  0.00  0.00    -0.047 C 
ATOM      6  C   LIG d   1       6.187  87.922 116.515  0.00  0.00     0.091 C 
ENDROOT
BRANCH   1   7
ATOM      7  O   LIG d   1       4.398  86.808 115.264  0.00  0.00    -0.368 OA
BRANCH   7   8
ATOM      8  C   LIG d   1       3.712  87.449 114.162  0.00  0.00     0.119 C 
BRANCH   8   9
ATOM      9  C   LIG d   1       2.599  86.493 113.690  0.00  0.00     0.028 C 
ATOM     10  C   LIG d   1       2.986  85.014 113.856  0.00  0.00     0.006 C 
ENDBRANCH   8   9
BRANCH   8  11
ATOM     11  C   LIG d   1       4.637  87.622 112.953  0.00  0.00     0.028 C 
ATOM     12  C   LIG d   1       5.592  88.817 113.100  0.00  0.00     0.006 C 
ENDBRANCH   8  11
ENDBRANCH   7   8
ENDBRANCH   1   7
BRANCH   6  13
ATOM     13  N   LIG d   1       6.841  86.689 117.025  0.00  0.00    -0.311 N 
ATOM     14  C   LIG d   1       8.062  86.302 116.659  0.00  0.00     0.210 C 
ATOM     15  C   LIG d   1       8.540  84.990 117.289  0.00  0.00     0.109 C 
ATOM     16  O   LIG d   1       8.807  86.937 115.898  0.00  0.00    -0.276 OA
ATOM     17  H   LIG d   1       6.320  86.130 117.672  0.00  0.00     0.149 HD
ENDBRANCH   6  13
BRANCH   5  18
ATOM     18  N   LIG d   1       7.902  89.525 117.432  0.00  0.00     0.381 N 
ATOM     19  H   LIG d   1       8.467  88.700 117.422  0.00  0.00    -0.090 HD
ATOM     20  H   LIG d   1       8.091  90.026 118.282  0.00  0.00    -0.090 HD
ATOM     21  H   LIG d   1       8.121  90.096 116.645  0.00  0.00    -0.090 HD
ENDBRANCH   5  18
BRANCH   3  22
ATOM     22  C   LIG d   1       3.435  91.130 116.794  0.00  0.00     0.382 C 
ATOM     23  O   LIG d   1       3.854  92.307 116.908  0.00  0.00    -0.241 OA
ATOM     24  O   LIG d   1       2.211  90.907 116.845  0.00  0.00    -0.241 OA
ENDBRANCH   3  22
TORSDOF 7
ENDMDL
