MODEL 1
REMARK VINA RESULT:      -5.2      0.000      0.000
REMARK  7 active torsions:
REMARK  status: ('A' for Active; 'I' for Inactive)
REMARK    1  A    between atoms: C_2  and  C_3 
REMARK    2  A    between atoms: C_3  and  O_6 
REMARK    3  A    between atoms: C_3  and  C_4 
REMARK    4  A    between atoms: C_7  and  O_6 
REMARK    5  A    between atoms: C_9  and  C_10 
REMARK    6  A    between atoms: N_15  and  C_14 
REMARK    7  A    between atoms: N_20  and  C_19 
REMARK       I    between atoms: C_22  and  N_20 
ROOT
ATOM      1  C   LIG d   1      -2.326  74.779 115.939  0.00  0.00     0.161 C 
ATOM      2  C   LIG d   1      -2.736  75.652 116.960  0.00  0.00     0.016 C 
ATOM      3  C   LIG d   1      -1.840  76.452 117.707  0.00  0.00     0.038 C 
ATOM      4  C   LIG d   1      -0.479  76.545 117.378  0.00  0.00     0.028 C 
ATOM      5  C   LIG d   1       0.062  75.301 116.683  0.00  0.00    -0.047 C 
ATOM      6  C   LIG d   1      -0.859  74.950 115.492  0.00  0.00     0.091 C 
ENDROOT
BRANCH   1   7
ATOM      7  O   LIG d   1      -3.211  74.900 114.808  0.00  0.00    -0.368 OA
BRANCH   7   8
ATOM      8  C   LIG d   1      -4.013  76.105 114.752  0.00  0.00     0.119 C 
BRANCH   8   9
ATOM      9  C   LIG d   1      -5.396  75.716 114.196  0.00  0.00     0.028 C 
ATOM     10  C   LIG d   1      -6.522  75.925 115.222  0.00  0.00     0.006 C 
ENDBRANCH   8   9
BRANCH   8  11
ATOM     11  C   LIG d   1      -3.440  77.109 113.748  0.00  0.00     0.028 C 
ATOM     12  C   LIG d   1      -2.557  78.178 114.411  0.00  0.00     0.006 C 
ENDBRANCH   8  11
ENDBRANCH   7   8
ENDBRANCH   1   7
BRANCH   6  13
ATOM     13  N   LIG d   1      -0.448  73.697 114.807  0.00  0.00    -0.311 N 
ATOM     14  C   LIG d   1      -0.040  73.653 113.540  0.00  0.00     0.210 C 
ATOM     15  C   LIG d   1       0.318  72.256 113.024  0.00  0.00     0.109 C 
ATOM     16  O   LIG d   1       0.091  74.644 112.805  0.00  0.00    -0.276 OA
ATOM     17  H   LIG d   1      -0.494  72.850 115.340  0.00  0.00     0.149 HD
ENDBRANCH   6  13
BRANCH   5  18
ATOM     18  N   LIG d   1       1.451  75.587 116.275  0.00  0.00     0.381 N 
ATOM     19  H   LIG d   1       2.088  75.148 116.908  0.00  0.00    -0.090 HD
ATOM     20  H   LIG d   1       1.603  76.580 116.313  0.00  0.00    -0.090 HD
ATOM     21  H   LIG d   1       1.610  75.255 115.349  0.00  0.00    -0.090 HD
ENDBRANCH   5  18
BRANCH   3  22
ATOM     22  C   LIG d   1      -2.297  77.139 118.821  0.00  0.00     0.382 C 
ATOM     23  O   LIG d   1      -3.524  77.163 119.083  0.00  0.00    -0.241 OA
ATOM     24  O   LIG d   1      -1.503  77.772 119.543  0.00  0.00    -0.241 OA
ENDBRANCH   3  22
TORSDOF 7
ENDMDL
MODEL 2
REMARK VINA RESULT:      -4.8      2.478      5.308
REMARK  7 active torsions:
REMARK  status: ('A' for Active; 'I' for Inactive)
REMARK    1  A    between atoms: C_2  and  C_3 
REMARK    2  A    between atoms: C_3  and  O_6 
REMARK    3  A    between atoms: C_3  and  C_4 
REMARK    4  A    between atoms: C_7  and  O_6 
REMARK    5  A    between atoms: C_9  and  C_10 
REMARK    6  A    between atoms: N_15  and  C_14 
REMARK    7  A    between atoms: N_20  and  C_19 
REMARK       I    between atoms: C_22  and  N_20 
ROOT
ATOM      1  C   LIG d   1      -1.928  77.136 116.654  0.00  0.00     0.161 C 
ATOM      2  C   LIG d   1      -2.957  76.451 115.986  0.00  0.00     0.016 C 
ATOM      3  C   LIG d   1      -3.251  76.635 114.615  0.00  0.00     0.038 C 
ATOM      4  C   LIG d   1      -2.432  77.408 113.778  0.00  0.00     0.028 C 
ATOM      5  C   LIG d   1      -1.684  78.513 114.516  0.00  0.00    -0.047 C 
ATOM      6  C   LIG d   1      -0.954  77.900 115.733  0.00  0.00     0.091 C 
ENDROOT
BRANCH   1   7
ATOM      7  O   LIG d   1      -1.203  76.222 117.501  0.00  0.00    -0.368 OA
BRANCH   7   8
ATOM      8  C   LIG d   1      -1.069  74.866 117.008  0.00  0.00     0.119 C 
BRANCH   8   9
ATOM      9  C   LIG d   1      -0.624  73.985 118.191  0.00  0.00     0.028 C 
ATOM     10  C   LIG d   1       0.719  74.439 118.788  0.00  0.00     0.006 C 
ENDBRANCH   8   9
BRANCH   8  11
ATOM     11  C   LIG d   1       0.056  74.757 115.975  0.00  0.00     0.028 C 
ATOM     12  C   LIG d   1      -0.386  74.051 114.684  0.00  0.00     0.006 C 
ENDBRANCH   8  11
ENDBRANCH   7   8
ENDBRANCH   1   7
BRANCH   6  13
ATOM     13  N   LIG d   1      -0.266  78.926 116.558  0.00  0.00    -0.311 N 
ATOM     14  C   LIG d   1       0.957  78.764 117.059  0.00  0.00     0.210 C 
ATOM     15  C   LIG d   1       1.473  79.938 117.899  0.00  0.00     0.109 C 
ATOM     16  O   LIG d   1       1.677  77.774 116.862  0.00  0.00    -0.276 OA
ATOM     17  H   LIG d   1      -0.766  79.774 116.742  0.00  0.00     0.149 HD
ENDBRANCH   6  13
BRANCH   5  18
ATOM     18  N   LIG d   1      -0.767  79.151 113.553  0.00  0.00     0.381 N 
ATOM     19  H   LIG d   1       0.116  79.325 113.990  0.00  0.00    -0.090 HD
ATOM     20  H   LIG d   1      -1.157  80.032 113.267  0.00  0.00    -0.090 HD
ATOM     21  H   LIG d   1      -0.643  78.561 112.759  0.00  0.00    -0.090 HD
ENDBRANCH   5  18
BRANCH   3  22
ATOM     22  C   LIG d   1      -4.398  76.072 114.077  0.00  0.00     0.382 C 
ATOM     23  O   LIG d   1      -4.855  76.499 112.990  0.00  0.00    -0.241 OA
ATOM     24  O   LIG d   1      -5.006  75.172 114.687  0.00  0.00    -0.241 OA
ENDBRANCH   3  22
TORSDOF 7
ENDMDL
MODEL 3
REMARK VINA RESULT:      -4.7      2.805      4.282
REMARK  7 active torsions:
REMARK  status: ('A' for Active; 'I' for Inactive)
REMARK    1  A    between atoms: C_2  and  C_3 
REMARK    2  A    between atoms: C_3  and  O_6 
REMARK    3  A    between atoms: C_3  and  C_4 
REMARK    4  A    between atoms: C_7  and  O_6 
REMARK    5  A    between atoms: C_9  and  C_10 
REMARK    6  A    between atoms: N_15  and  C_14 
REMARK    7  A    between atoms: N_20  and  C_19 
REMARK       I    between atoms: C_22  and  N_20 
ROOT
ATOM      1  C   LIG d   1      -3.256  77.432 115.470  0.00  0.00     0.161 C 
ATOM      2  C   LIG d   1      -3.346  78.514 114.578  0.00  0.00     0.016 C 
ATOM      3  C   LIG d   1      -2.240  79.025 113.861  0.00  0.00     0.038 C 
ATOM      4  C   LIG d   1      -0.990  78.388 113.873  0.00  0.00     0.028 C 
ATOM      5  C   LIG d   1      -0.727  77.595 115.149  0.00  0.00    -0.047 C 
ATOM      6  C   LIG d   1      -1.925  76.655 115.412  0.00  0.00     0.091 C 
ENDROOT
BRANCH   1   7
ATOM      7  O   LIG d   1      -4.368  76.537 115.267  0.00  0.00    -0.368 OA
BRANCH   7   8
ATOM      8  C   LIG d   1      -5.612  76.910 115.911  0.00  0.00     0.119 C 
BRANCH   8   9
ATOM      9  C   LIG d   1      -5.316  77.108 117.410  0.00  0.00     0.028 C 
ATOM     10  C   LIG d   1      -6.342  78.026 118.094  0.00  0.00     0.006 C 
ENDBRANCH   8   9
BRANCH   8  11
ATOM     11  C   LIG d   1      -6.635  75.772 115.846  0.00  0.00     0.028 C 
ATOM     12  C   LIG d   1      -5.996  74.414 115.514  0.00  0.00     0.006 C 
ENDBRANCH   8  11
ENDBRANCH   7   8
ENDBRANCH   1   7
BRANCH   6  13
ATOM     13  N   LIG d   1      -1.786  75.903 116.686  0.00  0.00    -0.311 N 
ATOM     14  C   LIG d   1      -1.216  74.702 116.771  0.00  0.00     0.210 C 
ATOM     15  C   LIG d   1      -1.194  74.095 118.177  0.00  0.00     0.109 C 
ATOM     16  O   LIG d   1      -0.697  74.097 115.821  0.00  0.00    -0.276 OA
ATOM     17  H   LIG d   1      -2.152  76.334 117.512  0.00  0.00     0.149 HD
ENDBRANCH   6  13
BRANCH   5  18
ATOM     18  N   LIG d   1       0.547  76.873 114.969  0.00  0.00     0.381 N 
ATOM     19  H   LIG d   1       0.709  76.272 115.752  0.00  0.00    -0.090 HD
ATOM     20  H   LIG d   1       1.296  77.541 114.925  0.00  0.00    -0.090 HD
ATOM     21  H   LIG d   1       0.520  76.337 114.130  0.00  0.00    -0.090 HD
ENDBRANCH   5  18
BRANCH   3  22
ATOM     22  C   LIG d   1      -2.369  80.210 113.153  0.00  0.00     0.382 C 
ATOM     23  O   LIG d   1      -3.507  80.620 112.818  0.00  0.00    -0.241 OA
ATOM     24  O   LIG d   1      -1.359  80.851 112.805  0.00  0.00    -0.241 OA
ENDBRANCH   3  22
TORSDOF 7
ENDMDL
MODEL 4
REMARK VINA RESULT:      -4.7      2.772      5.508
REMARK  7 active torsions:
REMARK  status: ('A' for Active; 'I' for Inactive)
REMARK    1  A    between atoms: C_2  and  C_3 
REMARK    2  A    between atoms: C_3  and  O_6 
REMARK    3  A    between atoms: C_3  and  C_4 
REMARK    4  A    between atoms: C_7  and  O_6 
REMARK    5  A    between atoms: C_9  and  C_10 
REMARK    6  A    between atoms: N_15  and  C_14 
REMARK    7  A    between atoms: N_20  and  C_19 
REMARK       I    between atoms: C_22  and  N_20 
ROOT
ATOM      1  C   LIG d   1      -2.901  75.835 116.838  0.00  0.00     0.161 C 
ATOM      2  C   LIG d   1      -4.002  75.300 116.148  0.00  0.00     0.016 C 
ATOM      3  C   LIG d   1      -5.286  75.891 116.155  0.00  0.00     0.038 C 
ATOM      4  C   LIG d   1      -5.521  77.148 116.733  0.00  0.00     0.028 C 
ATOM      5  C   LIG d   1      -4.561  77.480 117.870  0.00  0.00    -0.047 C 
ATOM      6  C   LIG d   1      -3.111  77.263 117.382  0.00  0.00     0.091 C 
ENDROOT
BRANCH   1   7
ATOM      7  O   LIG d   1      -1.729  75.785 116.001  0.00  0.00    -0.368 OA
BRANCH   7   8
ATOM      8  C   LIG d   1      -0.889  74.613 116.149  0.00  0.00     0.119 C 
BRANCH   8   9
ATOM      9  C   LIG d   1       0.302  75.008 117.044  0.00  0.00     0.028 C 
ATOM     10  C   LIG d   1       0.177  74.445 118.470  0.00  0.00     0.006 C 
ENDBRANCH   8   9
BRANCH   8  11
ATOM     11  C   LIG d   1      -0.271  74.198 114.811  0.00  0.00     0.028 C 
ATOM     12  C   LIG d   1      -0.021  75.390 113.874  0.00  0.00     0.006 C 
ENDBRANCH   8  11
ENDBRANCH   7   8
ENDBRANCH   1   7
BRANCH   6  13
ATOM     13  N   LIG d   1      -2.111  77.485 118.460  0.00  0.00    -0.311 N 
ATOM     14  C   LIG d   1      -1.061  78.294 118.330  0.00  0.00     0.210 C 
ATOM     15  C   LIG d   1      -0.143  78.363 119.555  0.00  0.00     0.109 C 
ATOM     16  O   LIG d   1      -0.821  78.986 117.330  0.00  0.00    -0.276 OA
ATOM     17  H   LIG d   1      -2.247  76.987 119.317  0.00  0.00     0.149 HD
ENDBRANCH   6  13
BRANCH   5  18
ATOM     18  N   LIG d   1      -4.829  78.869 118.289  0.00  0.00     0.381 N 
ATOM     19  H   LIG d   1      -5.334  78.871 119.152  0.00  0.00    -0.090 HD
ATOM     20  H   LIG d   1      -5.397  79.315 117.590  0.00  0.00    -0.090 HD
ATOM     21  H   LIG d   1      -3.972  79.364 118.395  0.00  0.00    -0.090 HD
ENDBRANCH   5  18
BRANCH   3  22
ATOM     22  C   LIG d   1      -6.362  75.205 115.612  0.00  0.00     0.382 C 
ATOM     23  O   LIG d   1      -6.539  73.995 115.893  0.00  0.00    -0.241 OA
ATOM     24  O   LIG d   1      -7.131  75.767 114.811  0.00  0.00    -0.241 OA
ENDBRANCH   3  22
TORSDOF 7
ENDMDL
MODEL 5
REMARK VINA RESULT:      -4.6     21.322     23.590
REMARK  7 active torsions:
REMARK  status: ('A' for Active; 'I' for Inactive)
REMARK    1  A    between atoms: C_2  and  C_3 
REMARK    2  A    between atoms: C_3  and  O_6 
REMARK    3  A    between atoms: C_3  and  C_4 
REMARK    4  A    between atoms: C_7  and  O_6 
REMARK    5  A    between atoms: C_9  and  C_10 
REMARK    6  A    between atoms: N_15  and  C_14 
REMARK    7  A    between atoms: N_20  and  C_19 
REMARK       I    between atoms: C_22  and  N_20 
ROOT
ATOM      1  C   LIG d   1     -23.093  83.338 115.839  0.00  0.00     0.161 C 
ATOM      2  C   LIG d   1     -22.482  84.581 115.601  0.00  0.00     0.016 C 
ATOM      3  C   LIG d   1     -22.833  85.427 114.524  0.00  0.00     0.038 C 
ATOM      4  C   LIG d   1     -23.931  85.154 113.694  0.00  0.00     0.028 C 
ATOM      5  C   LIG d   1     -24.255  83.668 113.587  0.00  0.00    -0.047 C 
ATOM      6  C   LIG d   1     -24.367  83.075 115.010  0.00  0.00     0.091 C 
ENDROOT
BRANCH   1   7
ATOM      7  O   LIG d   1     -23.371  83.192 117.246  0.00  0.00    -0.368 OA
BRANCH   7   8
ATOM      8  C   LIG d   1     -22.634  84.067 118.135  0.00  0.00     0.119 C 
BRANCH   8   9
ATOM      9  C   LIG d   1     -22.015  83.189 119.240  0.00  0.00     0.028 C 
ATOM     10  C   LIG d   1     -21.011  82.166 118.682  0.00  0.00     0.006 C 
ENDBRANCH   8   9
BRANCH   8  11
ATOM     11  C   LIG d   1     -23.570  85.036 118.864  0.00  0.00     0.028 C 
ATOM     12  C   LIG d   1     -23.077  86.490 118.817  0.00  0.00     0.006 C 
ENDBRANCH   8  11
ENDBRANCH   7   8
ENDBRANCH   1   7
BRANCH   6  13
ATOM     13  N   LIG d   1     -24.600  81.607 114.996  0.00  0.00    -0.311 N 
ATOM     14  C   LIG d   1     -25.812  81.056 115.028  0.00  0.00     0.210 C 
ATOM     15  C   LIG d   1     -25.826  79.524 115.026  0.00  0.00     0.109 C 
ATOM     16  O   LIG d   1     -26.877  81.691 115.026  0.00  0.00    -0.276 OA
ATOM     17  H   LIG d   1     -23.791  81.018 114.967  0.00  0.00     0.149 HD
ENDBRANCH   6  13
BRANCH   5  18
ATOM     18  N   LIG d   1     -25.499  83.538 112.806  0.00  0.00     0.381 N 
ATOM     19  H   LIG d   1     -25.919  82.648 112.984  0.00  0.00    -0.090 HD
ATOM     20  H   LIG d   1     -25.276  83.592 111.828  0.00  0.00    -0.090 HD
ATOM     21  H   LIG d   1     -26.133  84.267 113.051  0.00  0.00    -0.090 HD
ENDBRANCH   5  18
BRANCH   3  22
ATOM     22  C   LIG d   1     -22.056  86.541 114.244  0.00  0.00     0.382 C 
ATOM     23  O   LIG d   1     -22.292  87.630 114.820  0.00  0.00    -0.241 OA
ATOM     24  O   LIG d   1     -21.151  86.482 113.391  0.00  0.00    -0.241 OA
ENDBRANCH   3  22
TORSDOF 7
ENDMDL
MODEL 6
REMARK VINA RESULT:      -4.5      2.598      3.715
REMARK  7 active torsions:
REMARK  status: ('A' for Active; 'I' for Inactive)
REMARK    1  A    between atoms: C_2  and  C_3 
REMARK    2  A    between atoms: C_3  and  O_6 
REMARK    3  A    between atoms: C_3  and  C_4 
REMARK    4  A    between atoms: C_7  and  O_6 
REMARK    5  A    between atoms: C_9  and  C_10 
REMARK    6  A    between atoms: N_15  and  C_14 
REMARK    7  A    between atoms: N_20  and  C_19 
REMARK       I    between atoms: C_22  and  N_20 
ROOT
ATOM      1  C   LIG d   1      -4.704  76.633 116.393  0.00  0.00     0.161 C 
ATOM      2  C   LIG d   1      -5.580  77.452 117.125  0.00  0.00     0.016 C 
ATOM      3  C   LIG d   1      -5.158  78.302 118.173  0.00  0.00     0.038 C 
ATOM      4  C   LIG d   1      -3.800  78.503 118.463  0.00  0.00     0.028 C 
ATOM      5  C   LIG d   1      -2.918  77.317 118.087  0.00  0.00    -0.047 C 
ATOM      6  C   LIG d   1      -3.206  76.922 116.621  0.00  0.00     0.091 C 
ENDROOT
BRANCH   1   7
ATOM      7  O   LIG d   1      -5.022  76.709 114.989  0.00  0.00    -0.368 OA
BRANCH   7   8
ATOM      8  C   LIG d   1      -5.742  75.580 114.436  0.00  0.00     0.119 C 
BRANCH   8   9
ATOM      9  C   LIG d   1      -7.210  76.012 114.254  0.00  0.00     0.028 C 
ATOM     10  C   LIG d   1      -7.526  76.421 112.806  0.00  0.00     0.006 C 
ENDBRANCH   8   9
BRANCH   8  11
ATOM     11  C   LIG d   1      -5.783  74.409 115.422  0.00  0.00     0.028 C 
ATOM     12  C   LIG d   1      -7.168  74.216 116.061  0.00  0.00     0.006 C 
ENDBRANCH   8  11
ENDBRANCH   7   8
ENDBRANCH   1   7
BRANCH   6  13
ATOM     13  N   LIG d   1      -2.446  75.717 116.199  0.00  0.00    -0.311 N 
ATOM     14  C   LIG d   1      -1.284  75.772 115.551  0.00  0.00     0.210 C 
ATOM     15  C   LIG d   1      -0.678  74.412 115.191  0.00  0.00     0.109 C 
ATOM     16  O   LIG d   1      -0.681  76.819 115.268  0.00  0.00    -0.276 OA
ATOM     17  H   LIG d   1      -2.847  74.825 116.415  0.00  0.00     0.149 HD
ENDBRANCH   6  13
BRANCH   5  18
ATOM     18  N   LIG d   1      -1.516  77.715 118.314  0.00  0.00     0.381 N 
ATOM     19  H   LIG d   1      -0.979  76.918 118.596  0.00  0.00    -0.090 HD
ATOM     20  H   LIG d   1      -1.486  78.393 119.055  0.00  0.00    -0.090 HD
ATOM     21  H   LIG d   1      -1.133  78.105 117.481  0.00  0.00    -0.090 HD
ENDBRANCH   5  18
BRANCH   3  22
ATOM     22  C   LIG d   1      -6.102  78.930 118.971  0.00  0.00     0.382 C 
ATOM     23  O   LIG d   1      -5.894  80.095 119.389  0.00  0.00    -0.241 OA
ATOM     24  O   LIG d   1      -7.138  78.331 119.315  0.00  0.00    -0.241 OA
ENDBRANCH   3  22
TORSDOF 7
ENDMDL
MODEL 7
REMARK VINA RESULT:      -4.5     15.230     17.589
REMARK  7 active torsions:
REMARK  status: ('A' for Active; 'I' for Inactive)
REMARK    1  A    between atoms: C_2  and  C_3 
REMARK    2  A    between atoms: C_3  and  O_6 
REMARK    3  A    between atoms: C_3  and  C_4 
REMARK    4  A    between atoms: C_7  and  O_6 
REMARK    5  A    between atoms: C_9  and  C_10 
REMARK    6  A    between atoms: N_15  and  C_14 
REMARK    7  A    between atoms: N_20  and  C_19 
REMARK       I    between atoms: C_22  and  N_20 
ROOT
ATOM      1  C   LIG d   1      -3.340  92.082 118.574  0.00  0.00     0.161 C 
ATOM      2  C   LIG d   1      -2.674  90.849 118.473  0.00  0.00     0.016 C 
ATOM      3  C   LIG d   1      -3.298  89.662 118.025  0.00  0.00     0.038 C 
ATOM      4  C   LIG d   1      -4.599  89.661 117.500  0.00  0.00     0.028 C 
ATOM      5  C   LIG d   1      -5.476  90.780 118.052  0.00  0.00    -0.047 C 
ATOM      6  C   LIG d   1      -4.728  92.124 117.901  0.00  0.00     0.091 C 
ENDROOT
BRANCH   1   7
ATOM      7  O   LIG d   1      -2.501  93.134 118.058  0.00  0.00    -0.368 OA
BRANCH   7   8
ATOM      8  C   LIG d   1      -1.702  93.848 119.034  0.00  0.00     0.119 C 
BRANCH   8   9
ATOM      9  C   LIG d   1      -2.193  95.309 119.054  0.00  0.00     0.028 C 
ATOM     10  C   LIG d   1      -1.226  96.263 118.332  0.00  0.00     0.006 C 
ENDBRANCH   8   9
BRANCH   8  11
ATOM     11  C   LIG d   1      -0.233  93.920 118.606  0.00  0.00     0.028 C 
ATOM     12  C   LIG d   1       0.636  92.845 119.277  0.00  0.00     0.006 C 
ENDBRANCH   8  11
ENDBRANCH   7   8
ENDBRANCH   1   7
BRANCH   6  13
ATOM     13  N   LIG d   1      -5.480  93.261 118.494  0.00  0.00    -0.311 N 
ATOM     14  C   LIG d   1      -6.445  93.917 117.850  0.00  0.00     0.210 C 
ATOM     15  C   LIG d   1      -7.078  95.070 118.635  0.00  0.00     0.109 C 
ATOM     16  O   LIG d   1      -6.858  93.632 116.716  0.00  0.00    -0.276 OA
ATOM     17  H   LIG d   1      -5.231  93.539 119.423  0.00  0.00     0.149 HD
ENDBRANCH   6  13
BRANCH   5  18
ATOM     18  N   LIG d   1      -6.756  90.745 117.321  0.00  0.00     0.381 N 
ATOM     19  H   LIG d   1      -7.516  90.705 117.970  0.00  0.00    -0.090 HD
ATOM     20  H   LIG d   1      -6.783  89.918 116.752  0.00  0.00    -0.090 HD
ATOM     21  H   LIG d   1      -6.843  91.555 116.746  0.00  0.00    -0.090 HD
ENDBRANCH   5  18
BRANCH   3  22
ATOM     22  C   LIG d   1      -2.632  88.451 118.137  0.00  0.00     0.382 C 
ATOM     23  O   LIG d   1      -1.674  88.190 117.370  0.00  0.00    -0.241 OA
ATOM     24  O   LIG d   1      -3.005  87.599 118.965  0.00  0.00    -0.241 OA
ENDBRANCH   3  22
TORSDOF 7
ENDMDL
MODEL 8
REMARK VINA RESULT:      -4.4     16.269     18.956
REMARK  7 active torsions:
REMARK  status: ('A' for Active; 'I' for Inactive)
REMARK    1  A    between atoms: C_2  and  C_3 
REMARK    2  A    between atoms: C_3  and  O_6 
REMARK    3  A    between atoms: C_3  and  C_4 
REMARK    4  A    between atoms: C_7  and  O_6 
REMARK    5  A    between atoms: C_9  and  C_10 
REMARK    6  A    between atoms: N_15  and  C_14 
REMARK    7  A    between atoms: N_20  and  C_19 
REMARK       I    between atoms: C_22  and  N_20 
ROOT
ATOM      1  C   LIG d   1     -16.750  65.124 116.372  0.00  0.00     0.161 C 
ATOM      2  C   LIG d   1     -15.807  64.383 117.103  0.00  0.00     0.016 C 
ATOM      3  C   LIG d   1     -15.819  62.971 117.183  0.00  0.00     0.038 C 
ATOM      4  C   LIG d   1     -16.692  62.192 116.408  0.00  0.00     0.028 C 
ATOM      5  C   LIG d   1     -17.987  62.912 116.046  0.00  0.00    -0.047 C 
ATOM      6  C   LIG d   1     -17.642  64.287 115.431  0.00  0.00     0.091 C 
ENDROOT
BRANCH   1   7
ATOM      7  O   LIG d   1     -16.085  66.169 115.635  0.00  0.00    -0.368 OA
BRANCH   7   8
ATOM      8  C   LIG d   1     -15.451  67.203 116.426  0.00  0.00     0.119 C 
BRANCH   8   9
ATOM      9  C   LIG d   1     -16.547  67.868 117.282  0.00  0.00     0.028 C 
ATOM     10  C   LIG d   1     -16.252  67.775 118.789  0.00  0.00     0.006 C 
ENDBRANCH   8   9
BRANCH   8  11
ATOM     11  C   LIG d   1     -14.895  68.321 115.540  0.00  0.00     0.028 C 
ATOM     12  C   LIG d   1     -15.012  68.006 114.040  0.00  0.00     0.006 C 
ENDBRANCH   8  11
ENDBRANCH   7   8
ENDBRANCH   1   7
BRANCH   6  13
ATOM     13  N   LIG d   1     -18.853  65.092 115.126  0.00  0.00    -0.311 N 
ATOM     14  C   LIG d   1     -19.491  65.044 113.958  0.00  0.00     0.210 C 
ATOM     15  C   LIG d   1     -20.706  65.969 113.845  0.00  0.00     0.109 C 
ATOM     16  O   LIG d   1     -19.184  64.299 113.015  0.00  0.00    -0.276 OA
ATOM     17  H   LIG d   1     -19.190  65.701 115.846  0.00  0.00     0.149 HD
ENDBRANCH   6  13
BRANCH   5  18
ATOM     18  N   LIG d   1     -18.740  62.039 115.126  0.00  0.00     0.381 N 
ATOM     19  H   LIG d   1     -19.383  61.475 115.644  0.00  0.00    -0.090 HD
ATOM     20  H   LIG d   1     -18.094  61.429 114.655  0.00  0.00    -0.090 HD
ATOM     21  H   LIG d   1     -19.233  62.591 114.459  0.00  0.00    -0.090 HD
ENDBRANCH   5  18
BRANCH   3  22
ATOM     22  C   LIG d   1     -14.977  62.326 118.076  0.00  0.00     0.382 C 
ATOM     23  O   LIG d   1     -15.457  61.724 119.067  0.00  0.00    -0.241 OA
ATOM     24  O   LIG d   1     -13.742  62.375 117.927  0.00  0.00    -0.241 OA
ENDBRANCH   3  22
TORSDOF 7
ENDMDL
MODEL 9
REMARK VINA RESULT:      -4.4      4.451      6.206
REMARK  7 active torsions:
REMARK  status: ('A' for Active; 'I' for Inactive)
REMARK    1  A    between atoms: C_2  and  C_3 
REMARK    2  A    between atoms: C_3  and  O_6 
REMARK    3  A    between atoms: C_3  and  C_4 
REMARK    4  A    between atoms: C_7  and  O_6 
REMARK    5  A    between atoms: C_9  and  C_10 
REMARK    6  A    between atoms: N_15  and  C_14 
REMARK    7  A    between atoms: N_20  and  C_19 
REMARK       I    between atoms: C_22  and  N_20 
ROOT
ATOM      1  C   LIG d   1      -7.183  76.850 117.360  0.00  0.00     0.161 C 
ATOM      2  C   LIG d   1      -8.446  77.245 117.830  0.00  0.00     0.016 C 
ATOM      3  C   LIG d   1      -8.638  78.292 118.762  0.00  0.00     0.038 C 
ATOM      4  C   LIG d   1      -7.583  79.120 119.174  0.00  0.00     0.028 C 
ATOM      5  C   LIG d   1      -6.220  78.439 119.115  0.00  0.00    -0.047 C 
ATOM      6  C   LIG d   1      -6.031  77.815 117.713  0.00  0.00     0.091 C 
ENDROOT
BRANCH   1   7
ATOM      7  O   LIG d   1      -7.237  76.635 115.936  0.00  0.00    -0.368 OA
BRANCH   7   8
ATOM      8  C   LIG d   1      -7.222  75.254 115.500  0.00  0.00     0.119 C 
BRANCH   8   9
ATOM      9  C   LIG d   1      -7.571  74.379 116.719  0.00  0.00     0.028 C 
ATOM     10  C   LIG d   1      -7.277  72.889 116.476  0.00  0.00     0.006 C 
ENDBRANCH   8   9
BRANCH   8  11
ATOM     11  C   LIG d   1      -5.816  74.818 115.077  0.00  0.00     0.028 C 
ATOM     12  C   LIG d   1      -5.282  75.614 113.875  0.00  0.00     0.006 C 
ENDBRANCH   8  11
ENDBRANCH   7   8
ENDBRANCH   1   7
BRANCH   6  13
ATOM     13  N   LIG d   1      -4.758  77.056 117.597  0.00  0.00    -0.311 N 
ATOM     14  C   LIG d   1      -3.802  77.359 116.722  0.00  0.00     0.210 C 
ATOM     15  C   LIG d   1      -2.579  76.437 116.755  0.00  0.00     0.109 C 
ATOM     16  O   LIG d   1      -3.836  78.323 115.942  0.00  0.00    -0.276 OA
ATOM     17  H   LIG d   1      -4.634  76.277 118.214  0.00  0.00     0.149 HD
ENDBRANCH   6  13
BRANCH   5  18
ATOM     18  N   LIG d   1      -5.200  79.455 119.437  0.00  0.00     0.381 N 
ATOM     19  H   LIG d   1      -4.578  79.569 118.662  0.00  0.00    -0.090 HD
ATOM     20  H   LIG d   1      -4.665  79.139 120.227  0.00  0.00    -0.090 HD
ATOM     21  H   LIG d   1      -5.639  80.324 119.650  0.00  0.00    -0.090 HD
ENDBRANCH   5  18
BRANCH   3  22
ATOM     22  C   LIG d   1      -9.891  78.493 119.321  0.00  0.00     0.382 C 
ATOM     23  O   LIG d   1     -10.638  77.512 119.555  0.00  0.00    -0.241 OA
ATOM     24  O   LIG d   1     -10.300  79.646 119.555  0.00  0.00    -0.241 OA
ENDBRANCH   3  22
TORSDOF 7
ENDMDL
