MODEL 1
REMARK VINA RESULT:      -5.8      0.000      0.000
REMARK  7 active torsions:
REMARK  status: ('A' for Active; 'I' for Inactive)
REMARK    1  A    between atoms: C_2  and  C_3 
REMARK    2  A    between atoms: C_3  and  O_6 
REMARK    3  A    between atoms: C_3  and  C_4 
REMARK    4  A    between atoms: C_7  and  O_6 
REMARK    5  A    between atoms: C_9  and  C_10 
REMARK    6  A    between atoms: N_15  and  C_14 
REMARK    7  A    between atoms: N_20  and  C_19 
REMARK       I    between atoms: C_22  and  N_20 
ROOT
ATOM      1  C   LIG d   1      -7.151  75.991 117.605  0.00  0.00     0.161 C 
ATOM      2  C   LIG d   1      -8.227  76.892 117.676  0.00  0.00     0.016 C 
ATOM      3  C   LIG d   1      -8.067  78.297 117.672  0.00  0.00     0.038 C 
ATOM      4  C   LIG d   1      -6.822  78.901 117.442  0.00  0.00     0.028 C 
ATOM      5  C   LIG d   1      -5.641  78.036 117.870  0.00  0.00    -0.047 C 
ATOM      6  C   LIG d   1      -5.795  76.631 117.242  0.00  0.00     0.091 C 
ENDROOT
BRANCH   1   7
ATOM      7  O   LIG d   1      -7.465  74.927 116.685  0.00  0.00    -0.368 OA
BRANCH   7   8
ATOM      8  C   LIG d   1      -7.780  73.643 117.279  0.00  0.00     0.119 C 
BRANCH   8   9
ATOM      9  C   LIG d   1      -6.829  72.601 116.659  0.00  0.00     0.028 C 
ATOM     10  C   LIG d   1      -6.452  72.941 115.207  0.00  0.00     0.006 C 
ENDBRANCH   8   9
BRANCH   8  11
ATOM     11  C   LIG d   1      -9.190  73.184 116.898  0.00  0.00     0.028 C 
ATOM     12  C   LIG d   1      -9.382  71.666 117.044  0.00  0.00     0.006 C 
ENDBRANCH   8  11
ENDBRANCH   7   8
ENDBRANCH   1   7
BRANCH   6  13
ATOM     13  N   LIG d   1      -4.725  75.696 117.678  0.00  0.00    -0.311 N 
ATOM     14  C   LIG d   1      -3.853  75.138 116.839  0.00  0.00     0.210 C 
ATOM     15  C   LIG d   1      -2.845  74.188 117.493  0.00  0.00     0.109 C 
ATOM     16  O   LIG d   1      -3.798  75.366 115.621  0.00  0.00    -0.276 OA
ATOM     17  H   LIG d   1      -4.677  75.480 118.654  0.00  0.00     0.149 HD
ENDBRANCH   6  13
BRANCH   5  18
ATOM     18  N   LIG d   1      -4.408  78.726 117.448  0.00  0.00     0.381 N 
ATOM     19  H   LIG d   1      -3.650  78.460 118.044  0.00  0.00    -0.090 HD
ATOM     20  H   LIG d   1      -4.544  79.717 117.534  0.00  0.00    -0.090 HD
ATOM     21  H   LIG d   1      -4.193  78.494 116.503  0.00  0.00    -0.090 HD
ENDBRANCH   5  18
BRANCH   3  22
ATOM     22  C   LIG d   1      -9.156  79.113 117.939  0.00  0.00     0.382 C 
ATOM     23  O   LIG d   1     -10.274  78.603 118.193  0.00  0.00    -0.241 OA
ATOM     24  O   LIG d   1      -9.044  80.352 117.886  0.00  0.00    -0.241 OA
ENDBRANCH   3  22
TORSDOF 7
ENDMDL
MODEL 2
REMARK VINA RESULT:      -5.0      2.176      3.210
REMARK  7 active torsions:
REMARK  status: ('A' for Active; 'I' for Inactive)
REMARK    1  A    between atoms: C_2  and  C_3 
REMARK    2  A    between atoms: C_3  and  O_6 
REMARK    3  A    between atoms: C_3  and  C_4 
REMARK    4  A    between atoms: C_7  and  O_6 
REMARK    5  A    between atoms: C_9  and  C_10 
REMARK    6  A    between atoms: N_15  and  C_14 
REMARK    7  A    between atoms: N_20  and  C_19 
REMARK       I    between atoms: C_22  and  N_20 
ROOT
ATOM      1  C   LIG d   1      -6.246  77.881 117.563  0.00  0.00     0.161 C 
ATOM      2  C   LIG d   1      -7.617  77.787 117.853  0.00  0.00     0.016 C 
ATOM      3  C   LIG d   1      -8.464  78.912 117.983  0.00  0.00     0.038 C 
ATOM      4  C   LIG d   1      -8.024  80.209 117.680  0.00  0.00     0.028 C 
ATOM      5  C   LIG d   1      -6.524  80.402 117.875  0.00  0.00    -0.047 C 
ATOM      6  C   LIG d   1      -5.773  79.281 117.120  0.00  0.00     0.091 C 
ENDROOT
BRANCH   1   7
ATOM      7  O   LIG d   1      -5.887  76.895 116.574  0.00  0.00    -0.368 OA
BRANCH   7   8
ATOM      8  C   LIG d   1      -6.246  75.525 116.880  0.00  0.00     0.119 C 
BRANCH   8   9
ATOM      9  C   LIG d   1      -5.104  74.924 117.722  0.00  0.00     0.028 C 
ATOM     10  C   LIG d   1      -3.728  75.108 117.061  0.00  0.00     0.006 C 
ENDBRANCH   8   9
BRANCH   8  11
ATOM     11  C   LIG d   1      -6.308  74.669 115.612  0.00  0.00     0.028 C 
ATOM     12  C   LIG d   1      -6.830  73.248 115.878  0.00  0.00     0.006 C 
ENDBRANCH   8  11
ENDBRANCH   7   8
ENDBRANCH   1   7
BRANCH   6  13
ATOM     13  N   LIG d   1      -4.302  79.346 117.327  0.00  0.00    -0.311 N 
ATOM     14  C   LIG d   1      -3.475  79.996 116.511  0.00  0.00     0.210 C 
ATOM     15  C   LIG d   1      -1.994  79.920 116.896  0.00  0.00     0.109 C 
ATOM     16  O   LIG d   1      -3.830  80.655 115.522  0.00  0.00    -0.276 OA
ATOM     17  H   LIG d   1      -3.932  78.864 118.123  0.00  0.00     0.149 HD
ENDBRANCH   6  13
BRANCH   5  18
ATOM     18  N   LIG d   1      -6.182  81.753 117.393  0.00  0.00     0.381 N 
ATOM     19  H   LIG d   1      -5.407  81.702 116.762  0.00  0.00    -0.090 HD
ATOM     20  H   LIG d   1      -5.912  82.319 118.178  0.00  0.00    -0.090 HD
ATOM     21  H   LIG d   1      -6.967  82.161 116.935  0.00  0.00    -0.090 HD
ENDBRANCH   5  18
BRANCH   3  22
ATOM     22  C   LIG d   1      -9.756  78.748 118.458  0.00  0.00     0.382 C 
ATOM     23  O   LIG d   1     -10.205  79.526 119.334  0.00  0.00    -0.241 OA
ATOM     24  O   LIG d   1     -10.463  77.805 118.055  0.00  0.00    -0.241 OA
ENDBRANCH   3  22
TORSDOF 7
ENDMDL
MODEL 3
REMARK VINA RESULT:      -4.9      2.039      2.612
REMARK  7 active torsions:
REMARK  status: ('A' for Active; 'I' for Inactive)
REMARK    1  A    between atoms: C_2  and  C_3 
REMARK    2  A    between atoms: C_3  and  O_6 
REMARK    3  A    between atoms: C_3  and  C_4 
REMARK    4  A    between atoms: C_7  and  O_6 
REMARK    5  A    between atoms: C_9  and  C_10 
REMARK    6  A    between atoms: N_15  and  C_14 
REMARK    7  A    between atoms: N_20  and  C_19 
REMARK       I    between atoms: C_22  and  N_20 
ROOT
ATOM      1  C   LIG d   1      -5.306  77.496 117.006  0.00  0.00     0.161 C 
ATOM      2  C   LIG d   1      -6.137  78.608 117.223  0.00  0.00     0.016 C 
ATOM      3  C   LIG d   1      -5.670  79.942 117.209  0.00  0.00     0.038 C 
ATOM      4  C   LIG d   1      -4.360  80.266 116.825  0.00  0.00     0.028 C 
ATOM      5  C   LIG d   1      -3.358  79.147 117.089  0.00  0.00    -0.047 C 
ATOM      6  C   LIG d   1      -3.897  77.835 116.476  0.00  0.00     0.091 C 
ENDROOT
BRANCH   1   7
ATOM      7  O   LIG d   1      -5.961  76.561 116.126  0.00  0.00    -0.368 OA
BRANCH   7   8
ATOM      8  C   LIG d   1      -6.199  75.237 116.666  0.00  0.00     0.119 C 
BRANCH   8   9
ATOM      9  C   LIG d   1      -6.101  74.237 115.498  0.00  0.00     0.028 C 
ATOM     10  C   LIG d   1      -5.433  74.849 114.255  0.00  0.00     0.006 C 
ENDBRANCH   8   9
BRANCH   8  11
ATOM     11  C   LIG d   1      -7.629  75.101 117.197  0.00  0.00     0.028 C 
ATOM     12  C   LIG d   1      -8.227  73.708 116.947  0.00  0.00     0.006 C 
ENDBRANCH   8  11
ENDBRANCH   7   8
ENDBRANCH   1   7
BRANCH   6  13
ATOM     13  N   LIG d   1      -3.017  76.672 116.762  0.00  0.00    -0.311 N 
ATOM     14  C   LIG d   1      -2.296  76.051 115.830  0.00  0.00     0.210 C 
ATOM     15  C   LIG d   1      -1.472  74.862 116.334  0.00  0.00     0.109 C 
ATOM     16  O   LIG d   1      -2.235  76.393 114.639  0.00  0.00    -0.276 OA
ATOM     17  H   LIG d   1      -2.982  76.348 117.709  0.00  0.00     0.149 HD
ENDBRANCH   6  13
BRANCH   5  18
ATOM     18  N   LIG d   1      -2.064  79.564 116.516  0.00  0.00     0.381 N 
ATOM     19  H   LIG d   1      -1.964  79.187 115.595  0.00  0.00    -0.090 HD
ATOM     20  H   LIG d   1      -1.323  79.199 117.089  0.00  0.00    -0.090 HD
ATOM     21  H   LIG d   1      -2.010  80.558 116.484  0.00  0.00    -0.090 HD
ENDBRANCH   5  18
BRANCH   3  22
ATOM     22  C   LIG d   1      -6.508  80.968 117.621  0.00  0.00     0.382 C 
ATOM     23  O   LIG d   1      -7.562  81.209 116.986  0.00  0.00    -0.241 OA
ATOM     24  O   LIG d   1      -6.200  81.683 118.593  0.00  0.00    -0.241 OA
ENDBRANCH   3  22
TORSDOF 7
ENDMDL
MODEL 4
REMARK VINA RESULT:      -4.7     13.359     16.071
REMARK  7 active torsions:
REMARK  status: ('A' for Active; 'I' for Inactive)
REMARK    1  A    between atoms: C_2  and  C_3 
REMARK    2  A    between atoms: C_3  and  O_6 
REMARK    3  A    between atoms: C_3  and  C_4 
REMARK    4  A    between atoms: C_7  and  O_6 
REMARK    5  A    between atoms: C_9  and  C_10 
REMARK    6  A    between atoms: N_15  and  C_14 
REMARK    7  A    between atoms: N_20  and  C_19 
REMARK       I    between atoms: C_22  and  N_20 
ROOT
ATOM      1  C   LIG d   1       0.311  90.065 116.343  0.00  0.00     0.161 C 
ATOM      2  C   LIG d   1       1.540  90.639 116.707  0.00  0.00     0.016 C 
ATOM      3  C   LIG d   1       1.677  91.595 117.740  0.00  0.00     0.038 C 
ATOM      4  C   LIG d   1       0.609  91.931 118.586  0.00  0.00     0.028 C 
ATOM      5  C   LIG d   1      -0.758  91.756 117.934  0.00  0.00    -0.047 C 
ATOM      6  C   LIG d   1      -0.846  90.337 117.328  0.00  0.00     0.091 C 
ENDROOT
BRANCH   1   7
ATOM      7  O   LIG d   1       0.474  88.647 116.141  0.00  0.00    -0.368 OA
BRANCH   7   8
ATOM      8  C   LIG d   1       0.863  87.878 117.306  0.00  0.00     0.119 C 
BRANCH   8   9
ATOM      9  C   LIG d   1       2.130  87.085 116.935  0.00  0.00     0.028 C 
ATOM     10  C   LIG d   1       2.437  87.139 115.429  0.00  0.00     0.006 C 
ENDBRANCH   8   9
BRANCH   8  11
ATOM     11  C   LIG d   1      -0.191  86.822 117.653  0.00  0.00     0.028 C 
ATOM     12  C   LIG d   1      -1.145  86.526 116.485  0.00  0.00     0.006 C 
ENDBRANCH   8  11
ENDBRANCH   7   8
ENDBRANCH   1   7
BRANCH   6  13
ATOM     13  N   LIG d   1      -2.121  90.111 116.597  0.00  0.00    -0.311 N 
ATOM     14  C   LIG d   1      -3.178  89.506 117.136  0.00  0.00     0.210 C 
ATOM     15  C   LIG d   1      -4.384  89.358 116.203  0.00  0.00     0.109 C 
ATOM     16  O   LIG d   1      -3.243  89.108 118.309  0.00  0.00    -0.276 OA
ATOM     17  H   LIG d   1      -2.166  90.431 115.649  0.00  0.00     0.149 HD
ENDBRANCH   6  13
BRANCH   5  18
ATOM     18  N   LIG d   1      -1.780  92.008 118.967  0.00  0.00     0.381 N 
ATOM     19  H   LIG d   1      -1.695  92.946 119.305  0.00  0.00    -0.090 HD
ATOM     20  H   LIG d   1      -1.626  91.380 119.736  0.00  0.00    -0.090 HD
ATOM     21  H   LIG d   1      -2.690  91.865 118.588  0.00  0.00    -0.090 HD
ENDBRANCH   5  18
BRANCH   3  22
ATOM     22  C   LIG d   1       2.885  92.255 117.910  0.00  0.00     0.382 C 
ATOM     23  O   LIG d   1       3.676  92.373 116.943  0.00  0.00    -0.241 OA
ATOM     24  O   LIG d   1       3.213  92.695 119.028  0.00  0.00    -0.241 OA
ENDBRANCH   3  22
TORSDOF 7
ENDMDL
MODEL 5
REMARK VINA RESULT:      -4.6     12.389     15.017
REMARK  7 active torsions:
REMARK  status: ('A' for Active; 'I' for Inactive)
REMARK    1  A    between atoms: C_2  and  C_3 
REMARK    2  A    between atoms: C_3  and  O_6 
REMARK    3  A    between atoms: C_3  and  C_4 
REMARK    4  A    between atoms: C_7  and  O_6 
REMARK    5  A    between atoms: C_9  and  C_10 
REMARK    6  A    between atoms: N_15  and  C_14 
REMARK    7  A    between atoms: N_20  and  C_19 
REMARK       I    between atoms: C_22  and  N_20 
ROOT
ATOM      1  C   LIG d   1      -1.467  89.276 118.582  0.00  0.00     0.161 C 
ATOM      2  C   LIG d   1      -2.792  89.082 118.156  0.00  0.00     0.016 C 
ATOM      3  C   LIG d   1      -3.549  90.074 117.491  0.00  0.00     0.038 C 
ATOM      4  C   LIG d   1      -2.978  91.284 117.071  0.00  0.00     0.028 C 
ATOM      5  C   LIG d   1      -1.792  91.724 117.923  0.00  0.00    -0.047 C 
ATOM      6  C   LIG d   1      -0.792  90.550 118.034  0.00  0.00     0.091 C 
ENDROOT
BRANCH   1   7
ATOM      7  O   LIG d   1      -0.676  88.114 118.265  0.00  0.00    -0.368 OA
BRANCH   7   8
ATOM      8  C   LIG d   1      -0.609  87.752 116.864  0.00  0.00     0.119 C 
BRANCH   8   9
ATOM      9  C   LIG d   1      -0.892  86.240 116.762  0.00  0.00     0.028 C 
ATOM     10  C   LIG d   1      -2.071  85.926 115.825  0.00  0.00     0.006 C 
ENDBRANCH   8   9
BRANCH   8  11
ATOM     11  C   LIG d   1       0.806  87.937 116.307  0.00  0.00     0.028 C 
ATOM     12  C   LIG d   1       1.892  87.805 117.386  0.00  0.00     0.006 C 
ENDBRANCH   8  11
ENDBRANCH   7   8
ENDBRANCH   1   7
BRANCH   6  13
ATOM     13  N   LIG d   1       0.358  90.867 118.921  0.00  0.00    -0.311 N 
ATOM     14  C   LIG d   1       1.519  91.345 118.474  0.00  0.00     0.210 C 
ATOM     15  C   LIG d   1       2.578  91.584 119.555  0.00  0.00     0.109 C 
ATOM     16  O   LIG d   1       1.760  91.623 117.290  0.00  0.00    -0.276 OA
ATOM     17  H   LIG d   1       0.238  90.701 119.900  0.00  0.00     0.149 HD
ENDBRANCH   6  13
BRANCH   5  18
ATOM     18  N   LIG d   1      -1.209  92.923 117.293  0.00  0.00     0.381 N 
ATOM     19  H   LIG d   1      -1.142  92.787 116.304  0.00  0.00    -0.090 HD
ATOM     20  H   LIG d   1      -0.283  93.064 117.656  0.00  0.00    -0.090 HD
ATOM     21  H   LIG d   1      -1.775  93.720 117.487  0.00  0.00    -0.090 HD
ENDBRANCH   5  18
BRANCH   3  22
ATOM     22  C   LIG d   1      -4.904  89.875 117.276  0.00  0.00     0.382 C 
ATOM     23  O   LIG d   1      -5.740  90.305 118.107  0.00  0.00    -0.241 OA
ATOM     24  O   LIG d   1      -5.299  89.233 116.285  0.00  0.00    -0.241 OA
ENDBRANCH   3  22
TORSDOF 7
ENDMDL
MODEL 6
REMARK VINA RESULT:      -4.5     13.221     15.186
REMARK  7 active torsions:
REMARK  status: ('A' for Active; 'I' for Inactive)
REMARK    1  A    between atoms: C_2  and  C_3 
REMARK    2  A    between atoms: C_3  and  O_6 
REMARK    3  A    between atoms: C_3  and  C_4 
REMARK    4  A    between atoms: C_7  and  O_6 
REMARK    5  A    between atoms: C_9  and  C_10 
REMARK    6  A    between atoms: N_15  and  C_14 
REMARK    7  A    between atoms: N_20  and  C_19 
REMARK       I    between atoms: C_22  and  N_20 
ROOT
ATOM      1  C   LIG d   1       1.564  87.985 115.895  0.00  0.00     0.161 C 
ATOM      2  C   LIG d   1       0.273  87.894 116.443  0.00  0.00     0.016 C 
ATOM      3  C   LIG d   1      -0.378  88.973 117.084  0.00  0.00     0.038 C 
ATOM      4  C   LIG d   1       0.161  90.268 117.088  0.00  0.00     0.028 C 
ATOM      5  C   LIG d   1       1.683  90.290 116.991  0.00  0.00    -0.047 C 
ATOM      6  C   LIG d   1       2.123  89.420 115.792  0.00  0.00     0.091 C 
ENDROOT
BRANCH   1   7
ATOM      7  O   LIG d   1       1.595  87.341 114.606  0.00  0.00    -0.368 OA
BRANCH   7   8
ATOM      8  C   LIG d   1       2.099  85.983 114.584  0.00  0.00     0.119 C 
BRANCH   8   9
ATOM      9  C   LIG d   1       3.471  86.011 113.881  0.00  0.00     0.028 C 
ATOM     10  C   LIG d   1       4.636  85.785 114.860  0.00  0.00     0.006 C 
ENDBRANCH   8   9
BRANCH   8  11
ATOM     11  C   LIG d   1       1.219  85.076 113.719  0.00  0.00     0.028 C 
ATOM     12  C   LIG d   1      -0.151  85.698 113.406  0.00  0.00     0.006 C 
ENDBRANCH   8  11
ENDBRANCH   7   8
ENDBRANCH   1   7
BRANCH   6  13
ATOM     13  N   LIG d   1       3.601  89.320 115.676  0.00  0.00    -0.311 N 
ATOM     14  C   LIG d   1       4.266  89.561 114.548  0.00  0.00     0.210 C 
ATOM     15  C   LIG d   1       5.784  89.380 114.641  0.00  0.00     0.109 C 
ATOM     16  O   LIG d   1       3.746  89.939 113.487  0.00  0.00    -0.276 OA
ATOM     17  H   LIG d   1       4.105  89.049 116.498  0.00  0.00     0.149 HD
ENDBRANCH   6  13
BRANCH   5  18
ATOM     18  N   LIG d   1       2.100  91.700 116.866  0.00  0.00     0.381 N 
ATOM     19  H   LIG d   1       2.341  92.063 117.767  0.00  0.00    -0.090 HD
ATOM     20  H   LIG d   1       1.331  92.236 116.505  0.00  0.00    -0.090 HD
ATOM     21  H   LIG d   1       2.882  91.771 116.252  0.00  0.00    -0.090 HD
ENDBRANCH   5  18
BRANCH   3  22
ATOM     22  C   LIG d   1      -1.565  88.751 117.765  0.00  0.00     0.382 C 
ATOM     23  O   LIG d   1      -1.646  89.021 118.988  0.00  0.00    -0.241 OA
ATOM     24  O   LIG d   1      -2.543  88.244 117.183  0.00  0.00    -0.241 OA
ENDBRANCH   3  22
TORSDOF 7
ENDMDL
MODEL 7
REMARK VINA RESULT:      -4.4     11.584     13.939
REMARK  7 active torsions:
REMARK  status: ('A' for Active; 'I' for Inactive)
REMARK    1  A    between atoms: C_2  and  C_3 
REMARK    2  A    between atoms: C_3  and  O_6 
REMARK    3  A    between atoms: C_3  and  C_4 
REMARK    4  A    between atoms: C_7  and  O_6 
REMARK    5  A    between atoms: C_9  and  C_10 
REMARK    6  A    between atoms: N_15  and  C_14 
REMARK    7  A    between atoms: N_20  and  C_19 
REMARK       I    between atoms: C_22  and  N_20 
ROOT
ATOM      1  C   LIG d   1      -1.273  88.531 117.287  0.00  0.00     0.161 C 
ATOM      2  C   LIG d   1      -2.674  88.629 117.274  0.00  0.00     0.016 C 
ATOM      3  C   LIG d   1      -3.368  89.861 117.262  0.00  0.00     0.038 C 
ATOM      4  C   LIG d   1      -2.702  91.086 117.108  0.00  0.00     0.028 C 
ATOM      5  C   LIG d   1      -1.267  91.064 117.625  0.00  0.00    -0.047 C 
ATOM      6  C   LIG d   1      -0.529  89.854 117.007  0.00  0.00     0.091 C 
ENDROOT
BRANCH   1   7
ATOM      7  O   LIG d   1      -0.845  87.512 116.362  0.00  0.00    -0.368 OA
BRANCH   7   8
ATOM      8  C   LIG d   1      -1.314  86.168 116.633  0.00  0.00     0.119 C 
BRANCH   8   9
ATOM      9  C   LIG d   1      -0.146  85.389 117.268  0.00  0.00     0.028 C 
ATOM     10  C   LIG d   1       1.210  85.747 116.637  0.00  0.00     0.006 C 
ENDBRANCH   8   9
BRANCH   8  11
ATOM     11  C   LIG d   1      -1.643  85.420 115.338  0.00  0.00     0.028 C 
ATOM     12  C   LIG d   1      -2.096  83.972 115.584  0.00  0.00     0.006 C 
ENDBRANCH   8  11
ENDBRANCH   7   8
ENDBRANCH   1   7
BRANCH   6  13
ATOM     13  N   LIG d   1       0.856  89.710 117.526  0.00  0.00    -0.311 N 
ATOM     14  C   LIG d   1       1.916  89.517 116.742  0.00  0.00     0.210 C 
ATOM     15  C   LIG d   1       3.249  89.375 117.482  0.00  0.00     0.109 C 
ATOM     16  O   LIG d   1       1.882  89.483 115.503  0.00  0.00    -0.276 OA
ATOM     17  H   LIG d   1       0.979  89.757 118.518  0.00  0.00     0.149 HD
ENDBRANCH   6  13
BRANCH   5  18
ATOM     18  N   LIG d   1      -0.649  92.357 117.278  0.00  0.00     0.381 N 
ATOM     19  H   LIG d   1       0.314  92.357 117.552  0.00  0.00    -0.090 HD
ATOM     20  H   LIG d   1      -1.120  93.088 117.781  0.00  0.00    -0.090 HD
ATOM     21  H   LIG d   1      -0.722  92.518 116.298  0.00  0.00    -0.090 HD
ENDBRANCH   5  18
BRANCH   3  22
ATOM     22  C   LIG d   1      -4.742  89.877 117.444  0.00  0.00     0.382 C 
ATOM     23  O   LIG d   1      -5.226  90.285 118.528  0.00  0.00    -0.241 OA
ATOM     24  O   LIG d   1      -5.503  89.448 116.556  0.00  0.00    -0.241 OA
ENDBRANCH   3  22
TORSDOF 7
ENDMDL
MODEL 8
REMARK VINA RESULT:      -4.3     17.827     20.625
REMARK  7 active torsions:
REMARK  status: ('A' for Active; 'I' for Inactive)
REMARK    1  A    between atoms: C_2  and  C_3 
REMARK    2  A    between atoms: C_3  and  O_6 
REMARK    3  A    between atoms: C_3  and  C_4 
REMARK    4  A    between atoms: C_7  and  O_6 
REMARK    5  A    between atoms: C_9  and  C_10 
REMARK    6  A    between atoms: N_15  and  C_14 
REMARK    7  A    between atoms: N_20  and  C_19 
REMARK       I    between atoms: C_22  and  N_20 
ROOT
ATOM      1  C   LIG d   1      -0.500  56.882 117.995  0.00  0.00     0.161 C 
ATOM      2  C   LIG d   1      -0.077  57.780 117.001  0.00  0.00     0.016 C 
ATOM      3  C   LIG d   1      -0.856  58.873 116.557  0.00  0.00     0.038 C 
ATOM      4  C   LIG d   1      -2.056  59.232 117.188  0.00  0.00     0.028 C 
ATOM      5  C   LIG d   1      -2.764  58.059 117.858  0.00  0.00    -0.047 C 
ATOM      6  C   LIG d   1      -1.758  57.323 118.772  0.00  0.00     0.091 C 
ENDROOT
BRANCH   1   7
ATOM      7  O   LIG d   1       0.584  56.615 118.907  0.00  0.00    -0.368 OA
BRANCH   7   8
ATOM      8  C   LIG d   1       1.601  55.696 118.436  0.00  0.00     0.119 C 
BRANCH   8   9
ATOM      9  C   LIG d   1       0.896  54.378 118.063  0.00  0.00     0.028 C 
ATOM     10  C   LIG d   1       1.068  54.021 116.577  0.00  0.00     0.006 C 
ENDBRANCH   8   9
BRANCH   8  11
ATOM     11  C   LIG d   1       2.580  55.329 119.555  0.00  0.00     0.028 C 
ATOM     12  C   LIG d   1       3.864  54.668 119.029  0.00  0.00     0.006 C 
ENDBRANCH   8  11
ENDBRANCH   7   8
ENDBRANCH   1   7
BRANCH   6  13
ATOM     13  N   LIG d   1      -2.345  56.112 119.402  0.00  0.00    -0.311 N 
ATOM     14  C   LIG d   1      -2.827  55.084 118.705  0.00  0.00     0.210 C 
ATOM     15  C   LIG d   1      -3.406  53.945 119.550  0.00  0.00     0.109 C 
ATOM     16  O   LIG d   1      -2.801  54.993 117.469  0.00  0.00    -0.276 OA
ATOM     17  H   LIG d   1      -2.378  56.088 120.402  0.00  0.00     0.149 HD
ENDBRANCH   6  13
BRANCH   5  18
ATOM     18  N   LIG d   1      -3.924  58.599 118.592  0.00  0.00     0.381 N 
ATOM     19  H   LIG d   1      -4.500  57.847 118.914  0.00  0.00    -0.090 HD
ATOM     20  H   LIG d   1      -4.468  59.168 117.967  0.00  0.00    -0.090 HD
ATOM     21  H   LIG d   1      -3.615  59.145 119.365  0.00  0.00    -0.090 HD
ENDBRANCH   5  18
BRANCH   3  22
ATOM     22  C   LIG d   1      -0.455  59.595 115.443  0.00  0.00     0.382 C 
ATOM     23  O   LIG d   1       0.678  60.133 115.420  0.00  0.00    -0.241 OA
ATOM     24  O   LIG d   1      -1.229  59.753 114.480  0.00  0.00    -0.241 OA
ENDBRANCH   3  22
TORSDOF 7
ENDMDL
MODEL 9
REMARK VINA RESULT:      -4.2     13.074     15.463
REMARK  7 active torsions:
REMARK  status: ('A' for Active; 'I' for Inactive)
REMARK    1  A    between atoms: C_2  and  C_3 
REMARK    2  A    between atoms: C_3  and  O_6 
REMARK    3  A    between atoms: C_3  and  C_4 
REMARK    4  A    between atoms: C_7  and  O_6 
REMARK    5  A    between atoms: C_9  and  C_10 
REMARK    6  A    between atoms: N_15  and  C_14 
REMARK    7  A    between atoms: N_20  and  C_19 
REMARK       I    between atoms: C_22  and  N_20 
ROOT
ATOM      1  C   LIG d   1      -0.148  89.394 117.288  0.00  0.00     0.161 C 
ATOM      2  C   LIG d   1      -1.547  89.404 117.155  0.00  0.00     0.016 C 
ATOM      3  C   LIG d   1      -2.343  90.550 117.383  0.00  0.00     0.038 C 
ATOM      4  C   LIG d   1      -1.776  91.812 117.615  0.00  0.00     0.028 C 
ATOM      5  C   LIG d   1      -0.393  91.747 118.255  0.00  0.00    -0.047 C 
ATOM      6  C   LIG d   1       0.497  90.789 117.431  0.00  0.00     0.091 C 
ENDROOT
BRANCH   1   7
ATOM      7  O   LIG d   1       0.442  88.680 116.185  0.00  0.00    -0.368 OA
BRANCH   7   8
ATOM      8  C   LIG d   1       0.860  87.319 116.457  0.00  0.00     0.119 C 
BRANCH   8   9
ATOM      9  C   LIG d   1       2.389  87.259 116.278  0.00  0.00     0.028 C 
ATOM     10  C   LIG d   1       2.851  87.906 114.961  0.00  0.00     0.006 C 
ENDBRANCH   8   9
BRANCH   8  11
ATOM     11  C   LIG d   1       0.292  86.344 115.422  0.00  0.00     0.028 C 
ATOM     12  C   LIG d   1      -1.151  85.918 115.734  0.00  0.00     0.006 C 
ENDBRANCH   8  11
ENDBRANCH   7   8
ENDBRANCH   1   7
BRANCH   6  13
ATOM     13  N   LIG d   1       1.841  90.602 118.037  0.00  0.00    -0.311 N 
ATOM     14  C   LIG d   1       2.978  90.818 117.378  0.00  0.00     0.210 C 
ATOM     15  C   LIG d   1       4.253  90.546 118.183  0.00  0.00     0.109 C 
ATOM     16  O   LIG d   1       3.053  91.239 116.214  0.00  0.00    -0.276 OA
ATOM     17  H   LIG d   1       1.874  90.292 118.988  0.00  0.00     0.149 HD
ENDBRANCH   6  13
BRANCH   5  18
ATOM     18  N   LIG d   1       0.136  93.122 118.313  0.00  0.00     0.381 N 
ATOM     19  H   LIG d   1      -0.430  93.678 118.922  0.00  0.00    -0.090 HD
ATOM     20  H   LIG d   1       0.098  93.524 117.393  0.00  0.00    -0.090 HD
ATOM     21  H   LIG d   1       1.078  93.112 118.639  0.00  0.00    -0.090 HD
ENDBRANCH   5  18
BRANCH   3  22
ATOM     22  C   LIG d   1      -3.724  90.431 117.421  0.00  0.00     0.382 C 
ATOM     23  O   LIG d   1      -4.275  89.816 118.365  0.00  0.00    -0.241 OA
ATOM     24  O   LIG d   1      -4.423  90.893 116.499  0.00  0.00    -0.241 OA
ENDBRANCH   3  22
TORSDOF 7
ENDMDL
