MODEL 1
REMARK VINA RESULT:      -5.0      0.000      0.000
REMARK  7 active torsions:
REMARK  status: ('A' for Active; 'I' for Inactive)
REMARK    1  A    between atoms: C_2  and  C_3 
REMARK    2  A    between atoms: C_3  and  O_6 
REMARK    3  A    between atoms: C_3  and  C_4 
REMARK    4  A    between atoms: C_7  and  O_6 
REMARK    5  A    between atoms: C_9  and  C_10 
REMARK    6  A    between atoms: N_15  and  C_14 
REMARK    7  A    between atoms: N_20  and  C_19 
REMARK       I    between atoms: C_22  and  N_20 
ROOT
ATOM      1  C   LIG d   1     -17.484  64.962 116.469  0.00  0.00     0.161 C 
ATOM      2  C   LIG d   1     -16.399  64.457 117.206  0.00  0.00     0.016 C 
ATOM      3  C   LIG d   1     -16.017  63.096 117.196  0.00  0.00     0.038 C 
ATOM      4  C   LIG d   1     -16.607  62.167 116.325  0.00  0.00     0.028 C 
ATOM      5  C   LIG d   1     -18.037  62.525 115.936  0.00  0.00    -0.047 C 
ATOM      6  C   LIG d   1     -18.069  63.985 115.428  0.00  0.00     0.091 C 
ENDROOT
BRANCH   1   7
ATOM      7  O   LIG d   1     -17.111  66.203 115.838  0.00  0.00    -0.368 OA
BRANCH   7   8
ATOM      8  C   LIG d   1     -15.714  66.342 115.481  0.00  0.00     0.119 C 
BRANCH   8   9
ATOM      9  C   LIG d   1     -15.276  67.767 115.872  0.00  0.00     0.028 C 
ATOM     10  C   LIG d   1     -16.394  68.551 116.579  0.00  0.00     0.006 C 
ENDBRANCH   8   9
BRANCH   8  11
ATOM     11  C   LIG d   1     -15.515  66.258 113.965  0.00  0.00     0.028 C 
ATOM     12  C   LIG d   1     -15.343  67.637 113.310  0.00  0.00     0.006 C 
ENDBRANCH   8  11
ENDBRANCH   7   8
ENDBRANCH   1   7
BRANCH   6  13
ATOM     13  N   LIG d   1     -19.445  64.443 115.106  0.00  0.00    -0.311 N 
ATOM     14  C   LIG d   1     -19.808  64.884 113.902  0.00  0.00     0.210 C 
ATOM     15  C   LIG d   1     -21.270  65.327 113.789  0.00  0.00     0.109 C 
ATOM     16  O   LIG d   1     -19.066  64.920 112.909  0.00  0.00    -0.276 OA
ATOM     17  H   LIG d   1     -20.120  64.417 115.845  0.00  0.00     0.149 HD
ENDBRANCH   6  13
BRANCH   5  18
ATOM     18  N   LIG d   1     -18.480  61.550 114.921  0.00  0.00     0.381 N 
ATOM     19  H   LIG d   1     -18.496  61.984 114.019  0.00  0.00    -0.090 HD
ATOM     20  H   LIG d   1     -19.413  61.250 115.143  0.00  0.00    -0.090 HD
ATOM     21  H   LIG d   1     -17.865  60.766 114.910  0.00  0.00    -0.090 HD
ENDBRANCH   5  18
BRANCH   3  22
ATOM     22  C   LIG d   1     -15.062  62.643 118.093  0.00  0.00     0.382 C 
ATOM     23  O   LIG d   1     -15.247  61.571 118.718  0.00  0.00    -0.241 OA
ATOM     24  O   LIG d   1     -14.039  63.316 118.320  0.00  0.00    -0.241 OA
ENDBRANCH   3  22
TORSDOF 7
ENDMDL
MODEL 2
REMARK VINA RESULT:      -4.9      2.553      5.959
REMARK  7 active torsions:
REMARK  status: ('A' for Active; 'I' for Inactive)
REMARK    1  A    between atoms: C_2  and  C_3 
REMARK    2  A    between atoms: C_3  and  O_6 
REMARK    3  A    between atoms: C_3  and  C_4 
REMARK    4  A    between atoms: C_7  and  O_6 
REMARK    5  A    between atoms: C_9  and  C_10 
REMARK    6  A    between atoms: N_15  and  C_14 
REMARK    7  A    between atoms: N_20  and  C_19 
REMARK       I    between atoms: C_22  and  N_20 
ROOT
ATOM      1  C   LIG d   1     -16.293  64.697 116.496  0.00  0.00     0.161 C 
ATOM      2  C   LIG d   1     -16.332  65.986 115.940  0.00  0.00     0.016 C 
ATOM      3  C   LIG d   1     -15.612  67.083 116.468  0.00  0.00     0.038 C 
ATOM      4  C   LIG d   1     -14.680  66.928 117.504  0.00  0.00     0.028 C 
ATOM      5  C   LIG d   1     -14.984  65.748 118.421  0.00  0.00    -0.047 C 
ATOM      6  C   LIG d   1     -15.195  64.483 117.559  0.00  0.00     0.091 C 
ENDROOT
BRANCH   1   7
ATOM      7  O   LIG d   1     -16.171  63.716 115.446  0.00  0.00    -0.368 OA
BRANCH   7   8
ATOM      8  C   LIG d   1     -17.266  62.775 115.323  0.00  0.00     0.119 C 
BRANCH   8   9
ATOM      9  C   LIG d   1     -18.448  63.330 116.141  0.00  0.00     0.028 C 
ATOM     10  C   LIG d   1     -19.650  63.702 115.258  0.00  0.00     0.006 C 
ENDBRANCH   8   9
BRANCH   8  11
ATOM     11  C   LIG d   1     -16.921  61.431 115.970  0.00  0.00     0.028 C 
ATOM     12  C   LIG d   1     -18.068  60.412 115.875  0.00  0.00     0.006 C 
ENDBRANCH   8  11
ENDBRANCH   7   8
ENDBRANCH   1   7
BRANCH   6  13
ATOM     13  N   LIG d   1     -15.580  63.300 118.372  0.00  0.00    -0.311 N 
ATOM     14  C   LIG d   1     -14.722  62.349 118.735  0.00  0.00     0.210 C 
ATOM     15  C   LIG d   1     -15.331  61.207 119.554  0.00  0.00     0.109 C 
ATOM     16  O   LIG d   1     -13.508  62.358 118.482  0.00  0.00    -0.276 OA
ATOM     17  H   LIG d   1     -16.541  63.229 118.647  0.00  0.00     0.149 HD
ENDBRANCH   6  13
BRANCH   5  18
ATOM     18  N   LIG d   1     -13.861  65.620 119.370  0.00  0.00     0.381 N 
ATOM     19  H   LIG d   1     -14.033  66.187 120.176  0.00  0.00    -0.090 HD
ATOM     20  H   LIG d   1     -13.022  65.949 118.927  0.00  0.00    -0.090 HD
ATOM     21  H   LIG d   1     -13.752  64.668 119.642  0.00  0.00    -0.090 HD
ENDBRANCH   5  18
BRANCH   3  22
ATOM     22  C   LIG d   1     -15.852  68.360 115.983  0.00  0.00     0.382 C 
ATOM     23  O   LIG d   1     -16.721  69.084 116.527  0.00  0.00    -0.241 OA
ATOM     24  O   LIG d   1     -15.243  68.780 114.982  0.00  0.00    -0.241 OA
ENDBRANCH   3  22
TORSDOF 7
ENDMDL
MODEL 3
REMARK VINA RESULT:      -4.7      1.833      4.942
REMARK  7 active torsions:
REMARK  status: ('A' for Active; 'I' for Inactive)
REMARK    1  A    between atoms: C_2  and  C_3 
REMARK    2  A    between atoms: C_3  and  O_6 
REMARK    3  A    between atoms: C_3  and  C_4 
REMARK    4  A    between atoms: C_7  and  O_6 
REMARK    5  A    between atoms: C_9  and  C_10 
REMARK    6  A    between atoms: N_15  and  C_14 
REMARK    7  A    between atoms: N_20  and  C_19 
REMARK       I    between atoms: C_22  and  N_20 
ROOT
ATOM      1  C   LIG d   1     -15.862  64.217 115.427  0.00  0.00     0.161 C 
ATOM      2  C   LIG d   1     -16.916  64.470 114.534  0.00  0.00     0.016 C 
ATOM      3  C   LIG d   1     -18.240  64.023 114.746  0.00  0.00     0.038 C 
ATOM      4  C   LIG d   1     -18.635  63.417 115.949  0.00  0.00     0.028 C 
ATOM      5  C   LIG d   1     -17.499  62.692 116.663  0.00  0.00    -0.047 C 
ATOM      6  C   LIG d   1     -16.296  63.654 116.797  0.00  0.00     0.091 C 
ENDROOT
BRANCH   1   7
ATOM      7  O   LIG d   1     -15.073  65.410 115.604  0.00  0.00    -0.368 OA
BRANCH   7   8
ATOM      8  C   LIG d   1     -15.801  66.607 115.973  0.00  0.00     0.119 C 
BRANCH   8   9
ATOM      9  C   LIG d   1     -15.119  67.798 115.274  0.00  0.00     0.028 C 
ATOM     10  C   LIG d   1     -15.206  67.707 113.741  0.00  0.00     0.006 C 
ENDBRANCH   8   9
BRANCH   8  11
ATOM     11  C   LIG d   1     -15.678  66.893 117.473  0.00  0.00     0.028 C 
ATOM     12  C   LIG d   1     -14.242  66.732 117.995  0.00  0.00     0.006 C 
ENDBRANCH   8  11
ENDBRANCH   7   8
ENDBRANCH   1   7
BRANCH   6  13
ATOM     13  N   LIG d   1     -15.111  62.998 117.410  0.00  0.00    -0.311 N 
ATOM     14  C   LIG d   1     -14.816  63.080 118.706  0.00  0.00     0.210 C 
ATOM     15  C   LIG d   1     -13.539  62.346 119.126  0.00  0.00     0.109 C 
ATOM     16  O   LIG d   1     -15.508  63.664 119.553  0.00  0.00    -0.276 OA
ATOM     17  H   LIG d   1     -14.512  62.477 116.800  0.00  0.00     0.149 HD
ENDBRANCH   6  13
BRANCH   5  18
ATOM     18  N   LIG d   1     -18.015  62.227 117.964  0.00  0.00     0.381 N 
ATOM     19  H   LIG d   1     -17.693  61.297 118.143  0.00  0.00    -0.090 HD
ATOM     20  H   LIG d   1     -19.019  62.212 117.928  0.00  0.00    -0.090 HD
ATOM     21  H   LIG d   1     -17.710  62.837 118.690  0.00  0.00    -0.090 HD
ENDBRANCH   5  18
BRANCH   3  22
ATOM     22  C   LIG d   1     -19.178  64.145 113.732  0.00  0.00     0.382 C 
ATOM     23  O   LIG d   1     -19.053  65.047 112.868  0.00  0.00    -0.241 OA
ATOM     24  O   LIG d   1     -20.170  63.393 113.695  0.00  0.00    -0.241 OA
ENDBRANCH   3  22
TORSDOF 7
ENDMDL
MODEL 4
REMARK VINA RESULT:      -4.5     28.063     30.484
REMARK  7 active torsions:
REMARK  status: ('A' for Active; 'I' for Inactive)
REMARK    1  A    between atoms: C_2  and  C_3 
REMARK    2  A    between atoms: C_3  and  O_6 
REMARK    3  A    between atoms: C_3  and  C_4 
REMARK    4  A    between atoms: C_7  and  O_6 
REMARK    5  A    between atoms: C_9  and  C_10 
REMARK    6  A    between atoms: N_15  and  C_14 
REMARK    7  A    between atoms: N_20  and  C_19 
REMARK       I    between atoms: C_22  and  N_20 
ROOT
ATOM      1  C   LIG d   1       1.756  87.573 116.400  0.00  0.00     0.161 C 
ATOM      2  C   LIG d   1       0.450  87.534 116.916  0.00  0.00     0.016 C 
ATOM      3  C   LIG d   1      -0.173  88.638 117.542  0.00  0.00     0.038 C 
ATOM      4  C   LIG d   1       0.418  89.910 117.561  0.00  0.00     0.028 C 
ATOM      5  C   LIG d   1       1.941  89.871 117.500  0.00  0.00    -0.047 C 
ATOM      6  C   LIG d   1       2.374  88.984 116.311  0.00  0.00     0.091 C 
ENDROOT
BRANCH   1   7
ATOM      7  O   LIG d   1       1.792  86.928 115.111  0.00  0.00    -0.368 OA
BRANCH   7   8
ATOM      8  C   LIG d   1       2.128  85.519 115.112  0.00  0.00     0.119 C 
BRANCH   8   9
ATOM      9  C   LIG d   1       3.655  85.408 115.293  0.00  0.00     0.028 C 
ATOM     10  C   LIG d   1       4.415  85.567 113.966  0.00  0.00     0.006 C 
ENDBRANCH   8   9
BRANCH   8  11
ATOM     11  C   LIG d   1       1.832  84.874 113.755  0.00  0.00     0.028 C 
ATOM     12  C   LIG d   1       0.462  85.279 113.190  0.00  0.00     0.006 C 
ENDBRANCH   8  11
ENDBRANCH   7   8
ENDBRANCH   1   7
BRANCH   6  13
ATOM     13  N   LIG d   1       3.850  88.824 116.231  0.00  0.00    -0.311 N 
ATOM     14  C   LIG d   1       4.572  89.206 115.179  0.00  0.00     0.210 C 
ATOM     15  C   LIG d   1       6.075  88.932 115.293  0.00  0.00     0.109 C 
ATOM     16  O   LIG d   1       4.116  89.776 114.177  0.00  0.00    -0.276 OA
ATOM     17  H   LIG d   1       4.306  88.399 117.014  0.00  0.00     0.149 HD
ENDBRANCH   6  13
BRANCH   5  18
ATOM     18  N   LIG d   1       2.418  91.263 117.387  0.00  0.00     0.381 N 
ATOM     19  H   LIG d   1       2.460  91.681 118.295  0.00  0.00    -0.090 HD
ATOM     20  H   LIG d   1       1.767  91.785 116.828  0.00  0.00    -0.090 HD
ATOM     21  H   LIG d   1       3.320  91.281 116.963  0.00  0.00    -0.090 HD
ENDBRANCH   5  18
BRANCH   3  22
ATOM     22  C   LIG d   1      -1.384  88.465 118.195  0.00  0.00     0.382 C 
ATOM     23  O   LIG d   1      -2.357  89.207 117.918  0.00  0.00    -0.241 OA
ATOM     24  O   LIG d   1      -1.503  87.605 119.089  0.00  0.00    -0.241 OA
ENDBRANCH   3  22
TORSDOF 7
ENDMDL
MODEL 5
REMARK VINA RESULT:      -4.5      1.024      2.079
REMARK  7 active torsions:
REMARK  status: ('A' for Active; 'I' for Inactive)
REMARK    1  A    between atoms: C_2  and  C_3 
REMARK    2  A    between atoms: C_3  and  O_6 
REMARK    3  A    between atoms: C_3  and  C_4 
REMARK    4  A    between atoms: C_7  and  O_6 
REMARK    5  A    between atoms: C_9  and  C_10 
REMARK    6  A    between atoms: N_15  and  C_14 
REMARK    7  A    between atoms: N_20  and  C_19 
REMARK       I    between atoms: C_22  and  N_20 
ROOT
ATOM      1  C   LIG d   1     -17.017  64.871 116.858  0.00  0.00     0.161 C 
ATOM      2  C   LIG d   1     -15.970  64.247 117.557  0.00  0.00     0.016 C 
ATOM      3  C   LIG d   1     -15.701  62.861 117.481  0.00  0.00     0.038 C 
ATOM      4  C   LIG d   1     -16.372  62.024 116.577  0.00  0.00     0.028 C 
ATOM      5  C   LIG d   1     -17.772  62.514 116.222  0.00  0.00    -0.047 C 
ATOM      6  C   LIG d   1     -17.689  63.993 115.781  0.00  0.00     0.091 C 
ENDROOT
BRANCH   1   7
ATOM      7  O   LIG d   1     -16.550  66.105 116.278  0.00  0.00    -0.368 OA
BRANCH   7   8
ATOM      8  C   LIG d   1     -17.038  67.323 116.893  0.00  0.00     0.119 C 
BRANCH   8   9
ATOM      9  C   LIG d   1     -16.252  68.498 116.280  0.00  0.00     0.028 C 
ATOM     10  C   LIG d   1     -14.946  68.044 115.607  0.00  0.00     0.006 C 
ENDBRANCH   8   9
BRANCH   8  11
ATOM     11  C   LIG d   1     -16.718  67.358 118.390  0.00  0.00     0.028 C 
ATOM     12  C   LIG d   1     -17.824  68.029 119.220  0.00  0.00     0.006 C 
ENDBRANCH   8  11
ENDBRANCH   7   8
ENDBRANCH   1   7
BRANCH   6  13
ATOM     13  N   LIG d   1     -19.026  64.576 115.497  0.00  0.00    -0.311 N 
ATOM     14  C   LIG d   1     -19.440  64.900 114.273  0.00  0.00     0.210 C 
ATOM     15  C   LIG d   1     -20.845  65.505 114.204  0.00  0.00     0.109 C 
ATOM     16  O   LIG d   1     -18.788  64.715 113.234  0.00  0.00    -0.276 OA
ATOM     17  H   LIG d   1     -19.632  64.731 116.279  0.00  0.00     0.149 HD
ENDBRANCH   6  13
BRANCH   5  18
ATOM     18  N   LIG d   1     -18.301  61.626 115.170  0.00  0.00     0.381 N 
ATOM     19  H   LIG d   1     -17.975  60.692 115.319  0.00  0.00    -0.090 HD
ATOM     20  H   LIG d   1     -17.962  61.940 114.278  0.00  0.00    -0.090 HD
ATOM     21  H   LIG d   1     -19.298  61.643 115.180  0.00  0.00    -0.090 HD
ENDBRANCH   5  18
BRANCH   3  22
ATOM     22  C   LIG d   1     -14.778  62.292 118.345  0.00  0.00     0.382 C 
ATOM     23  O   LIG d   1     -13.580  62.666 118.318  0.00  0.00    -0.241 OA
ATOM     24  O   LIG d   1     -15.118  61.379 119.121  0.00  0.00    -0.241 OA
ENDBRANCH   3  22
TORSDOF 7
ENDMDL
MODEL 6
REMARK VINA RESULT:      -4.5      2.585      4.615
REMARK  7 active torsions:
REMARK  status: ('A' for Active; 'I' for Inactive)
REMARK    1  A    between atoms: C_2  and  C_3 
REMARK    2  A    between atoms: C_3  and  O_6 
REMARK    3  A    between atoms: C_3  and  C_4 
REMARK    4  A    between atoms: C_7  and  O_6 
REMARK    5  A    between atoms: C_9  and  C_10 
REMARK    6  A    between atoms: N_15  and  C_14 
REMARK    7  A    between atoms: N_20  and  C_19 
REMARK       I    between atoms: C_22  and  N_20 
ROOT
ATOM      1  C   LIG d   1     -17.320  65.189 116.469  0.00  0.00     0.161 C 
ATOM      2  C   LIG d   1     -16.058  65.379 117.056  0.00  0.00     0.016 C 
ATOM      3  C   LIG d   1     -15.714  66.527 117.806  0.00  0.00     0.038 C 
ATOM      4  C   LIG d   1     -16.664  67.500 118.151  0.00  0.00     0.028 C 
ATOM      5  C   LIG d   1     -17.816  67.599 117.157  0.00  0.00    -0.047 C 
ATOM      6  C   LIG d   1     -18.403  66.188 116.926  0.00  0.00     0.091 C 
ENDROOT
BRANCH   1   7
ATOM      7  O   LIG d   1     -17.762  63.835 116.688  0.00  0.00    -0.368 OA
BRANCH   7   8
ATOM      8  C   LIG d   1     -17.690  62.948 115.545  0.00  0.00     0.119 C 
BRANCH   8   9
ATOM      9  C   LIG d   1     -19.134  62.564 115.165  0.00  0.00     0.028 C 
ATOM     10  C   LIG d   1     -19.625  63.302 113.908  0.00  0.00     0.006 C 
ENDBRANCH   8   9
BRANCH   8  11
ATOM     11  C   LIG d   1     -17.002  61.628 115.907  0.00  0.00     0.028 C 
ATOM     12  C   LIG d   1     -16.274  61.686 117.259  0.00  0.00     0.006 C 
ENDBRANCH   8  11
ENDBRANCH   7   8
ENDBRANCH   1   7
BRANCH   6  13
ATOM     13  N   LIG d   1     -19.481  66.182 115.903  0.00  0.00    -0.311 N 
ATOM     14  C   LIG d   1     -20.774  66.303 116.200  0.00  0.00     0.210 C 
ATOM     15  C   LIG d   1     -21.721  66.252 114.997  0.00  0.00     0.109 C 
ATOM     16  O   LIG d   1     -21.224  66.480 117.342  0.00  0.00    -0.276 OA
ATOM     17  H   LIG d   1     -19.203  66.075 114.948  0.00  0.00     0.149 HD
ENDBRANCH   6  13
BRANCH   5  18
ATOM     18  N   LIG d   1     -18.799  68.551 117.708  0.00  0.00     0.381 N 
ATOM     19  H   LIG d   1     -18.472  69.488 117.580  0.00  0.00    -0.090 HD
ATOM     20  H   LIG d   1     -18.897  68.383 118.694  0.00  0.00    -0.090 HD
ATOM     21  H   LIG d   1     -19.679  68.434 117.255  0.00  0.00    -0.090 HD
ENDBRANCH   5  18
BRANCH   3  22
ATOM     22  C   LIG d   1     -14.396  66.729 118.188  0.00  0.00     0.382 C 
ATOM     23  O   LIG d   1     -14.034  66.462 119.359  0.00  0.00    -0.241 OA
ATOM     24  O   LIG d   1     -13.575  67.216 117.388  0.00  0.00    -0.241 OA
ENDBRANCH   3  22
TORSDOF 7
ENDMDL
MODEL 7
REMARK VINA RESULT:      -4.4      2.202      4.416
REMARK  7 active torsions:
REMARK  status: ('A' for Active; 'I' for Inactive)
REMARK    1  A    between atoms: C_2  and  C_3 
REMARK    2  A    between atoms: C_3  and  O_6 
REMARK    3  A    between atoms: C_3  and  C_4 
REMARK    4  A    between atoms: C_7  and  O_6 
REMARK    5  A    between atoms: C_9  and  C_10 
REMARK    6  A    between atoms: N_15  and  C_14 
REMARK    7  A    between atoms: N_20  and  C_19 
REMARK       I    between atoms: C_22  and  N_20 
ROOT
ATOM      1  C   LIG d   1     -16.710  64.206 116.851  0.00  0.00     0.161 C 
ATOM      2  C   LIG d   1     -17.261  62.915 116.908  0.00  0.00     0.016 C 
ATOM      3  C   LIG d   1     -18.136  62.398 115.924  0.00  0.00     0.038 C 
ATOM      4  C   LIG d   1     -18.400  63.087 114.731  0.00  0.00     0.028 C 
ATOM      5  C   LIG d   1     -18.267  64.601 114.864  0.00  0.00    -0.047 C 
ATOM      6  C   LIG d   1     -16.899  64.931 115.502  0.00  0.00     0.091 C 
ENDROOT
BRANCH   1   7
ATOM      7  O   LIG d   1     -15.313  64.156 117.202  0.00  0.00    -0.368 OA
BRANCH   7   8
ATOM      8  C   LIG d   1     -14.951  64.767 118.465  0.00  0.00     0.119 C 
BRANCH   8   9
ATOM      9  C   LIG d   1     -14.587  63.631 119.441  0.00  0.00     0.028 C 
ATOM     10  C   LIG d   1     -14.016  62.399 118.720  0.00  0.00     0.006 C 
ENDBRANCH   8   9
BRANCH   8  11
ATOM     11  C   LIG d   1     -16.147  65.481 119.102  0.00  0.00     0.028 C 
ATOM     12  C   LIG d   1     -15.889  66.976 119.344  0.00  0.00     0.006 C 
ENDBRANCH   8  11
ENDBRANCH   7   8
ENDBRANCH   1   7
BRANCH   6  13
ATOM     13  N   LIG d   1     -16.722  66.386 115.745  0.00  0.00    -0.311 N 
ATOM     14  C   LIG d   1     -15.692  67.088 115.276  0.00  0.00     0.210 C 
ATOM     15  C   LIG d   1     -15.692  68.571 115.660  0.00  0.00     0.109 C 
ATOM     16  O   LIG d   1     -14.794  66.630 114.553  0.00  0.00    -0.276 OA
ATOM     17  H   LIG d   1     -17.421  66.844 116.296  0.00  0.00     0.149 HD
ENDBRANCH   6  13
BRANCH   5  18
ATOM     18  N   LIG d   1     -18.434  65.182 113.519  0.00  0.00     0.381 N 
ATOM     19  H   LIG d   1     -19.405  65.331 113.332  0.00  0.00    -0.090 HD
ATOM     20  H   LIG d   1     -18.077  64.535 112.838  0.00  0.00    -0.090 HD
ATOM     21  H   LIG d   1     -17.941  66.046 113.457  0.00  0.00    -0.090 HD
ENDBRANCH   5  18
BRANCH   3  22
ATOM     22  C   LIG d   1     -18.788  61.195 116.148  0.00  0.00     0.382 C 
ATOM     23  O   LIG d   1     -18.202  60.269 116.760  0.00  0.00    -0.241 OA
ATOM     24  O   LIG d   1     -19.938  61.008 115.707  0.00  0.00    -0.241 OA
ENDBRANCH   3  22
TORSDOF 7
ENDMDL
MODEL 8
REMARK VINA RESULT:      -4.4     27.818     30.447
REMARK  7 active torsions:
REMARK  status: ('A' for Active; 'I' for Inactive)
REMARK    1  A    between atoms: C_2  and  C_3 
REMARK    2  A    between atoms: C_3  and  O_6 
REMARK    3  A    between atoms: C_3  and  C_4 
REMARK    4  A    between atoms: C_7  and  O_6 
REMARK    5  A    between atoms: C_9  and  C_10 
REMARK    6  A    between atoms: N_15  and  C_14 
REMARK    7  A    between atoms: N_20  and  C_19 
REMARK       I    between atoms: C_22  and  N_20 
ROOT
ATOM      1  C   LIG d   1       2.651  87.903 116.055  0.00  0.00     0.161 C 
ATOM      2  C   LIG d   1       3.227  88.671 115.030  0.00  0.00     0.016 C 
ATOM      3  C   LIG d   1       4.124  88.143 114.073  0.00  0.00     0.038 C 
ATOM      4  C   LIG d   1       4.389  86.769 113.985  0.00  0.00     0.028 C 
ATOM      5  C   LIG d   1       4.225  86.033 115.310  0.00  0.00    -0.047 C 
ATOM      6  C   LIG d   1       2.842  86.379 115.908  0.00  0.00     0.091 C 
ENDROOT
BRANCH   1   7
ATOM      7  O   LIG d   1       1.251  88.223 116.177  0.00  0.00    -0.368 OA
BRANCH   7   8
ATOM      8  C   LIG d   1       0.804  88.637 117.492  0.00  0.00     0.119 C 
BRANCH   8   9
ATOM      9  C   LIG d   1      -0.442  87.801 117.842  0.00  0.00     0.028 C 
ATOM     10  C   LIG d   1      -1.174  88.331 119.086  0.00  0.00     0.006 C 
ENDBRANCH   8   9
BRANCH   8  11
ATOM     11  C   LIG d   1       0.326  90.093 117.485  0.00  0.00     0.028 C 
ATOM     12  C   LIG d   1       1.378  91.067 118.037  0.00  0.00     0.006 C 
ENDBRANCH   8  11
ENDBRANCH   7   8
ENDBRANCH   1   7
BRANCH   6  13
ATOM     13  N   LIG d   1       2.633  85.768 117.246  0.00  0.00    -0.311 N 
ATOM     14  C   LIG d   1       2.091  84.565 117.426  0.00  0.00     0.210 C 
ATOM     15  C   LIG d   1       1.948  84.132 118.889  0.00  0.00     0.109 C 
ATOM     16  O   LIG d   1       1.744  83.802 116.512  0.00  0.00    -0.276 OA
ATOM     17  H   LIG d   1       2.915  86.306 118.042  0.00  0.00     0.149 HD
ENDBRANCH   6  13
BRANCH   5  18
ATOM     18  N   LIG d   1       4.396  84.592 115.045  0.00  0.00     0.381 N 
ATOM     19  H   LIG d   1       5.258  84.275 115.442  0.00  0.00    -0.090 HD
ATOM     20  H   LIG d   1       4.433  84.447 114.052  0.00  0.00    -0.090 HD
ATOM     21  H   LIG d   1       3.635  84.081 115.435  0.00  0.00    -0.090 HD
ENDBRANCH   5  18
BRANCH   3  22
ATOM     22  C   LIG d   1       4.797  89.000 113.216  0.00  0.00     0.382 C 
ATOM     23  O   LIG d   1       5.945  88.703 112.805  0.00  0.00    -0.241 OA
ATOM     24  O   LIG d   1       4.290  90.088 112.883  0.00  0.00    -0.241 OA
ENDBRANCH   3  22
TORSDOF 7
ENDMDL
MODEL 9
REMARK VINA RESULT:      -4.3      2.339      2.952
REMARK  7 active torsions:
REMARK  status: ('A' for Active; 'I' for Inactive)
REMARK    1  A    between atoms: C_2  and  C_3 
REMARK    2  A    between atoms: C_3  and  O_6 
REMARK    3  A    between atoms: C_3  and  C_4 
REMARK    4  A    between atoms: C_7  and  O_6 
REMARK    5  A    between atoms: C_9  and  C_10 
REMARK    6  A    between atoms: N_15  and  C_14 
REMARK    7  A    between atoms: N_20  and  C_19 
REMARK       I    between atoms: C_22  and  N_20 
ROOT
ATOM      1  C   LIG d   1     -17.081  65.347 117.080  0.00  0.00     0.161 C 
ATOM      2  C   LIG d   1     -16.521  64.101 116.753  0.00  0.00     0.016 C 
ATOM      3  C   LIG d   1     -17.151  62.867 117.033  0.00  0.00     0.038 C 
ATOM      4  C   LIG d   1     -18.462  62.799 117.527  0.00  0.00     0.028 C 
ATOM      5  C   LIG d   1     -18.867  64.024 118.341  0.00  0.00    -0.047 C 
ATOM      6  C   LIG d   1     -18.559  65.297 117.519  0.00  0.00     0.091 C 
ENDROOT
BRANCH   1   7
ATOM      7  O   LIG d   1     -16.916  66.262 115.979  0.00  0.00    -0.368 OA
BRANCH   7   8
ATOM      8  C   LIG d   1     -15.553  66.519 115.562  0.00  0.00     0.119 C 
BRANCH   8   9
ATOM      9  C   LIG d   1     -15.175  67.928 116.057  0.00  0.00     0.028 C 
ATOM     10  C   LIG d   1     -16.407  68.763 116.446  0.00  0.00     0.006 C 
ENDBRANCH   8   9
BRANCH   8  11
ATOM     11  C   LIG d   1     -15.439  66.582 114.036  0.00  0.00     0.028 C 
ATOM     12  C   LIG d   1     -16.400  65.614 113.326  0.00  0.00     0.006 C 
ENDBRANCH   8  11
ENDBRANCH   7   8
ENDBRANCH   1   7
BRANCH   6  13
ATOM     13  N   LIG d   1     -18.847  66.543 118.275  0.00  0.00    -0.311 N 
ATOM     14  C   LIG d   1     -19.692  67.480 117.850  0.00  0.00     0.210 C 
ATOM     15  C   LIG d   1     -19.828  68.696 118.772  0.00  0.00     0.109 C 
ATOM     16  O   LIG d   1     -20.366  67.406 116.811  0.00  0.00    -0.276 OA
ATOM     17  H   LIG d   1     -18.367  66.670 119.145  0.00  0.00     0.149 HD
ENDBRANCH   6  13
BRANCH   5  18
ATOM     18  N   LIG d   1     -20.296  63.884 118.677  0.00  0.00     0.381 N 
ATOM     19  H   LIG d   1     -20.519  64.465 119.460  0.00  0.00    -0.090 HD
ATOM     20  H   LIG d   1     -20.478  62.929 118.932  0.00  0.00    -0.090 HD
ATOM     21  H   LIG d   1     -20.857  64.139 117.894  0.00  0.00    -0.090 HD
ENDBRANCH   5  18
BRANCH   3  22
ATOM     22  C   LIG d   1     -16.452  61.683 116.855  0.00  0.00     0.382 C 
ATOM     23  O   LIG d   1     -15.483  61.409 117.604  0.00  0.00    -0.241 OA
ATOM     24  O   LIG d   1     -16.750  60.906 115.929  0.00  0.00    -0.241 OA
ENDBRANCH   3  22
TORSDOF 7
ENDMDL
