MODEL 1
REMARK VINA RESULT:      -5.2      0.000      0.000
REMARK  7 active torsions:
REMARK  status: ('A' for Active; 'I' for Inactive)
REMARK    1  A    between atoms: C_2  and  C_3 
REMARK    2  A    between atoms: C_3  and  O_6 
REMARK    3  A    between atoms: C_3  and  C_4 
REMARK    4  A    between atoms: C_7  and  O_6 
REMARK    5  A    between atoms: C_9  and  C_10 
REMARK    6  A    between atoms: N_15  and  C_14 
REMARK    7  A    between atoms: N_20  and  C_19 
REMARK       I    between atoms: C_22  and  N_20 
ROOT
ATOM      1  C   LIG d   1      -4.736  75.823 118.249  0.00  0.00     0.161 C 
ATOM      2  C   LIG d   1      -5.761  76.782 118.197  0.00  0.00     0.016 C 
ATOM      3  C   LIG d   1      -5.563  78.111 117.755  0.00  0.00     0.038 C 
ATOM      4  C   LIG d   1      -4.350  78.530 117.188  0.00  0.00     0.028 C 
ATOM      5  C   LIG d   1      -3.144  77.741 117.686  0.00  0.00    -0.047 C 
ATOM      6  C   LIG d   1      -3.432  76.231 117.530  0.00  0.00     0.091 C 
ENDROOT
BRANCH   1   7
ATOM      7  O   LIG d   1      -5.217  74.565 117.737  0.00  0.00    -0.368 OA
BRANCH   7   8
ATOM      8  C   LIG d   1      -6.280  74.641 116.755  0.00  0.00     0.119 C 
BRANCH   8   9
ATOM      9  C   LIG d   1      -7.279  73.510 117.066  0.00  0.00     0.028 C 
ATOM     10  C   LIG d   1      -6.894  72.183 116.390  0.00  0.00     0.006 C 
ENDBRANCH   8   9
BRANCH   8  11
ATOM     11  C   LIG d   1      -5.758  74.344 115.346  0.00  0.00     0.028 C 
ATOM     12  C   LIG d   1      -5.581  75.613 114.497  0.00  0.00     0.006 C 
ENDBRANCH   8  11
ENDBRANCH   7   8
ENDBRANCH   1   7
BRANCH   6  13
ATOM     13  N   LIG d   1      -2.337  75.385 118.072  0.00  0.00    -0.311 N 
ATOM     14  C   LIG d   1      -1.844  74.326 117.433  0.00  0.00     0.210 C 
ATOM     15  C   LIG d   1      -0.731  73.582 118.177  0.00  0.00     0.109 C 
ATOM     16  O   LIG d   1      -2.200  73.951 116.305  0.00  0.00    -0.276 OA
ATOM     17  H   LIG d   1      -1.967  75.636 118.968  0.00  0.00     0.149 HD
ENDBRANCH   6  13
BRANCH   5  18
ATOM     18  N   LIG d   1      -1.969  78.188 116.914  0.00  0.00     0.381 N 
ATOM     19  H   LIG d   1      -2.261  78.796 116.175  0.00  0.00    -0.090 HD
ATOM     20  H   LIG d   1      -1.524  77.385 116.506  0.00  0.00    -0.090 HD
ATOM     21  H   LIG d   1      -1.329  78.664 117.511  0.00  0.00    -0.090 HD
ENDBRANCH   5  18
BRANCH   3  22
ATOM     22  C   LIG d   1      -6.573  79.046 117.915  0.00  0.00     0.382 C 
ATOM     23  O   LIG d   1      -7.596  78.756 118.581  0.00  0.00    -0.241 OA
ATOM     24  O   LIG d   1      -6.495  80.161 117.364  0.00  0.00    -0.241 OA
ENDBRANCH   3  22
TORSDOF 7
ENDMDL
MODEL 2
REMARK VINA RESULT:      -5.1     13.217     15.358
REMARK  7 active torsions:
REMARK  status: ('A' for Active; 'I' for Inactive)
REMARK    1  A    between atoms: C_2  and  C_3 
REMARK    2  A    between atoms: C_3  and  O_6 
REMARK    3  A    between atoms: C_3  and  C_4 
REMARK    4  A    between atoms: C_7  and  O_6 
REMARK    5  A    between atoms: C_9  and  C_10 
REMARK    6  A    between atoms: N_15  and  C_14 
REMARK    7  A    between atoms: N_20  and  C_19 
REMARK       I    between atoms: C_22  and  N_20 
ROOT
ATOM      1  C   LIG d   1      -5.709  90.879 118.276  0.00  0.00     0.161 C 
ATOM      2  C   LIG d   1      -6.470  92.057 118.201  0.00  0.00     0.016 C 
ATOM      3  C   LIG d   1      -5.914  93.352 118.318  0.00  0.00     0.038 C 
ATOM      4  C   LIG d   1      -4.528  93.561 118.367  0.00  0.00     0.028 C 
ATOM      5  C   LIG d   1      -3.757  92.383 118.952  0.00  0.00    -0.047 C 
ATOM      6  C   LIG d   1      -4.182  91.091 118.217  0.00  0.00     0.091 C 
ENDROOT
BRANCH   1   7
ATOM      7  O   LIG d   1      -6.127  89.961 117.246  0.00  0.00    -0.368 OA
BRANCH   7   8
ATOM      8  C   LIG d   1      -7.418  90.224 116.644  0.00  0.00     0.119 C 
BRANCH   8   9
ATOM      9  C   LIG d   1      -8.337  89.033 116.981  0.00  0.00     0.028 C 
ATOM     10  C   LIG d   1      -9.479  88.867 115.964  0.00  0.00     0.006 C 
ENDBRANCH   8   9
BRANCH   8  11
ATOM     11  C   LIG d   1      -7.327  90.245 115.116  0.00  0.00     0.028 C 
ATOM     12  C   LIG d   1      -6.592  91.484 114.580  0.00  0.00     0.006 C 
ENDBRANCH   8  11
ENDBRANCH   7   8
ENDBRANCH   1   7
BRANCH   6  13
ATOM     13  N   LIG d   1      -3.537  89.878 118.785  0.00  0.00    -0.311 N 
ATOM     14  C   LIG d   1      -2.404  89.360 118.312  0.00  0.00     0.210 C 
ATOM     15  C   LIG d   1      -1.922  88.096 119.030  0.00  0.00     0.109 C 
ATOM     16  O   LIG d   1      -1.736  89.847 117.388  0.00  0.00    -0.276 OA
ATOM     17  H   LIG d   1      -3.996  89.437 119.558  0.00  0.00     0.149 HD
ENDBRANCH   6  13
BRANCH   5  18
ATOM     18  N   LIG d   1      -2.318  92.679 118.816  0.00  0.00     0.381 N 
ATOM     19  H   LIG d   1      -2.073  92.731 117.847  0.00  0.00    -0.090 HD
ATOM     20  H   LIG d   1      -1.792  91.933 119.234  0.00  0.00    -0.090 HD
ATOM     21  H   LIG d   1      -2.103  93.541 119.267  0.00  0.00    -0.090 HD
ENDBRANCH   5  18
BRANCH   3  22
ATOM     22  C   LIG d   1      -6.750  94.452 118.427  0.00  0.00     0.382 C 
ATOM     23  O   LIG d   1      -7.973  94.338 118.168  0.00  0.00    -0.241 OA
ATOM     24  O   LIG d   1      -6.291  95.567 118.739  0.00  0.00    -0.241 OA
ENDBRANCH   3  22
TORSDOF 7
ENDMDL
MODEL 3
REMARK VINA RESULT:      -5.0      1.137      1.959
REMARK  7 active torsions:
REMARK  status: ('A' for Active; 'I' for Inactive)
REMARK    1  A    between atoms: C_2  and  C_3 
REMARK    2  A    between atoms: C_3  and  O_6 
REMARK    3  A    between atoms: C_3  and  C_4 
REMARK    4  A    between atoms: C_7  and  O_6 
REMARK    5  A    between atoms: C_9  and  C_10 
REMARK    6  A    between atoms: N_15  and  C_14 
REMARK    7  A    between atoms: N_20  and  C_19 
REMARK       I    between atoms: C_22  and  N_20 
ROOT
ATOM      1  C   LIG d   1      -5.664  76.381 117.585  0.00  0.00     0.161 C 
ATOM      2  C   LIG d   1      -6.638  77.389 117.685  0.00  0.00     0.016 C 
ATOM      3  C   LIG d   1      -6.327  78.756 117.865  0.00  0.00     0.038 C 
ATOM      4  C   LIG d   1      -5.008  79.231 117.806  0.00  0.00     0.028 C 
ATOM      5  C   LIG d   1      -3.971  78.189 118.213  0.00  0.00    -0.047 C 
ATOM      6  C   LIG d   1      -4.219  76.893 117.408  0.00  0.00     0.091 C 
ENDROOT
BRANCH   1   7
ATOM      7  O   LIG d   1      -6.008  75.473 116.521  0.00  0.00    -0.368 OA
BRANCH   7   8
ATOM      8  C   LIG d   1      -6.174  74.083 116.897  0.00  0.00     0.119 C 
BRANCH   8   9
ATOM      9  C   LIG d   1      -5.833  73.226 115.663  0.00  0.00     0.028 C 
ATOM     10  C   LIG d   1      -5.031  74.007 114.609  0.00  0.00     0.006 C 
ENDBRANCH   8   9
BRANCH   8  11
ATOM     11  C   LIG d   1      -7.636  73.765 117.221  0.00  0.00     0.028 C 
ATOM     12  C   LIG d   1      -7.989  72.286 116.995  0.00  0.00     0.006 C 
ENDBRANCH   8  11
ENDBRANCH   7   8
ENDBRANCH   1   7
BRANCH   6  13
ATOM     13  N   LIG d   1      -3.300  75.794 117.805  0.00  0.00    -0.311 N 
ATOM     14  C   LIG d   1      -2.386  75.272 116.989  0.00  0.00     0.210 C 
ATOM     15  C   LIG d   1      -1.556  74.134 117.592  0.00  0.00     0.109 C 
ATOM     16  O   LIG d   1      -2.162  75.665 115.834  0.00  0.00    -0.276 OA
ATOM     17  H   LIG d   1      -3.393  75.437 118.736  0.00  0.00     0.149 HD
ENDBRANCH   6  13
BRANCH   5  18
ATOM     18  N   LIG d   1      -2.637  78.772 117.973  0.00  0.00     0.381 N 
ATOM     19  H   LIG d   1      -2.280  78.452 117.095  0.00  0.00    -0.090 HD
ATOM     20  H   LIG d   1      -2.013  78.463 118.698  0.00  0.00    -0.090 HD
ATOM     21  H   LIG d   1      -2.694  79.766 117.975  0.00  0.00    -0.090 HD
ENDBRANCH   5  18
BRANCH   3  22
ATOM     22  C   LIG d   1      -7.340  79.660 118.147  0.00  0.00     0.382 C 
ATOM     23  O   LIG d   1      -7.363  80.775 117.573  0.00  0.00    -0.241 OA
ATOM     24  O   LIG d   1      -8.206  79.392 119.000  0.00  0.00    -0.241 OA
ENDBRANCH   3  22
TORSDOF 7
ENDMDL
MODEL 4
REMARK VINA RESULT:      -4.8     14.119     16.983
REMARK  7 active torsions:
REMARK  status: ('A' for Active; 'I' for Inactive)
REMARK    1  A    between atoms: C_2  and  C_3 
REMARK    2  A    between atoms: C_3  and  O_6 
REMARK    3  A    between atoms: C_3  and  C_4 
REMARK    4  A    between atoms: C_7  and  O_6 
REMARK    5  A    between atoms: C_9  and  C_10 
REMARK    6  A    between atoms: N_15  and  C_14 
REMARK    7  A    between atoms: N_20  and  C_19 
REMARK       I    between atoms: C_22  and  N_20 
ROOT
ATOM      1  C   LIG d   1      -5.796  92.608 118.012  0.00  0.00     0.161 C 
ATOM      2  C   LIG d   1      -6.850  91.751 117.654  0.00  0.00     0.016 C 
ATOM      3  C   LIG d   1      -6.664  90.548 116.934  0.00  0.00     0.038 C 
ATOM      4  C   LIG d   1      -5.386  90.043 116.652  0.00  0.00     0.028 C 
ATOM      5  C   LIG d   1      -4.315  91.124 116.551  0.00  0.00    -0.047 C 
ATOM      6  C   LIG d   1      -4.385  92.018 117.810  0.00  0.00     0.091 C 
ENDROOT
BRANCH   1   7
ATOM      7  O   LIG d   1      -5.965  93.047 119.374  0.00  0.00    -0.368 OA
BRANCH   7   8
ATOM      8  C   LIG d   1      -6.621  94.327 119.555  0.00  0.00     0.119 C 
BRANCH   8   9
ATOM      9  C   LIG d   1      -8.133  94.103 119.361  0.00  0.00     0.028 C 
ATOM     10  C   LIG d   1      -8.791  95.222 118.536  0.00  0.00     0.006 C 
ENDBRANCH   8   9
BRANCH   8  11
ATOM     11  C   LIG d   1      -6.215  95.320 118.462  0.00  0.00     0.028 C 
ATOM     12  C   LIG d   1      -5.248  96.402 118.970  0.00  0.00     0.006 C 
ENDBRANCH   8  11
ENDBRANCH   7   8
ENDBRANCH   1   7
BRANCH   6  13
ATOM     13  N   LIG d   1      -3.426  93.152 117.754  0.00  0.00    -0.311 N 
ATOM     14  C   LIG d   1      -2.206  93.108 118.286  0.00  0.00     0.210 C 
ATOM     15  C   LIG d   1      -1.387  94.394 118.132  0.00  0.00     0.109 C 
ATOM     16  O   LIG d   1      -1.712  92.116 118.841  0.00  0.00    -0.276 OA
ATOM     17  H   LIG d   1      -3.734  93.987 117.293  0.00  0.00     0.149 HD
ENDBRANCH   6  13
BRANCH   5  18
ATOM     18  N   LIG d   1      -3.014  90.449 116.392  0.00  0.00     0.381 N 
ATOM     19  H   LIG d   1      -2.328  90.894 116.969  0.00  0.00    -0.090 HD
ATOM     20  H   LIG d   1      -2.720  90.530 115.434  0.00  0.00    -0.090 HD
ATOM     21  H   LIG d   1      -3.095  89.488 116.641  0.00  0.00    -0.090 HD
ENDBRANCH   5  18
BRANCH   3  22
ATOM     22  C   LIG d   1      -7.766  89.858 116.452  0.00  0.00     0.382 C 
ATOM     23  O   LIG d   1      -8.081  88.752 116.953  0.00  0.00    -0.241 OA
ATOM     24  O   LIG d   1      -8.423  90.307 115.494  0.00  0.00    -0.241 OA
ENDBRANCH   3  22
TORSDOF 7
ENDMDL
MODEL 5
REMARK VINA RESULT:      -4.7     12.174     13.978
REMARK  7 active torsions:
REMARK  status: ('A' for Active; 'I' for Inactive)
REMARK    1  A    between atoms: C_2  and  C_3 
REMARK    2  A    between atoms: C_3  and  O_6 
REMARK    3  A    between atoms: C_3  and  C_4 
REMARK    4  A    between atoms: C_7  and  O_6 
REMARK    5  A    between atoms: C_9  and  C_10 
REMARK    6  A    between atoms: N_15  and  C_14 
REMARK    7  A    between atoms: N_20  and  C_19 
REMARK       I    between atoms: C_22  and  N_20 
ROOT
ATOM      1  C   LIG d   1       1.491  87.807 115.880  0.00  0.00     0.161 C 
ATOM      2  C   LIG d   1       0.401  87.765 116.765  0.00  0.00     0.016 C 
ATOM      3  C   LIG d   1      -0.022  88.875 117.532  0.00  0.00     0.038 C 
ATOM      4  C   LIG d   1       0.528  90.153 117.352  0.00  0.00     0.028 C 
ATOM      5  C   LIG d   1       1.963  90.128 116.839  0.00  0.00    -0.047 C 
ATOM      6  C   LIG d   1       2.033  89.222 115.588  0.00  0.00     0.091 C 
ENDROOT
BRANCH   1   7
ATOM      7  O   LIG d   1       1.149  87.138 114.650  0.00  0.00    -0.368 OA
BRANCH   7   8
ATOM      8  C   LIG d   1       1.443  85.721 114.592  0.00  0.00     0.119 C 
BRANCH   8   9
ATOM      9  C   LIG d   1       2.976  85.567 114.557  0.00  0.00     0.028 C 
ATOM     10  C   LIG d   1       3.522  85.464 113.123  0.00  0.00     0.006 C 
ENDBRANCH   8   9
BRANCH   8  11
ATOM     11  C   LIG d   1       0.943  85.101 113.284  0.00  0.00     0.028 C 
ATOM     12  C   LIG d   1      -0.384  85.710 112.805  0.00  0.00     0.006 C 
ENDBRANCH   8  11
ENDBRANCH   7   8
ENDBRANCH   1   7
BRANCH   6  13
ATOM     13  N   LIG d   1       3.419  89.075 115.072  0.00  0.00    -0.311 N 
ATOM     14  C   LIG d   1       3.737  89.190 113.783  0.00  0.00     0.210 C 
ATOM     15  C   LIG d   1       5.221  88.982 113.463  0.00  0.00     0.109 C 
ATOM     16  O   LIG d   1       2.937  89.475 112.880  0.00  0.00    -0.276 OA
ATOM     17  H   LIG d   1       4.136  88.874 115.741  0.00  0.00     0.149 HD
ENDBRANCH   6  13
BRANCH   5  18
ATOM     18  N   LIG d   1       2.363  91.522 116.566  0.00  0.00     0.381 N 
ATOM     19  H   LIG d   1       1.568  92.050 116.266  0.00  0.00    -0.090 HD
ATOM     20  H   LIG d   1       3.043  91.526 115.826  0.00  0.00    -0.090 HD
ATOM     21  H   LIG d   1       2.752  91.931 117.387  0.00  0.00    -0.090 HD
ENDBRANCH   5  18
BRANCH   3  22
ATOM     22  C   LIG d   1      -0.979  88.702 118.520  0.00  0.00     0.382 C 
ATOM     23  O   LIG d   1      -1.833  87.789 118.414  0.00  0.00    -0.241 OA
ATOM     24  O   LIG d   1      -1.027  89.476 119.495  0.00  0.00    -0.241 OA
ENDBRANCH   3  22
TORSDOF 7
ENDMDL
MODEL 6
REMARK VINA RESULT:      -4.6      2.367      5.022
REMARK  7 active torsions:
REMARK  status: ('A' for Active; 'I' for Inactive)
REMARK    1  A    between atoms: C_2  and  C_3 
REMARK    2  A    between atoms: C_3  and  O_6 
REMARK    3  A    between atoms: C_3  and  C_4 
REMARK    4  A    between atoms: C_7  and  O_6 
REMARK    5  A    between atoms: C_9  and  C_10 
REMARK    6  A    between atoms: N_15  and  C_14 
REMARK    7  A    between atoms: N_20  and  C_19 
REMARK       I    between atoms: C_22  and  N_20 
ROOT
ATOM      1  C   LIG d   1      -5.988  75.500 117.212  0.00  0.00     0.161 C 
ATOM      2  C   LIG d   1      -6.974  74.575 117.593  0.00  0.00     0.016 C 
ATOM      3  C   LIG d   1      -7.203  73.357 116.914  0.00  0.00     0.038 C 
ATOM      4  C   LIG d   1      -6.354  72.907 115.892  0.00  0.00     0.028 C 
ATOM      5  C   LIG d   1      -5.656  74.037 115.143  0.00  0.00    -0.047 C 
ATOM      6  C   LIG d   1      -4.979  74.975 116.168  0.00  0.00     0.091 C 
ENDROOT
BRANCH   1   7
ATOM      7  O   LIG d   1      -5.294  75.983 118.380  0.00  0.00    -0.368 OA
BRANCH   7   8
ATOM      8  C   LIG d   1      -5.687  77.294 118.857  0.00  0.00     0.119 C 
BRANCH   8   9
ATOM      9  C   LIG d   1      -6.312  78.051 117.669  0.00  0.00     0.028 C 
ATOM     10  C   LIG d   1      -7.330  79.112 118.119  0.00  0.00     0.006 C 
ENDBRANCH   8   9
BRANCH   8  11
ATOM     11  C   LIG d   1      -4.469  78.124 119.271  0.00  0.00     0.028 C 
ATOM     12  C   LIG d   1      -3.651  78.623 118.069  0.00  0.00     0.006 C 
ENDBRANCH   8  11
ENDBRANCH   7   8
ENDBRANCH   1   7
BRANCH   6  13
ATOM     13  N   LIG d   1      -4.344  76.155 115.525  0.00  0.00    -0.311 N 
ATOM     14  C   LIG d   1      -3.103  76.147 115.043  0.00  0.00     0.210 C 
ATOM     15  C   LIG d   1      -2.635  77.475 114.438  0.00  0.00     0.109 C 
ATOM     16  O   LIG d   1      -2.355  75.157 115.029  0.00  0.00    -0.276 OA
ATOM     17  H   LIG d   1      -4.891  76.992 115.465  0.00  0.00     0.149 HD
ENDBRANCH   6  13
BRANCH   5  18
ATOM     18  N   LIG d   1      -4.700  73.425 114.201  0.00  0.00     0.381 N 
ATOM     19  H   LIG d   1      -3.767  73.543 114.541  0.00  0.00    -0.090 HD
ATOM     20  H   LIG d   1      -4.775  73.890 113.314  0.00  0.00    -0.090 HD
ATOM     21  H   LIG d   1      -4.902  72.455 114.094  0.00  0.00    -0.090 HD
ENDBRANCH   5  18
BRANCH   3  22
ATOM     22  C   LIG d   1      -8.316  72.592 117.230  0.00  0.00     0.382 C 
ATOM     23  O   LIG d   1      -8.188  71.367 117.465  0.00  0.00    -0.241 OA
ATOM     24  O   LIG d   1      -9.452  73.103 117.238  0.00  0.00    -0.241 OA
ENDBRANCH   3  22
TORSDOF 7
ENDMDL
MODEL 7
REMARK VINA RESULT:      -4.4     13.799     15.770
REMARK  7 active torsions:
REMARK  status: ('A' for Active; 'I' for Inactive)
REMARK    1  A    between atoms: C_2  and  C_3 
REMARK    2  A    between atoms: C_3  and  O_6 
REMARK    3  A    between atoms: C_3  and  C_4 
REMARK    4  A    between atoms: C_7  and  O_6 
REMARK    5  A    between atoms: C_9  and  C_10 
REMARK    6  A    between atoms: N_15  and  C_14 
REMARK    7  A    between atoms: N_20  and  C_19 
REMARK       I    between atoms: C_22  and  N_20 
ROOT
ATOM      1  C   LIG d   1       4.387  87.834 116.558  0.00  0.00     0.161 C 
ATOM      2  C   LIG d   1       3.592  88.977 116.367  0.00  0.00     0.016 C 
ATOM      3  C   LIG d   1       4.060  90.294 116.580  0.00  0.00     0.038 C 
ATOM      4  C   LIG d   1       5.408  90.567 116.855  0.00  0.00     0.028 C 
ATOM      5  C   LIG d   1       6.129  89.418 117.551  0.00  0.00    -0.047 C 
ATOM      6  C   LIG d   1       5.891  88.117 116.750  0.00  0.00     0.091 C 
ENDROOT
BRANCH   1   7
ATOM      7  O   LIG d   1       4.185  86.912 115.469  0.00  0.00    -0.368 OA
BRANCH   7   8
ATOM      8  C   LIG d   1       3.505  87.440 114.304  0.00  0.00     0.119 C 
BRANCH   8   9
ATOM      9  C   LIG d   1       2.371  86.460 113.946  0.00  0.00     0.028 C 
ATOM     10  C   LIG d   1       1.150  86.612 114.868  0.00  0.00     0.006 C 
ENDBRANCH   8   9
BRANCH   8  11
ATOM     11  C   LIG d   1       4.427  87.458 113.081  0.00  0.00     0.028 C 
ATOM     12  C   LIG d   1       5.423  88.628 113.104  0.00  0.00     0.006 C 
ENDBRANCH   8  11
ENDBRANCH   7   8
ENDBRANCH   1   7
BRANCH   6  13
ATOM     13  N   LIG d   1       6.493  86.928 117.408  0.00  0.00    -0.311 N 
ATOM     14  C   LIG d   1       7.735  86.510 117.173  0.00  0.00     0.210 C 
ATOM     15  C   LIG d   1       8.150  85.252 117.942  0.00  0.00     0.109 C 
ATOM     16  O   LIG d   1       8.544  87.081 116.426  0.00  0.00    -0.276 OA
ATOM     17  H   LIG d   1       5.916  86.424 118.053  0.00  0.00     0.149 HD
ENDBRANCH   6  13
BRANCH   5  18
ATOM     18  N   LIG d   1       7.555  89.782 117.652  0.00  0.00     0.381 N 
ATOM     19  H   LIG d   1       7.907  90.028 116.748  0.00  0.00    -0.090 HD
ATOM     20  H   LIG d   1       8.071  88.987 117.985  0.00  0.00    -0.090 HD
ATOM     21  H   LIG d   1       7.668  90.547 118.280  0.00  0.00    -0.090 HD
ENDBRANCH   5  18
BRANCH   3  22
ATOM     22  C   LIG d   1       3.165  91.353 116.558  0.00  0.00     0.382 C 
ATOM     23  O   LIG d   1       3.584  92.531 116.668  0.00  0.00    -0.241 OA
ATOM     24  O   LIG d   1       1.940  91.144 116.475  0.00  0.00    -0.241 OA
ENDBRANCH   3  22
TORSDOF 7
ENDMDL
MODEL 8
REMARK VINA RESULT:      -4.4     12.209     14.003
REMARK  7 active torsions:
REMARK  status: ('A' for Active; 'I' for Inactive)
REMARK    1  A    between atoms: C_2  and  C_3 
REMARK    2  A    between atoms: C_3  and  O_6 
REMARK    3  A    between atoms: C_3  and  C_4 
REMARK    4  A    between atoms: C_7  and  O_6 
REMARK    5  A    between atoms: C_9  and  C_10 
REMARK    6  A    between atoms: N_15  and  C_14 
REMARK    7  A    between atoms: N_20  and  C_19 
REMARK       I    between atoms: C_22  and  N_20 
ROOT
ATOM      1  C   LIG d   1       0.718  88.290 116.881  0.00  0.00     0.161 C 
ATOM      2  C   LIG d   1      -0.552  88.024 117.420  0.00  0.00     0.016 C 
ATOM      3  C   LIG d   1      -1.469  89.036 117.786  0.00  0.00     0.038 C 
ATOM      4  C   LIG d   1      -1.236  90.389 117.495  0.00  0.00     0.028 C 
ATOM      5  C   LIG d   1       0.245  90.744 117.413  0.00  0.00    -0.047 C 
ATOM      6  C   LIG d   1       0.946  89.755 116.453  0.00  0.00     0.091 C 
ENDROOT
BRANCH   1   7
ATOM      7  O   LIG d   1       0.976  87.400 115.777  0.00  0.00    -0.368 OA
BRANCH   7   8
ATOM      8  C   LIG d   1       1.469  86.082 116.122  0.00  0.00     0.119 C 
BRANCH   8   9
ATOM      9  C   LIG d   1       2.885  86.256 116.704  0.00  0.00     0.028 C 
ATOM     10  C   LIG d   1       3.953  86.425 115.610  0.00  0.00     0.006 C 
ENDBRANCH   8   9
BRANCH   8  11
ATOM     11  C   LIG d   1       1.647  85.210 114.876  0.00  0.00     0.028 C 
ATOM     12  C   LIG d   1       0.857  85.731 113.665  0.00  0.00     0.006 C 
ENDBRANCH   8  11
ENDBRANCH   7   8
ENDBRANCH   1   7
BRANCH   6  13
ATOM     13  N   LIG d   1       2.413  89.979 116.381  0.00  0.00    -0.311 N 
ATOM     14  C   LIG d   1       3.108  89.920 115.246  0.00  0.00     0.210 C 
ATOM     15  C   LIG d   1       4.614  90.163 115.397  0.00  0.00     0.109 C 
ATOM     16  O   LIG d   1       2.617  89.722 114.125  0.00  0.00    -0.276 OA
ATOM     17  H   LIG d   1       2.888  90.177 117.240  0.00  0.00     0.149 HD
ENDBRANCH   6  13
BRANCH   5  18
ATOM     18  N   LIG d   1       0.343  92.147 116.969  0.00  0.00     0.381 N 
ATOM     19  H   LIG d   1       1.154  92.573 117.370  0.00  0.00    -0.090 HD
ATOM     20  H   LIG d   1      -0.467  92.647 117.291  0.00  0.00    -0.090 HD
ATOM     21  H   LIG d   1       0.394  92.188 115.975  0.00  0.00    -0.090 HD
ENDBRANCH   5  18
BRANCH   3  22
ATOM     22  C   LIG d   1      -2.618  88.702 118.486  0.00  0.00     0.382 C 
ATOM     23  O   LIG d   1      -2.642  87.665 119.193  0.00  0.00    -0.241 OA
ATOM     24  O   LIG d   1      -3.645  89.400 118.386  0.00  0.00    -0.241 OA
ENDBRANCH   3  22
TORSDOF 7
ENDMDL
MODEL 9
REMARK VINA RESULT:      -4.3     20.681     22.993
REMARK  7 active torsions:
REMARK  status: ('A' for Active; 'I' for Inactive)
REMARK    1  A    between atoms: C_2  and  C_3 
REMARK    2  A    between atoms: C_3  and  O_6 
REMARK    3  A    between atoms: C_3  and  C_4 
REMARK    4  A    between atoms: C_7  and  O_6 
REMARK    5  A    between atoms: C_9  and  C_10 
REMARK    6  A    between atoms: N_15  and  C_14 
REMARK    7  A    between atoms: N_20  and  C_19 
REMARK       I    between atoms: C_22  and  N_20 
ROOT
ATOM      1  C   LIG d   1     -25.246  85.244 115.133  0.00  0.00     0.161 C 
ATOM      2  C   LIG d   1     -24.305  86.274 114.969  0.00  0.00     0.016 C 
ATOM      3  C   LIG d   1     -23.127  86.136 114.200  0.00  0.00     0.038 C 
ATOM      4  C   LIG d   1     -22.882  84.999 113.415  0.00  0.00     0.028 C 
ATOM      5  C   LIG d   1     -23.555  83.739 113.948  0.00  0.00    -0.047 C 
ATOM      6  C   LIG d   1     -25.052  84.035 114.194  0.00  0.00     0.091 C 
ENDROOT
BRANCH   1   7
ATOM      7  O   LIG d   1     -26.580  85.774 114.998  0.00  0.00    -0.368 OA
BRANCH   7   8
ATOM      8  C   LIG d   1     -26.679  87.203 114.784  0.00  0.00     0.119 C 
BRANCH   8   9
ATOM      9  C   LIG d   1     -27.674  87.759 115.821  0.00  0.00     0.028 C 
ATOM     10  C   LIG d   1     -27.029  87.963 117.203  0.00  0.00     0.006 C 
ENDBRANCH   8   9
BRANCH   8  11
ATOM     11  C   LIG d   1     -27.296  87.521 113.419  0.00  0.00     0.028 C 
ATOM     12  C   LIG d   1     -26.749  88.820 112.805  0.00  0.00     0.006 C 
ENDBRANCH   8  11
ENDBRANCH   7   8
ENDBRANCH   1   7
BRANCH   6  13
ATOM     13  N   LIG d   1     -25.767  82.879 114.795  0.00  0.00    -0.311 N 
ATOM     14  C   LIG d   1     -26.364  81.931 114.075  0.00  0.00     0.210 C 
ATOM     15  C   LIG d   1     -27.061  80.839 114.893  0.00  0.00     0.109 C 
ATOM     16  O   LIG d   1     -26.355  81.873 112.836  0.00  0.00    -0.276 OA
ATOM     17  H   LIG d   1     -25.797  82.831 115.795  0.00  0.00     0.149 HD
ENDBRANCH   6  13
BRANCH   5  18
ATOM     18  N   LIG d   1     -23.333  82.664 112.962  0.00  0.00     0.381 N 
ATOM     19  H   LIG d   1     -23.537  81.777 113.377  0.00  0.00    -0.090 HD
ATOM     20  H   LIG d   1     -22.366  82.669 112.688  0.00  0.00    -0.090 HD
ATOM     21  H   LIG d   1     -23.912  82.807 112.165  0.00  0.00    -0.090 HD
ENDBRANCH   5  18
BRANCH   3  22
ATOM     22  C   LIG d   1     -22.158  87.126 114.244  0.00  0.00     0.382 C 
ATOM     23  O   LIG d   1     -22.364  88.176 114.900  0.00  0.00    -0.241 OA
ATOM     24  O   LIG d   1     -21.098  87.003 113.601  0.00  0.00    -0.241 OA
ENDBRANCH   3  22
TORSDOF 7
ENDMDL
