MODEL 1
REMARK VINA RESULT:      -5.6      0.000      0.000
REMARK  7 active torsions:
REMARK  status: ('A' for Active; 'I' for Inactive)
REMARK    1  A    between atoms: C_2  and  C_3 
REMARK    2  A    between atoms: C_3  and  O_6 
REMARK    3  A    between atoms: C_3  and  C_4 
REMARK    4  A    between atoms: C_7  and  O_6 
REMARK    5  A    between atoms: C_9  and  C_10 
REMARK    6  A    between atoms: N_15  and  C_14 
REMARK    7  A    between atoms: N_20  and  C_19 
REMARK       I    between atoms: C_22  and  N_20 
ROOT
ATOM      1  C   LIG d   1      -6.866  75.335 116.783  0.00  0.00     0.161 C 
ATOM      2  C   LIG d   1      -7.714  74.220 116.666  0.00  0.00     0.016 C 
ATOM      3  C   LIG d   1      -7.242  72.901 116.478  0.00  0.00     0.038 C 
ATOM      4  C   LIG d   1      -5.877  72.584 116.545  0.00  0.00     0.028 C 
ATOM      5  C   LIG d   1      -4.967  73.744 116.157  0.00  0.00    -0.047 C 
ATOM      6  C   LIG d   1      -5.373  74.995 116.970  0.00  0.00     0.091 C 
ENDROOT
BRANCH   1   7
ATOM      7  O   LIG d   1      -7.324  76.187 117.851  0.00  0.00    -0.368 OA
BRANCH   7   8
ATOM      8  C   LIG d   1      -7.678  77.541 117.479  0.00  0.00     0.119 C 
BRANCH   8   9
ATOM      9  C   LIG d   1      -6.821  78.495 118.334  0.00  0.00     0.028 C 
ATOM     10  C   LIG d   1      -6.154  79.597 117.493  0.00  0.00     0.006 C 
ENDBRANCH   8   9
BRANCH   8  11
ATOM     11  C   LIG d   1      -9.130  77.860 117.849  0.00  0.00     0.028 C 
ATOM     12  C   LIG d   1      -9.304  78.202 119.337  0.00  0.00     0.006 C 
ENDBRANCH   8  11
ENDBRANCH   7   8
ENDBRANCH   1   7
BRANCH   6  13
ATOM     13  N   LIG d   1      -4.587  76.198 116.590  0.00  0.00    -0.311 N 
ATOM     14  C   LIG d   1      -3.500  76.600 117.246  0.00  0.00     0.210 C 
ATOM     15  C   LIG d   1      -2.852  77.877 116.701  0.00  0.00     0.109 C 
ATOM     16  O   LIG d   1      -2.993  76.004 118.208  0.00  0.00    -0.276 OA
ATOM     17  H   LIG d   1      -4.910  76.723 115.801  0.00  0.00     0.149 HD
ENDBRANCH   6  13
BRANCH   5  18
ATOM     18  N   LIG d   1      -3.576  73.321 116.404  0.00  0.00     0.381 N 
ATOM     19  H   LIG d   1      -2.944  74.011 116.050  0.00  0.00    -0.090 HD
ATOM     20  H   LIG d   1      -3.407  72.459 115.916  0.00  0.00    -0.090 HD
ATOM     21  H   LIG d   1      -3.426  73.193 117.380  0.00  0.00    -0.090 HD
ENDBRANCH   5  18
BRANCH   3  22
ATOM     22  C   LIG d   1      -8.140  71.886 116.179  0.00  0.00     0.382 C 
ATOM     23  O   LIG d   1      -7.719  70.780 115.763  0.00  0.00    -0.241 OA
ATOM     24  O   LIG d   1      -9.366  72.078 116.279  0.00  0.00    -0.241 OA
ENDBRANCH   3  22
TORSDOF 7
ENDMDL
MODEL 2
REMARK VINA RESULT:      -5.5      2.050      5.224
REMARK  7 active torsions:
REMARK  status: ('A' for Active; 'I' for Inactive)
REMARK    1  A    between atoms: C_2  and  C_3 
REMARK    2  A    between atoms: C_3  and  O_6 
REMARK    3  A    between atoms: C_3  and  C_4 
REMARK    4  A    between atoms: C_7  and  O_6 
REMARK    5  A    between atoms: C_9  and  C_10 
REMARK    6  A    between atoms: N_15  and  C_14 
REMARK    7  A    between atoms: N_20  and  C_19 
REMARK       I    between atoms: C_22  and  N_20 
ROOT
ATOM      1  C   LIG d   1      -7.054  76.296 117.315  0.00  0.00     0.161 C 
ATOM      2  C   LIG d   1      -8.249  76.914 117.719  0.00  0.00     0.016 C 
ATOM      3  C   LIG d   1      -8.377  78.309 117.912  0.00  0.00     0.038 C 
ATOM      4  C   LIG d   1      -7.354  79.203 117.564  0.00  0.00     0.028 C 
ATOM      5  C   LIG d   1      -5.961  78.584 117.631  0.00  0.00    -0.047 C 
ATOM      6  C   LIG d   1      -5.958  77.266 116.824  0.00  0.00     0.091 C 
ENDROOT
BRANCH   1   7
ATOM      7  O   LIG d   1      -7.333  75.305 116.307  0.00  0.00    -0.368 OA
BRANCH   7   8
ATOM      8  C   LIG d   1      -7.111  73.925 116.691  0.00  0.00     0.119 C 
BRANCH   8   9
ATOM      9  C   LIG d   1      -6.053  73.343 115.732  0.00  0.00     0.028 C 
ATOM     10  C   LIG d   1      -5.811  74.244 114.510  0.00  0.00     0.006 C 
ENDBRANCH   8   9
BRANCH   8  11
ATOM     11  C   LIG d   1      -8.367  73.077 116.473  0.00  0.00     0.028 C 
ATOM     12  C   LIG d   1      -8.045  71.634 116.052  0.00  0.00     0.006 C 
ENDBRANCH   8  11
ENDBRANCH   7   8
ENDBRANCH   1   7
BRANCH   6  13
ATOM     13  N   LIG d   1      -4.657  76.553 116.907  0.00  0.00    -0.311 N 
ATOM     14  C   LIG d   1      -3.684  76.696 116.009  0.00  0.00     0.210 C 
ATOM     15  C   LIG d   1      -2.432  75.854 116.272  0.00  0.00     0.109 C 
ATOM     16  O   LIG d   1      -3.727  77.464 115.036  0.00  0.00    -0.276 OA
ATOM     17  H   LIG d   1      -4.525  75.933 117.682  0.00  0.00     0.149 HD
ENDBRANCH   6  13
BRANCH   5  18
ATOM     18  N   LIG d   1      -5.005  79.581 117.113  0.00  0.00     0.381 N 
ATOM     19  H   LIG d   1      -4.148  79.526 117.626  0.00  0.00    -0.090 HD
ATOM     20  H   LIG d   1      -5.392  80.500 117.243  0.00  0.00    -0.090 HD
ATOM     21  H   LIG d   1      -4.834  79.418 116.146  0.00  0.00    -0.090 HD
ENDBRANCH   5  18
BRANCH   3  22
ATOM     22  C   LIG d   1      -9.527  78.819 118.495  0.00  0.00     0.382 C 
ATOM     23  O   LIG d   1     -10.058  78.222 119.463  0.00  0.00    -0.241 OA
ATOM     24  O   LIG d   1     -10.066  79.845 118.038  0.00  0.00    -0.241 OA
ENDBRANCH   3  22
TORSDOF 7
ENDMDL
MODEL 3
REMARK VINA RESULT:      -5.5      2.153      4.482
REMARK  7 active torsions:
REMARK  status: ('A' for Active; 'I' for Inactive)
REMARK    1  A    between atoms: C_2  and  C_3 
REMARK    2  A    between atoms: C_3  and  O_6 
REMARK    3  A    between atoms: C_3  and  C_4 
REMARK    4  A    between atoms: C_7  and  O_6 
REMARK    5  A    between atoms: C_9  and  C_10 
REMARK    6  A    between atoms: N_15  and  C_14 
REMARK    7  A    between atoms: N_20  and  C_19 
REMARK       I    between atoms: C_22  and  N_20 
ROOT
ATOM      1  C   LIG d   1      -4.800  74.202 116.456  0.00  0.00     0.161 C 
ATOM      2  C   LIG d   1      -5.612  73.111 116.103  0.00  0.00     0.016 C 
ATOM      3  C   LIG d   1      -7.022  73.125 116.207  0.00  0.00     0.038 C 
ATOM      4  C   LIG d   1      -7.730  74.292 116.531  0.00  0.00     0.028 C 
ATOM      5  C   LIG d   1      -6.929  75.271 117.382  0.00  0.00    -0.047 C 
ATOM      6  C   LIG d   1      -5.561  75.521 116.705  0.00  0.00     0.091 C 
ENDROOT
BRANCH   1   7
ATOM      7  O   LIG d   1      -3.779  74.394 115.457  0.00  0.00    -0.368 OA
BRANCH   7   8
ATOM      8  C   LIG d   1      -2.449  74.684 115.953  0.00  0.00     0.119 C 
BRANCH   8   9
ATOM      9  C   LIG d   1      -1.915  75.895 115.165  0.00  0.00     0.028 C 
ATOM     10  C   LIG d   1      -1.031  76.813 116.027  0.00  0.00     0.006 C 
ENDBRANCH   8   9
BRANCH   8  11
ATOM     11  C   LIG d   1      -1.478  73.540 115.645  0.00  0.00     0.028 C 
ATOM     12  C   LIG d   1      -0.584  73.178 116.841  0.00  0.00     0.006 C 
ENDBRANCH   8  11
ENDBRANCH   7   8
ENDBRANCH   1   7
BRANCH   6  13
ATOM     13  N   LIG d   1      -4.681  76.402 117.516  0.00  0.00    -0.311 N 
ATOM     14  C   LIG d   1      -4.592  77.719 117.332  0.00  0.00     0.210 C 
ATOM     15  C   LIG d   1      -3.609  78.436 118.263  0.00  0.00     0.109 C 
ATOM     16  O   LIG d   1      -5.258  78.364 116.509  0.00  0.00    -0.276 OA
ATOM     17  H   LIG d   1      -4.128  75.965 118.227  0.00  0.00     0.149 HD
ENDBRANCH   6  13
BRANCH   5  18
ATOM     18  N   LIG d   1      -7.734  76.498 117.529  0.00  0.00     0.381 N 
ATOM     19  H   LIG d   1      -8.266  76.656 116.696  0.00  0.00    -0.090 HD
ATOM     20  H   LIG d   1      -7.116  77.279 117.661  0.00  0.00    -0.090 HD
ATOM     21  H   LIG d   1      -8.346  76.412 118.311  0.00  0.00    -0.090 HD
ENDBRANCH   5  18
BRANCH   3  22
ATOM     22  C   LIG d   1      -7.736  71.951 116.025  0.00  0.00     0.382 C 
ATOM     23  O   LIG d   1      -7.166  70.937 115.553  0.00  0.00    -0.241 OA
ATOM     24  O   LIG d   1      -8.953  71.904 116.285  0.00  0.00    -0.241 OA
ENDBRANCH   3  22
TORSDOF 7
ENDMDL
MODEL 4
REMARK VINA RESULT:      -5.5      2.572      5.298
REMARK  7 active torsions:
REMARK  status: ('A' for Active; 'I' for Inactive)
REMARK    1  A    between atoms: C_2  and  C_3 
REMARK    2  A    between atoms: C_3  and  O_6 
REMARK    3  A    between atoms: C_3  and  C_4 
REMARK    4  A    between atoms: C_7  and  O_6 
REMARK    5  A    between atoms: C_9  and  C_10 
REMARK    6  A    between atoms: N_15  and  C_14 
REMARK    7  A    between atoms: N_20  and  C_19 
REMARK       I    between atoms: C_22  and  N_20 
ROOT
ATOM      1  C   LIG d   1      -4.181  74.494 116.660  0.00  0.00     0.161 C 
ATOM      2  C   LIG d   1      -3.154  73.540 116.581  0.00  0.00     0.016 C 
ATOM      3  C   LIG d   1      -1.883  73.713 117.176  0.00  0.00     0.038 C 
ATOM      4  C   LIG d   1      -1.602  74.795 118.023  0.00  0.00     0.028 C 
ATOM      5  C   LIG d   1      -2.440  76.033 117.723  0.00  0.00    -0.047 C 
ATOM      6  C   LIG d   1      -3.931  75.631 117.674  0.00  0.00     0.091 C 
ENDROOT
BRANCH   1   7
ATOM      7  O   LIG d   1      -5.435  73.841 116.940  0.00  0.00    -0.368 OA
BRANCH   7   8
ATOM      8  C   LIG d   1      -6.417  73.863 115.874  0.00  0.00     0.119 C 
BRANCH   8   9
ATOM      9  C   LIG d   1      -6.706  72.402 115.480  0.00  0.00     0.028 C 
ATOM     10  C   LIG d   1      -7.997  71.866 116.122  0.00  0.00     0.006 C 
ENDBRANCH   8   9
BRANCH   8  11
ATOM     11  C   LIG d   1      -5.853  74.520 114.611  0.00  0.00     0.028 C 
ATOM     12  C   LIG d   1      -6.543  75.851 114.272  0.00  0.00     0.006 C 
ENDBRANCH   8  11
ENDBRANCH   7   8
ENDBRANCH   1   7
BRANCH   6  13
ATOM     13  N   LIG d   1      -4.813  76.767 117.302  0.00  0.00    -0.311 N 
ATOM     14  C   LIG d   1      -5.965  77.034 117.917  0.00  0.00     0.210 C 
ATOM     15  C   LIG d   1      -6.729  78.240 117.363  0.00  0.00     0.109 C 
ATOM     16  O   LIG d   1      -6.409  76.405 118.889  0.00  0.00    -0.276 OA
ATOM     17  H   LIG d   1      -4.514  77.348 116.543  0.00  0.00     0.149 HD
ENDBRANCH   6  13
BRANCH   5  18
ATOM     18  N   LIG d   1      -2.145  77.035 118.765  0.00  0.00     0.381 N 
ATOM     19  H   LIG d   1      -1.691  77.827 118.355  0.00  0.00    -0.090 HD
ATOM     20  H   LIG d   1      -1.521  76.628 119.439  0.00  0.00    -0.090 HD
ATOM     21  H   LIG d   1      -2.988  77.321 119.211  0.00  0.00    -0.090 HD
ENDBRANCH   5  18
BRANCH   3  22
ATOM     22  C   LIG d   1      -0.863  72.818 116.891  0.00  0.00     0.382 C 
ATOM     23  O   LIG d   1      -0.416  72.727 115.723  0.00  0.00    -0.241 OA
ATOM     24  O   LIG d   1      -0.415  72.067 117.779  0.00  0.00    -0.241 OA
ENDBRANCH   3  22
TORSDOF 7
ENDMDL
MODEL 5
REMARK VINA RESULT:      -5.4      1.596      2.218
REMARK  7 active torsions:
REMARK  status: ('A' for Active; 'I' for Inactive)
REMARK    1  A    between atoms: C_2  and  C_3 
REMARK    2  A    between atoms: C_3  and  O_6 
REMARK    3  A    between atoms: C_3  and  C_4 
REMARK    4  A    between atoms: C_7  and  O_6 
REMARK    5  A    between atoms: C_9  and  C_10 
REMARK    6  A    between atoms: N_15  and  C_14 
REMARK    7  A    between atoms: N_20  and  C_19 
REMARK       I    between atoms: C_22  and  N_20 
ROOT
ATOM      1  C   LIG d   1      -5.560  75.502 115.056  0.00  0.00     0.161 C 
ATOM      2  C   LIG d   1      -6.560  74.539 115.270  0.00  0.00     0.016 C 
ATOM      3  C   LIG d   1      -6.321  73.294 115.896  0.00  0.00     0.038 C 
ATOM      4  C   LIG d   1      -5.087  72.988 116.489  0.00  0.00     0.028 C 
ATOM      5  C   LIG d   1      -3.911  73.721 115.853  0.00  0.00    -0.047 C 
ATOM      6  C   LIG d   1      -4.233  75.232 115.795  0.00  0.00     0.091 C 
ENDROOT
BRANCH   1   7
ATOM      7  O   LIG d   1      -6.062  76.811 115.390  0.00  0.00    -0.368 OA
BRANCH   7   8
ATOM      8  C   LIG d   1      -6.032  77.166 116.795  0.00  0.00     0.119 C 
BRANCH   8   9
ATOM      9  C   LIG d   1      -7.446  77.637 117.184  0.00  0.00     0.028 C 
ATOM     10  C   LIG d   1      -8.472  76.491 117.164  0.00  0.00     0.006 C 
ENDBRANCH   8   9
BRANCH   8  11
ATOM     11  C   LIG d   1      -5.120  78.371 117.045  0.00  0.00     0.028 C 
ATOM     12  C   LIG d   1      -5.894  79.621 117.492  0.00  0.00     0.006 C 
ENDBRANCH   8  11
ENDBRANCH   7   8
ENDBRANCH   1   7
BRANCH   6  13
ATOM     13  N   LIG d   1      -3.170  76.013 115.111  0.00  0.00    -0.311 N 
ATOM     14  C   LIG d   1      -2.160  76.597 115.754  0.00  0.00     0.210 C 
ATOM     15  C   LIG d   1      -1.185  77.370 114.860  0.00  0.00     0.109 C 
ATOM     16  O   LIG d   1      -1.961  76.521 116.976  0.00  0.00    -0.276 OA
ATOM     17  H   LIG d   1      -3.236  76.099 114.116  0.00  0.00     0.149 HD
ENDBRANCH   6  13
BRANCH   5  18
ATOM     18  N   LIG d   1      -2.710  73.417 116.654  0.00  0.00     0.381 N 
ATOM     19  H   LIG d   1      -1.910  73.359 116.057  0.00  0.00    -0.090 HD
ATOM     20  H   LIG d   1      -2.835  72.525 117.101  0.00  0.00    -0.090 HD
ATOM     21  H   LIG d   1      -2.570  74.124 117.342  0.00  0.00    -0.090 HD
ENDBRANCH   5  18
BRANCH   3  22
ATOM     22  C   LIG d   1      -7.311  72.324 115.897  0.00  0.00     0.382 C 
ATOM     23  O   LIG d   1      -7.115  71.227 115.320  0.00  0.00    -0.241 OA
ATOM     24  O   LIG d   1      -8.415  72.548 116.429  0.00  0.00    -0.241 OA
ENDBRANCH   3  22
TORSDOF 7
ENDMDL
MODEL 6
REMARK VINA RESULT:      -5.3      2.369      5.305
REMARK  7 active torsions:
REMARK  status: ('A' for Active; 'I' for Inactive)
REMARK    1  A    between atoms: C_2  and  C_3 
REMARK    2  A    between atoms: C_3  and  O_6 
REMARK    3  A    between atoms: C_3  and  C_4 
REMARK    4  A    between atoms: C_7  and  O_6 
REMARK    5  A    between atoms: C_9  and  C_10 
REMARK    6  A    between atoms: N_15  and  C_14 
REMARK    7  A    between atoms: N_20  and  C_19 
REMARK       I    between atoms: C_22  and  N_20 
ROOT
ATOM      1  C   LIG d   1      -4.794  75.457 117.697  0.00  0.00     0.161 C 
ATOM      2  C   LIG d   1      -5.703  76.526 117.633  0.00  0.00     0.016 C 
ATOM      3  C   LIG d   1      -5.373  77.799 117.113  0.00  0.00     0.038 C 
ATOM      4  C   LIG d   1      -4.146  78.045 116.480  0.00  0.00     0.028 C 
ATOM      5  C   LIG d   1      -3.018  77.146 116.974  0.00  0.00    -0.047 C 
ATOM      6  C   LIG d   1      -3.485  75.674 116.910  0.00  0.00     0.091 C 
ENDROOT
BRANCH   1   7
ATOM      7  O   LIG d   1      -5.439  74.240 117.272  0.00  0.00    -0.368 OA
BRANCH   7   8
ATOM      8  C   LIG d   1      -6.513  74.390 116.312  0.00  0.00     0.119 C 
BRANCH   8   9
ATOM      9  C   LIG d   1      -7.485  73.212 116.518  0.00  0.00     0.028 C 
ATOM     10  C   LIG d   1      -7.030  71.940 115.784  0.00  0.00     0.006 C 
ENDBRANCH   8   9
BRANCH   8  11
ATOM     11  C   LIG d   1      -6.001  74.247 114.876  0.00  0.00     0.028 C 
ATOM     12  C   LIG d   1      -6.022  75.574 114.101  0.00  0.00     0.006 C 
ENDBRANCH   8  11
ENDBRANCH   7   8
ENDBRANCH   1   7
BRANCH   6  13
ATOM     13  N   LIG d   1      -2.471  74.734 117.455  0.00  0.00    -0.311 N 
ATOM     14  C   LIG d   1      -1.982  73.703 116.767  0.00  0.00     0.210 C 
ATOM     15  C   LIG d   1      -0.962  72.847 117.523  0.00  0.00     0.109 C 
ATOM     16  O   LIG d   1      -2.273  73.436 115.591  0.00  0.00    -0.276 OA
ATOM     17  H   LIG d   1      -2.156  74.895 118.391  0.00  0.00     0.149 HD
ENDBRANCH   6  13
BRANCH   5  18
ATOM     18  N   LIG d   1      -1.834  77.415 116.136  0.00  0.00     0.381 N 
ATOM     19  H   LIG d   1      -2.014  78.194 115.535  0.00  0.00    -0.090 HD
ATOM     20  H   LIG d   1      -1.653  76.610 115.562  0.00  0.00    -0.090 HD
ATOM     21  H   LIG d   1      -1.044  77.606 116.712  0.00  0.00    -0.090 HD
ENDBRANCH   5  18
BRANCH   3  22
ATOM     22  C   LIG d   1      -6.262  78.853 117.261  0.00  0.00     0.382 C 
ATOM     23  O   LIG d   1      -7.379  78.660 117.797  0.00  0.00    -0.241 OA
ATOM     24  O   LIG d   1      -5.977  79.984 116.824  0.00  0.00    -0.241 OA
ENDBRANCH   3  22
TORSDOF 7
ENDMDL
MODEL 7
REMARK VINA RESULT:      -5.2     11.349     13.857
REMARK  7 active torsions:
REMARK  status: ('A' for Active; 'I' for Inactive)
REMARK    1  A    between atoms: C_2  and  C_3 
REMARK    2  A    between atoms: C_3  and  O_6 
REMARK    3  A    between atoms: C_3  and  C_4 
REMARK    4  A    between atoms: C_7  and  O_6 
REMARK    5  A    between atoms: C_9  and  C_10 
REMARK    6  A    between atoms: N_15  and  C_14 
REMARK    7  A    between atoms: N_20  and  C_19 
REMARK       I    between atoms: C_22  and  N_20 
ROOT
ATOM      1  C   LIG d   1     -15.197  66.222 116.443  0.00  0.00     0.161 C 
ATOM      2  C   LIG d   1     -14.806  67.408 115.799  0.00  0.00     0.016 C 
ATOM      3  C   LIG d   1     -14.776  67.555 114.393  0.00  0.00     0.038 C 
ATOM      4  C   LIG d   1     -15.283  66.569 113.533  0.00  0.00     0.028 C 
ATOM      5  C   LIG d   1     -15.217  65.163 114.118  0.00  0.00    -0.047 C 
ATOM      6  C   LIG d   1     -15.859  65.174 115.524  0.00  0.00     0.091 C 
ENDROOT
BRANCH   1   7
ATOM      7  O   LIG d   1     -16.063  66.533 117.554  0.00  0.00    -0.368 OA
BRANCH   7   8
ATOM      8  C   LIG d   1     -15.471  66.426 118.872  0.00  0.00     0.119 C 
BRANCH   8   9
ATOM      9  C   LIG d   1     -15.011  67.837 119.288  0.00  0.00     0.028 C 
ATOM     10  C   LIG d   1     -13.480  67.984 119.269  0.00  0.00     0.006 C 
ENDBRANCH   8   9
BRANCH   8  11
ATOM     11  C   LIG d   1     -14.198  65.576 118.844  0.00  0.00     0.028 C 
ATOM     12  C   LIG d   1     -14.373  64.217 119.541  0.00  0.00     0.006 C 
ENDBRANCH   8  11
ENDBRANCH   7   8
ENDBRANCH   1   7
BRANCH   6  13
ATOM     13  N   LIG d   1     -15.761  63.856 116.203  0.00  0.00    -0.311 N 
ATOM     14  C   LIG d   1     -16.822  63.133 116.557  0.00  0.00     0.210 C 
ATOM     15  C   LIG d   1     -16.498  61.812 117.263  0.00  0.00     0.109 C 
ATOM     16  O   LIG d   1     -18.000  63.444 116.324  0.00  0.00    -0.276 OA
ATOM     17  H   LIG d   1     -14.842  63.512 116.402  0.00  0.00     0.149 HD
ENDBRANCH   6  13
BRANCH   5  18
ATOM     18  N   LIG d   1     -15.901  64.256 113.177  0.00  0.00     0.381 N 
ATOM     19  H   LIG d   1     -16.892  64.345 113.282  0.00  0.00    -0.090 HD
ATOM     20  H   LIG d   1     -15.645  63.309 113.394  0.00  0.00    -0.090 HD
ATOM     21  H   LIG d   1     -15.638  64.474 112.242  0.00  0.00    -0.090 HD
ENDBRANCH   5  18
BRANCH   3  22
ATOM     22  C   LIG d   1     -14.197  68.684 113.833  0.00  0.00     0.382 C 
ATOM     23  O   LIG d   1     -13.208  69.222 114.386  0.00  0.00    -0.241 OA
ATOM     24  O   LIG d   1     -14.679  69.197 112.805  0.00  0.00    -0.241 OA
ENDBRANCH   3  22
TORSDOF 7
ENDMDL
MODEL 8
REMARK VINA RESULT:      -4.8      2.617      4.918
REMARK  7 active torsions:
REMARK  status: ('A' for Active; 'I' for Inactive)
REMARK    1  A    between atoms: C_2  and  C_3 
REMARK    2  A    between atoms: C_3  and  O_6 
REMARK    3  A    between atoms: C_3  and  C_4 
REMARK    4  A    between atoms: C_7  and  O_6 
REMARK    5  A    between atoms: C_9  and  C_10 
REMARK    6  A    between atoms: N_15  and  C_14 
REMARK    7  A    between atoms: N_20  and  C_19 
REMARK       I    between atoms: C_22  and  N_20 
ROOT
ATOM      1  C   LIG d   1      -3.696  75.658 117.985  0.00  0.00     0.161 C 
ATOM      2  C   LIG d   1      -2.439  75.032 117.954  0.00  0.00     0.016 C 
ATOM      3  C   LIG d   1      -2.108  73.995 117.052  0.00  0.00     0.038 C 
ATOM      4  C   LIG d   1      -2.969  73.615 116.012  0.00  0.00     0.028 C 
ATOM      5  C   LIG d   1      -4.441  73.869 116.320  0.00  0.00    -0.047 C 
ATOM      6  C   LIG d   1      -4.610  75.333 116.786  0.00  0.00     0.091 C 
ENDROOT
BRANCH   1   7
ATOM      7  O   LIG d   1      -3.528  77.083 118.116  0.00  0.00    -0.368 OA
BRANCH   7   8
ATOM      8  C   LIG d   1      -3.513  77.840 116.881  0.00  0.00     0.119 C 
BRANCH   8   9
ATOM      9  C   LIG d   1      -2.112  78.465 116.738  0.00  0.00     0.028 C 
ATOM     10  C   LIG d   1      -1.240  77.724 115.710  0.00  0.00     0.006 C 
ENDBRANCH   8   9
BRANCH   8  11
ATOM     11  C   LIG d   1      -4.481  79.025 116.940  0.00  0.00     0.028 C 
ATOM     12  C   LIG d   1      -5.272  79.082 118.257  0.00  0.00     0.006 C 
ENDBRANCH   8  11
ENDBRANCH   7   8
ENDBRANCH   1   7
BRANCH   6  13
ATOM     13  N   LIG d   1      -6.007  75.642 117.188  0.00  0.00    -0.311 N 
ATOM     14  C   LIG d   1      -6.890  76.228 116.381  0.00  0.00     0.210 C 
ATOM     15  C   LIG d   1      -8.269  76.474 117.001  0.00  0.00     0.109 C 
ATOM     16  O   LIG d   1      -6.672  76.537 115.200  0.00  0.00    -0.276 OA
ATOM     17  H   LIG d   1      -6.278  75.396 118.120  0.00  0.00     0.149 HD
ENDBRANCH   6  13
BRANCH   5  18
ATOM     18  N   LIG d   1      -5.212  73.557 115.102  0.00  0.00     0.381 N 
ATOM     19  H   LIG d   1      -4.722  73.891 114.296  0.00  0.00    -0.090 HD
ATOM     20  H   LIG d   1      -6.099  74.027 115.149  0.00  0.00    -0.090 HD
ATOM     21  H   LIG d   1      -5.353  72.573 115.030  0.00  0.00    -0.090 HD
ENDBRANCH   5  18
BRANCH   3  22
ATOM     22  C   LIG d   1      -0.919  73.298 117.210  0.00  0.00     0.382 C 
ATOM     23  O   LIG d   1      -0.466  72.608 116.266  0.00  0.00    -0.241 OA
ATOM     24  O   LIG d   1      -0.317  73.317 118.301  0.00  0.00    -0.241 OA
ENDBRANCH   3  22
TORSDOF 7
ENDMDL
MODEL 9
REMARK VINA RESULT:      -4.8     11.417     15.047
REMARK  7 active torsions:
REMARK  status: ('A' for Active; 'I' for Inactive)
REMARK    1  A    between atoms: C_2  and  C_3 
REMARK    2  A    between atoms: C_3  and  O_6 
REMARK    3  A    between atoms: C_3  and  C_4 
REMARK    4  A    between atoms: C_7  and  O_6 
REMARK    5  A    between atoms: C_9  and  C_10 
REMARK    6  A    between atoms: N_15  and  C_14 
REMARK    7  A    between atoms: N_20  and  C_19 
REMARK       I    between atoms: C_22  and  N_20 
ROOT
ATOM      1  C   LIG d   1     -15.703  65.074 116.660  0.00  0.00     0.161 C 
ATOM      2  C   LIG d   1     -15.030  66.307 116.639  0.00  0.00     0.016 C 
ATOM      3  C   LIG d   1     -14.691  66.989 115.448  0.00  0.00     0.038 C 
ATOM      4  C   LIG d   1     -15.140  66.556 114.192  0.00  0.00     0.028 C 
ATOM      5  C   LIG d   1     -15.390  65.053 114.124  0.00  0.00    -0.047 C 
ATOM      6  C   LIG d   1     -16.299  64.641 115.304  0.00  0.00     0.091 C 
ENDROOT
BRANCH   1   7
ATOM      7  O   LIG d   1     -16.728  65.094 117.674  0.00  0.00    -0.368 OA
BRANCH   7   8
ATOM      8  C   LIG d   1     -17.986  65.706 117.297  0.00  0.00     0.119 C 
BRANCH   8   9
ATOM      9  C   LIG d   1     -18.254  66.858 118.285  0.00  0.00     0.028 C 
ATOM     10  C   LIG d   1     -17.336  66.800 119.517  0.00  0.00     0.006 C 
ENDBRANCH   8   9
BRANCH   8  11
ATOM     11  C   LIG d   1     -19.155  64.734 117.481  0.00  0.00     0.028 C 
ATOM     12  C   LIG d   1     -18.746  63.439 118.202  0.00  0.00     0.006 C 
ENDBRANCH   8  11
ENDBRANCH   7   8
ENDBRANCH   1   7
BRANCH   6  13
ATOM     13  N   LIG d   1     -16.524  63.173 115.361  0.00  0.00    -0.311 N 
ATOM     14  C   LIG d   1     -17.548  62.565 114.764  0.00  0.00     0.210 C 
ATOM     15  C   LIG d   1     -17.605  61.047 114.964  0.00  0.00     0.109 C 
ATOM     16  O   LIG d   1     -18.396  63.134 114.060  0.00  0.00    -0.276 OA
ATOM     17  H   LIG d   1     -15.866  62.630 115.885  0.00  0.00     0.149 HD
ENDBRANCH   6  13
BRANCH   5  18
ATOM     18  N   LIG d   1     -15.984  64.759 112.806  0.00  0.00     0.381 N 
ATOM     19  H   LIG d   1     -16.979  64.690 112.891  0.00  0.00    -0.090 HD
ATOM     20  H   LIG d   1     -15.634  63.875 112.481  0.00  0.00    -0.090 HD
ATOM     21  H   LIG d   1     -15.747  65.477 112.157  0.00  0.00    -0.090 HD
ENDBRANCH   5  18
BRANCH   3  22
ATOM     22  C   LIG d   1     -13.861  68.098 115.504  0.00  0.00     0.382 C 
ATOM     23  O   LIG d   1     -12.876  68.106 116.281  0.00  0.00    -0.241 OA
ATOM     24  O   LIG d   1     -14.109  69.109 114.819  0.00  0.00    -0.241 OA
ENDBRANCH   3  22
TORSDOF 7
ENDMDL
