MODEL 1
REMARK VINA RESULT:      -5.8      0.000      0.000
REMARK  7 active torsions:
REMARK  status: ('A' for Active; 'I' for Inactive)
REMARK    1  A    between atoms: C_2  and  C_3 
REMARK    2  A    between atoms: C_3  and  O_6 
REMARK    3  A    between atoms: C_3  and  C_4 
REMARK    4  A    between atoms: C_7  and  O_6 
REMARK    5  A    between atoms: C_9  and  C_10 
REMARK    6  A    between atoms: N_15  and  C_14 
REMARK    7  A    between atoms: N_20  and  C_19 
REMARK       I    between atoms: C_22  and  N_20 
ROOT
ATOM      1  C   LIG d   1      -7.221  75.952 117.341  0.00  0.00     0.161 C 
ATOM      2  C   LIG d   1      -8.538  76.236 117.742  0.00  0.00     0.016 C 
ATOM      3  C   LIG d   1      -8.958  77.510 118.188  0.00  0.00     0.038 C 
ATOM      4  C   LIG d   1      -8.120  78.633 118.120  0.00  0.00     0.028 C 
ATOM      5  C   LIG d   1      -6.637  78.287 118.198  0.00  0.00    -0.047 C 
ATOM      6  C   LIG d   1      -6.321  77.191 117.155  0.00  0.00     0.091 C 
ENDROOT
BRANCH   1   7
ATOM      7  O   LIG d   1      -7.237  75.159 116.138  0.00  0.00    -0.368 OA
BRANCH   7   8
ATOM      8  C   LIG d   1      -6.690  73.822 116.249  0.00  0.00     0.119 C 
BRANCH   8   9
ATOM      9  C   LIG d   1      -5.787  73.588 115.022  0.00  0.00     0.028 C 
ATOM     10  C   LIG d   1      -5.619  74.855 114.167  0.00  0.00     0.006 C 
ENDBRANCH   8   9
BRANCH   8  11
ATOM     11  C   LIG d   1      -7.789  72.760 116.152  0.00  0.00     0.028 C 
ATOM     12  C   LIG d   1      -7.284  71.347 116.485  0.00  0.00     0.006 C 
ENDBRANCH   8  11
ENDBRANCH   7   8
ENDBRANCH   1   7
BRANCH   6  13
ATOM     13  N   LIG d   1      -4.908  76.735 117.222  0.00  0.00    -0.311 N 
ATOM     14  C   LIG d   1      -3.941  77.227 116.450  0.00  0.00     0.210 C 
ATOM     15  C   LIG d   1      -2.559  76.602 116.667  0.00  0.00     0.109 C 
ATOM     16  O   LIG d   1      -4.090  78.144 115.628  0.00  0.00    -0.276 OA
ATOM     17  H   LIG d   1      -4.692  76.015 117.884  0.00  0.00     0.149 HD
ENDBRANCH   6  13
BRANCH   5  18
ATOM     18  N   LIG d   1      -5.877  79.532 117.977  0.00  0.00     0.381 N 
ATOM     19  H   LIG d   1      -6.415  80.317 118.285  0.00  0.00    -0.090 HD
ATOM     20  H   LIG d   1      -5.703  79.636 116.993  0.00  0.00    -0.090 HD
ATOM     21  H   LIG d   1      -5.014  79.497 118.473  0.00  0.00    -0.090 HD
ENDBRANCH   5  18
BRANCH   3  22
ATOM     22  C   LIG d   1     -10.218  77.661 118.746  0.00  0.00     0.382 C 
ATOM     23  O   LIG d   1     -11.048  76.722 118.686  0.00  0.00    -0.241 OA
ATOM     24  O   LIG d   1     -10.551  78.741 119.270  0.00  0.00    -0.241 OA
ENDBRANCH   3  22
TORSDOF 7
ENDMDL
MODEL 2
REMARK VINA RESULT:      -5.3      2.096      4.161
REMARK  7 active torsions:
REMARK  status: ('A' for Active; 'I' for Inactive)
REMARK    1  A    between atoms: C_2  and  C_3 
REMARK    2  A    between atoms: C_3  and  O_6 
REMARK    3  A    between atoms: C_3  and  C_4 
REMARK    4  A    between atoms: C_7  and  O_6 
REMARK    5  A    between atoms: C_9  and  C_10 
REMARK    6  A    between atoms: N_15  and  C_14 
REMARK    7  A    between atoms: N_20  and  C_19 
REMARK       I    between atoms: C_22  and  N_20 
ROOT
ATOM      1  C   LIG d   1      -6.715  76.259 116.950  0.00  0.00     0.161 C 
ATOM      2  C   LIG d   1      -7.386  77.341 117.543  0.00  0.00     0.016 C 
ATOM      3  C   LIG d   1      -8.736  77.286 117.961  0.00  0.00     0.038 C 
ATOM      4  C   LIG d   1      -9.466  76.088 117.952  0.00  0.00     0.028 C 
ATOM      5  C   LIG d   1      -8.990  75.096 116.896  0.00  0.00    -0.047 C 
ATOM      6  C   LIG d   1      -7.462  74.911 117.034  0.00  0.00     0.091 C 
ENDROOT
BRANCH   1   7
ATOM      7  O   LIG d   1      -5.394  76.136 117.513  0.00  0.00    -0.368 OA
BRANCH   7   8
ATOM      8  C   LIG d   1      -4.306  76.639 116.699  0.00  0.00     0.119 C 
BRANCH   8   9
ATOM      9  C   LIG d   1      -3.745  75.453 115.891  0.00  0.00     0.028 C 
ATOM     10  C   LIG d   1      -4.004  75.597 114.382  0.00  0.00     0.006 C 
ENDBRANCH   8   9
BRANCH   8  11
ATOM     11  C   LIG d   1      -3.140  77.125 117.566  0.00  0.00     0.028 C 
ATOM     12  C   LIG d   1      -2.044  76.062 117.742  0.00  0.00     0.006 C 
ENDBRANCH   8  11
ENDBRANCH   7   8
ENDBRANCH   1   7
BRANCH   6  13
ATOM     13  N   LIG d   1      -6.901  74.021 115.984  0.00  0.00    -0.311 N 
ATOM     14  C   LIG d   1      -6.790  72.701 116.125  0.00  0.00     0.210 C 
ATOM     15  C   LIG d   1      -6.167  71.973 114.929  0.00  0.00     0.109 C 
ATOM     16  O   LIG d   1      -7.178  72.060 117.113  0.00  0.00    -0.276 OA
ATOM     17  H   LIG d   1      -6.591  74.454 115.137  0.00  0.00     0.149 HD
ENDBRANCH   6  13
BRANCH   5  18
ATOM     18  N   LIG d   1      -9.744  73.843 117.089  0.00  0.00     0.381 N 
ATOM     19  H   LIG d   1     -10.676  73.952 116.742  0.00  0.00    -0.090 HD
ATOM     20  H   LIG d   1      -9.795  73.643 118.072  0.00  0.00    -0.090 HD
ATOM     21  H   LIG d   1      -9.290  73.095 116.613  0.00  0.00    -0.090 HD
ENDBRANCH   5  18
BRANCH   3  22
ATOM     22  C   LIG d   1      -9.381  78.447 118.357  0.00  0.00     0.382 C 
ATOM     23  O   LIG d   1     -10.519  78.385 118.881  0.00  0.00    -0.241 OA
ATOM     24  O   LIG d   1      -8.859  79.560 118.157  0.00  0.00    -0.241 OA
ENDBRANCH   3  22
TORSDOF 7
ENDMDL
MODEL 3
REMARK VINA RESULT:      -5.3      1.177      2.074
REMARK  7 active torsions:
REMARK  status: ('A' for Active; 'I' for Inactive)
REMARK    1  A    between atoms: C_2  and  C_3 
REMARK    2  A    between atoms: C_3  and  O_6 
REMARK    3  A    between atoms: C_3  and  C_4 
REMARK    4  A    between atoms: C_7  and  O_6 
REMARK    5  A    between atoms: C_9  and  C_10 
REMARK    6  A    between atoms: N_15  and  C_14 
REMARK    7  A    between atoms: N_20  and  C_19 
REMARK       I    between atoms: C_22  and  N_20 
ROOT
ATOM      1  C   LIG d   1      -6.523  76.537 117.871  0.00  0.00     0.161 C 
ATOM      2  C   LIG d   1      -7.897  76.344 118.088  0.00  0.00     0.016 C 
ATOM      3  C   LIG d   1      -8.817  77.407 118.242  0.00  0.00     0.038 C 
ATOM      4  C   LIG d   1      -8.446  78.744 118.037  0.00  0.00     0.028 C 
ATOM      5  C   LIG d   1      -6.971  79.013 118.316  0.00  0.00    -0.047 C 
ATOM      6  C   LIG d   1      -6.118  77.987 117.535  0.00  0.00     0.091 C 
ENDROOT
BRANCH   1   7
ATOM      7  O   LIG d   1      -6.059  75.636 116.846  0.00  0.00    -0.368 OA
BRANCH   7   8
ATOM      8  C   LIG d   1      -7.067  75.139 115.931  0.00  0.00     0.119 C 
BRANCH   8   9
ATOM      9  C   LIG d   1      -6.954  73.602 115.909  0.00  0.00     0.028 C 
ATOM     10  C   LIG d   1      -8.169  72.915 116.555  0.00  0.00     0.006 C 
ENDBRANCH   8   9
BRANCH   8  11
ATOM     11  C   LIG d   1      -6.784  75.587 114.494  0.00  0.00     0.028 C 
ATOM     12  C   LIG d   1      -5.395  75.156 113.998  0.00  0.00     0.006 C 
ENDBRANCH   8  11
ENDBRANCH   7   8
ENDBRANCH   1   7
BRANCH   6  13
ATOM     13  N   LIG d   1      -4.665  78.126 117.817  0.00  0.00    -0.311 N 
ATOM     14  C   LIG d   1      -3.832  78.822 117.046  0.00  0.00     0.210 C 
ATOM     15  C   LIG d   1      -2.371  78.820 117.506  0.00  0.00     0.109 C 
ATOM     16  O   LIG d   1      -4.169  79.468 116.042  0.00  0.00    -0.276 OA
ATOM     17  H   LIG d   1      -4.312  77.659 118.629  0.00  0.00     0.149 HD
ENDBRANCH   6  13
BRANCH   5  18
ATOM     18  N   LIG d   1      -6.691  80.409 117.931  0.00  0.00     0.381 N 
ATOM     19  H   LIG d   1      -7.421  81.005 118.266  0.00  0.00    -0.090 HD
ATOM     20  H   LIG d   1      -6.668  80.472 116.928  0.00  0.00    -0.090 HD
ATOM     21  H   LIG d   1      -5.816  80.699 118.309  0.00  0.00    -0.090 HD
ENDBRANCH   5  18
BRANCH   3  22
ATOM     22  C   LIG d   1     -10.117  77.139 118.644  0.00  0.00     0.382 C 
ATOM     23  O   LIG d   1     -10.645  77.822 119.553  0.00  0.00    -0.241 OA
ATOM     24  O   LIG d   1     -10.751  76.193 118.139  0.00  0.00    -0.241 OA
ENDBRANCH   3  22
TORSDOF 7
ENDMDL
MODEL 4
REMARK VINA RESULT:      -5.2      1.961      5.007
REMARK  7 active torsions:
REMARK  status: ('A' for Active; 'I' for Inactive)
REMARK    1  A    between atoms: C_2  and  C_3 
REMARK    2  A    between atoms: C_3  and  O_6 
REMARK    3  A    between atoms: C_3  and  C_4 
REMARK    4  A    between atoms: C_7  and  O_6 
REMARK    5  A    between atoms: C_9  and  C_10 
REMARK    6  A    between atoms: N_15  and  C_14 
REMARK    7  A    between atoms: N_20  and  C_19 
REMARK       I    between atoms: C_22  and  N_20 
ROOT
ATOM      1  C   LIG d   1      -7.286  75.675 117.486  0.00  0.00     0.161 C 
ATOM      2  C   LIG d   1      -7.939  74.434 117.396  0.00  0.00     0.016 C 
ATOM      3  C   LIG d   1      -7.526  73.399 116.527  0.00  0.00     0.038 C 
ATOM      4  C   LIG d   1      -6.334  73.479 115.792  0.00  0.00     0.028 C 
ATOM      5  C   LIG d   1      -5.916  74.909 115.469  0.00  0.00    -0.047 C 
ATOM      6  C   LIG d   1      -5.919  75.739 116.773  0.00  0.00     0.091 C 
ENDROOT
BRANCH   1   7
ATOM      7  O   LIG d   1      -7.148  76.056 118.869  0.00  0.00    -0.368 OA
BRANCH   7   8
ATOM      8  C   LIG d   1      -8.015  77.124 119.325  0.00  0.00     0.119 C 
BRANCH   8   9
ATOM      9  C   LIG d   1      -9.111  77.318 118.259  0.00  0.00     0.028 C 
ATOM     10  C   LIG d   1     -10.511  76.965 118.787  0.00  0.00     0.006 C 
ENDBRANCH   8   9
BRANCH   8  11
ATOM     11  C   LIG d   1      -7.268  78.460 119.385  0.00  0.00     0.028 C 
ATOM     12  C   LIG d   1      -7.776  79.474 118.349  0.00  0.00     0.006 C 
ENDBRANCH   8  11
ENDBRANCH   7   8
ENDBRANCH   1   7
BRANCH   6  13
ATOM     13  N   LIG d   1      -5.603  77.171 116.534  0.00  0.00    -0.311 N 
ATOM     14  C   LIG d   1      -4.530  77.780 117.039  0.00  0.00     0.210 C 
ATOM     15  C   LIG d   1      -4.404  79.265 116.686  0.00  0.00     0.109 C 
ATOM     16  O   LIG d   1      -3.655  77.222 117.717  0.00  0.00    -0.276 OA
ATOM     17  H   LIG d   1      -6.244  77.692 115.968  0.00  0.00     0.149 HD
ENDBRANCH   6  13
BRANCH   5  18
ATOM     18  N   LIG d   1      -4.591  74.852 114.823  0.00  0.00     0.381 N 
ATOM     19  H   LIG d   1      -4.688  74.531 113.880  0.00  0.00    -0.090 HD
ATOM     20  H   LIG d   1      -4.014  74.197 115.322  0.00  0.00    -0.090 HD
ATOM     21  H   LIG d   1      -4.168  75.754 114.833  0.00  0.00    -0.090 HD
ENDBRANCH   5  18
BRANCH   3  22
ATOM     22  C   LIG d   1      -8.331  72.283 116.356  0.00  0.00     0.382 C 
ATOM     23  O   LIG d   1      -9.568  72.367 116.550  0.00  0.00    -0.241 OA
ATOM     24  O   LIG d   1      -7.831  71.183 116.052  0.00  0.00    -0.241 OA
ENDBRANCH   3  22
TORSDOF 7
ENDMDL
MODEL 5
REMARK VINA RESULT:      -5.2      2.114      4.661
REMARK  7 active torsions:
REMARK  status: ('A' for Active; 'I' for Inactive)
REMARK    1  A    between atoms: C_2  and  C_3 
REMARK    2  A    between atoms: C_3  and  O_6 
REMARK    3  A    between atoms: C_3  and  C_4 
REMARK    4  A    between atoms: C_7  and  O_6 
REMARK    5  A    between atoms: C_9  and  C_10 
REMARK    6  A    between atoms: N_15  and  C_14 
REMARK    7  A    between atoms: N_20  and  C_19 
REMARK       I    between atoms: C_22  and  N_20 
ROOT
ATOM      1  C   LIG d   1      -5.802  75.585 116.288  0.00  0.00     0.161 C 
ATOM      2  C   LIG d   1      -6.333  74.324 115.966  0.00  0.00     0.016 C 
ATOM      3  C   LIG d   1      -7.586  73.865 116.432  0.00  0.00     0.038 C 
ATOM      4  C   LIG d   1      -8.467  74.701 117.134  0.00  0.00     0.028 C 
ATOM      5  C   LIG d   1      -7.763  75.808 117.911  0.00  0.00    -0.047 C 
ATOM      6  C   LIG d   1      -6.798  76.553 116.961  0.00  0.00     0.091 C 
ENDROOT
BRANCH   1   7
ATOM      7  O   LIG d   1      -5.232  76.190 115.111  0.00  0.00    -0.368 OA
BRANCH   7   8
ATOM      8  C   LIG d   1      -3.793  76.088 114.975  0.00  0.00     0.119 C 
BRANCH   8   9
ATOM      9  C   LIG d   1      -3.205  75.923 116.390  0.00  0.00     0.028 C 
ATOM     10  C   LIG d   1      -2.123  74.831 116.452  0.00  0.00     0.006 C 
ENDBRANCH   8   9
BRANCH   8  11
ATOM     11  C   LIG d   1      -3.191  77.388 114.434  0.00  0.00     0.028 C 
ATOM     12  C   LIG d   1      -3.112  78.495 115.497  0.00  0.00     0.006 C 
ENDBRANCH   8  11
ENDBRANCH   7   8
ENDBRANCH   1   7
BRANCH   6  13
ATOM     13  N   LIG d   1      -6.006  77.597 117.661  0.00  0.00    -0.311 N 
ATOM     14  C   LIG d   1      -6.449  78.836 117.871  0.00  0.00     0.210 C 
ATOM     15  C   LIG d   1      -5.466  79.761 118.595  0.00  0.00     0.109 C 
ATOM     16  O   LIG d   1      -7.576  79.247 117.554  0.00  0.00    -0.276 OA
ATOM     17  H   LIG d   1      -5.092  77.340 117.980  0.00  0.00     0.149 HD
ENDBRANCH   6  13
BRANCH   5  18
ATOM     18  N   LIG d   1      -8.804  76.684 118.481  0.00  0.00     0.381 N 
ATOM     19  H   LIG d   1      -8.622  77.635 118.229  0.00  0.00    -0.090 HD
ATOM     20  H   LIG d   1      -8.776  76.613 119.483  0.00  0.00    -0.090 HD
ATOM     21  H   LIG d   1      -9.701  76.410 118.147  0.00  0.00    -0.090 HD
ENDBRANCH   5  18
BRANCH   3  22
ATOM     22  C   LIG d   1      -7.952  72.543 116.231  0.00  0.00     0.382 C 
ATOM     23  O   LIG d   1      -7.123  71.728 115.758  0.00  0.00    -0.241 OA
ATOM     24  O   LIG d   1      -9.113  72.165 116.475  0.00  0.00    -0.241 OA
ENDBRANCH   3  22
TORSDOF 7
ENDMDL
MODEL 6
REMARK VINA RESULT:      -5.2      2.093      4.622
REMARK  7 active torsions:
REMARK  status: ('A' for Active; 'I' for Inactive)
REMARK    1  A    between atoms: C_2  and  C_3 
REMARK    2  A    between atoms: C_3  and  O_6 
REMARK    3  A    between atoms: C_3  and  C_4 
REMARK    4  A    between atoms: C_7  and  O_6 
REMARK    5  A    between atoms: C_9  and  C_10 
REMARK    6  A    between atoms: N_15  and  C_14 
REMARK    7  A    between atoms: N_20  and  C_19 
REMARK       I    between atoms: C_22  and  N_20 
ROOT
ATOM      1  C   LIG d   1      -6.314  76.033 116.724  0.00  0.00     0.161 C 
ATOM      2  C   LIG d   1      -6.747  74.756 116.327  0.00  0.00     0.016 C 
ATOM      3  C   LIG d   1      -8.025  74.236 116.638  0.00  0.00     0.038 C 
ATOM      4  C   LIG d   1      -9.018  75.021 117.242  0.00  0.00     0.028 C 
ATOM      5  C   LIG d   1      -8.459  76.144 118.110  0.00  0.00    -0.047 C 
ATOM      6  C   LIG d   1      -7.424  76.945 117.288  0.00  0.00     0.091 C 
ENDROOT
BRANCH   1   7
ATOM      7  O   LIG d   1      -5.639  76.682 115.629  0.00  0.00    -0.368 OA
BRANCH   7   8
ATOM      8  C   LIG d   1      -4.192  76.707 115.697  0.00  0.00     0.119 C 
BRANCH   8   9
ATOM      9  C   LIG d   1      -3.771  78.139 116.078  0.00  0.00     0.028 C 
ATOM     10  C   LIG d   1      -3.225  78.228 117.513  0.00  0.00     0.006 C 
ENDBRANCH   8   9
BRANCH   8  11
ATOM     11  C   LIG d   1      -3.565  76.452 114.323  0.00  0.00     0.028 C 
ATOM     12  C   LIG d   1      -2.266  75.634 114.403  0.00  0.00     0.006 C 
ENDBRANCH   8  11
ENDBRANCH   7   8
ENDBRANCH   1   7
BRANCH   6  13
ATOM     13  N   LIG d   1      -6.766  78.011 118.088  0.00  0.00    -0.311 N 
ATOM     14  C   LIG d   1      -7.242  79.251 118.190  0.00  0.00     0.210 C 
ATOM     15  C   LIG d   1      -6.399  80.198 119.049  0.00  0.00     0.109 C 
ATOM     16  O   LIG d   1      -8.299  79.647 117.677  0.00  0.00    -0.276 OA
ATOM     17  H   LIG d   1      -5.919  77.767 118.563  0.00  0.00     0.149 HD
ENDBRANCH   6  13
BRANCH   5  18
ATOM     18  N   LIG d   1      -9.597  76.965 118.565  0.00  0.00     0.381 N 
ATOM     19  H   LIG d   1      -9.275  77.668 119.200  0.00  0.00    -0.090 HD
ATOM     20  H   LIG d   1     -10.248  76.375 119.052  0.00  0.00    -0.090 HD
ATOM     21  H   LIG d   1     -10.043  77.392 117.783  0.00  0.00    -0.090 HD
ENDBRANCH   5  18
BRANCH   3  22
ATOM     22  C   LIG d   1      -8.305  72.903 116.380  0.00  0.00     0.382 C 
ATOM     23  O   LIG d   1      -7.430  72.167 115.864  0.00  0.00    -0.241 OA
ATOM     24  O   LIG d   1      -9.437  72.439 116.616  0.00  0.00    -0.241 OA
ENDBRANCH   3  22
TORSDOF 7
ENDMDL
MODEL 7
REMARK VINA RESULT:      -4.8      2.308      5.048
REMARK  7 active torsions:
REMARK  status: ('A' for Active; 'I' for Inactive)
REMARK    1  A    between atoms: C_2  and  C_3 
REMARK    2  A    between atoms: C_3  and  O_6 
REMARK    3  A    between atoms: C_3  and  C_4 
REMARK    4  A    between atoms: C_7  and  O_6 
REMARK    5  A    between atoms: C_9  and  C_10 
REMARK    6  A    between atoms: N_15  and  C_14 
REMARK    7  A    between atoms: N_20  and  C_19 
REMARK       I    between atoms: C_22  and  N_20 
ROOT
ATOM      1  C   LIG d   1      -5.820  77.252 117.095  0.00  0.00     0.161 C 
ATOM      2  C   LIG d   1      -5.409  78.564 117.384  0.00  0.00     0.016 C 
ATOM      3  C   LIG d   1      -4.278  79.173 116.793  0.00  0.00     0.038 C 
ATOM      4  C   LIG d   1      -3.565  78.560 115.752  0.00  0.00     0.028 C 
ATOM      5  C   LIG d   1      -3.638  77.038 115.783  0.00  0.00    -0.047 C 
ATOM      6  C   LIG d   1      -5.119  76.608 115.880  0.00  0.00     0.091 C 
ENDROOT
BRANCH   1   7
ATOM      7  O   LIG d   1      -7.251  77.214 116.926  0.00  0.00    -0.368 OA
BRANCH   7   8
ATOM      8  C   LIG d   1      -7.987  76.434 117.900  0.00  0.00     0.119 C 
BRANCH   8   9
ATOM      9  C   LIG d   1      -8.473  75.153 117.195  0.00  0.00     0.028 C 
ATOM     10  C   LIG d   1     -10.001  74.991 117.260  0.00  0.00     0.006 C 
ENDBRANCH   8   9
BRANCH   8  11
ATOM     11  C   LIG d   1      -9.260  77.159 118.348  0.00  0.00     0.028 C 
ATOM     12  C   LIG d   1      -9.098  78.687 118.372  0.00  0.00     0.006 C 
ENDBRANCH   8  11
ENDBRANCH   7   8
ENDBRANCH   1   7
BRANCH   6  13
ATOM     13  N   LIG d   1      -5.276  75.135 116.000  0.00  0.00    -0.311 N 
ATOM     14  C   LIG d   1      -5.528  74.338 114.963  0.00  0.00     0.210 C 
ATOM     15  C   LIG d   1      -5.672  72.852 115.310  0.00  0.00     0.109 C 
ATOM     16  O   LIG d   1      -5.615  74.716 113.785  0.00  0.00    -0.276 OA
ATOM     17  H   LIG d   1      -5.189  74.740 116.916  0.00  0.00     0.149 HD
ENDBRANCH   6  13
BRANCH   5  18
ATOM     18  N   LIG d   1      -2.968  76.535 114.568  0.00  0.00     0.381 N 
ATOM     19  H   LIG d   1      -3.205  77.114 113.787  0.00  0.00    -0.090 HD
ATOM     20  H   LIG d   1      -3.294  75.603 114.380  0.00  0.00    -0.090 HD
ATOM     21  H   LIG d   1      -1.981  76.529 114.700  0.00  0.00    -0.090 HD
ENDBRANCH   5  18
BRANCH   3  22
ATOM     22  C   LIG d   1      -3.827  80.394 117.271  0.00  0.00     0.382 C 
ATOM     23  O   LIG d   1      -3.050  80.433 118.255  0.00  0.00    -0.241 OA
ATOM     24  O   LIG d   1      -4.223  81.458 116.759  0.00  0.00    -0.241 OA
ENDBRANCH   3  22
TORSDOF 7
ENDMDL
MODEL 8
REMARK VINA RESULT:      -4.8      4.421      6.580
REMARK  7 active torsions:
REMARK  status: ('A' for Active; 'I' for Inactive)
REMARK    1  A    between atoms: C_2  and  C_3 
REMARK    2  A    between atoms: C_3  and  O_6 
REMARK    3  A    between atoms: C_3  and  C_4 
REMARK    4  A    between atoms: C_7  and  O_6 
REMARK    5  A    between atoms: C_9  and  C_10 
REMARK    6  A    between atoms: N_15  and  C_14 
REMARK    7  A    between atoms: N_20  and  C_19 
REMARK       I    between atoms: C_22  and  N_20 
ROOT
ATOM      1  C   LIG d   1      -1.802  77.145 115.027  0.00  0.00     0.161 C 
ATOM      2  C   LIG d   1      -3.027  76.805 114.430  0.00  0.00     0.016 C 
ATOM      3  C   LIG d   1      -3.802  75.691 114.827  0.00  0.00     0.038 C 
ATOM      4  C   LIG d   1      -3.476  74.924 115.956  0.00  0.00     0.028 C 
ATOM      5  C   LIG d   1      -1.986  74.925 116.279  0.00  0.00    -0.047 C 
ATOM      6  C   LIG d   1      -1.485  76.386 116.333  0.00  0.00     0.091 C 
ENDROOT
BRANCH   1   7
ATOM      7  O   LIG d   1      -1.745  78.569 115.249  0.00  0.00    -0.368 OA
BRANCH   7   8
ATOM      8  C   LIG d   1      -3.003  79.280 115.148  0.00  0.00     0.119 C 
BRANCH   8   9
ATOM      9  C   LIG d   1      -2.749  80.557 114.324  0.00  0.00     0.028 C 
ATOM     10  C   LIG d   1      -2.785  80.295 112.809  0.00  0.00     0.006 C 
ENDBRANCH   8   9
BRANCH   8  11
ATOM     11  C   LIG d   1      -3.478  79.770 116.519  0.00  0.00     0.028 C 
ATOM     12  C   LIG d   1      -4.645  78.940 117.078  0.00  0.00     0.006 C 
ENDBRANCH   8  11
ENDBRANCH   7   8
ENDBRANCH   1   7
BRANCH   6  13
ATOM     13  N   LIG d   1      -0.019  76.475 116.561  0.00  0.00    -0.311 N 
ATOM     14  C   LIG d   1       0.529  76.608 117.767  0.00  0.00     0.210 C 
ATOM     15  C   LIG d   1       2.058  76.701 117.777  0.00  0.00     0.109 C 
ATOM     16  O   LIG d   1      -0.105  76.625 118.834  0.00  0.00    -0.276 OA
ATOM     17  H   LIG d   1       0.571  76.438 115.753  0.00  0.00     0.149 HD
ENDBRANCH   6  13
BRANCH   5  18
ATOM     18  N   LIG d   1      -1.806  74.204 117.553  0.00  0.00     0.381 N 
ATOM     19  H   LIG d   1      -2.515  74.480 118.202  0.00  0.00    -0.090 HD
ATOM     20  H   LIG d   1      -0.912  74.448 117.941  0.00  0.00    -0.090 HD
ATOM     21  H   LIG d   1      -1.852  73.221 117.398  0.00  0.00    -0.090 HD
ENDBRANCH   5  18
BRANCH   3  22
ATOM     22  C   LIG d   1      -4.897  75.310 114.066  0.00  0.00     0.382 C 
ATOM     23  O   LIG d   1      -5.457  74.208 114.280  0.00  0.00    -0.241 OA
ATOM     24  O   LIG d   1      -5.304  76.034 113.138  0.00  0.00    -0.241 OA
ENDBRANCH   3  22
TORSDOF 7
ENDMDL
MODEL 9
REMARK VINA RESULT:      -4.6      3.329      4.928
REMARK  7 active torsions:
REMARK  status: ('A' for Active; 'I' for Inactive)
REMARK    1  A    between atoms: C_2  and  C_3 
REMARK    2  A    between atoms: C_3  and  O_6 
REMARK    3  A    between atoms: C_3  and  C_4 
REMARK    4  A    between atoms: C_7  and  O_6 
REMARK    5  A    between atoms: C_9  and  C_10 
REMARK    6  A    between atoms: N_15  and  C_14 
REMARK    7  A    between atoms: N_20  and  C_19 
REMARK       I    between atoms: C_22  and  N_20 
ROOT
ATOM      1  C   LIG d   1      -3.223  76.466 116.682  0.00  0.00     0.161 C 
ATOM      2  C   LIG d   1      -4.045  77.550 117.034  0.00  0.00     0.016 C 
ATOM      3  C   LIG d   1      -3.841  78.866 116.560  0.00  0.00     0.038 C 
ATOM      4  C   LIG d   1      -2.885  79.161 115.576  0.00  0.00     0.028 C 
ATOM      5  C   LIG d   1      -1.706  78.195 115.570  0.00  0.00    -0.047 C 
ATOM      6  C   LIG d   1      -2.243  76.746 115.524  0.00  0.00     0.091 C 
ENDROOT
BRANCH   1   7
ATOM      7  O   LIG d   1      -4.035  75.313 116.384  0.00  0.00    -0.368 OA
BRANCH   7   8
ATOM      8  C   LIG d   1      -5.213  75.556 115.575  0.00  0.00     0.119 C 
BRANCH   8   9
ATOM      9  C   LIG d   1      -6.301  74.565 116.033  0.00  0.00     0.028 C 
ATOM     10  C   LIG d   1      -7.490  75.269 116.708  0.00  0.00     0.006 C 
ENDBRANCH   8   9
BRANCH   8  11
ATOM     11  C   LIG d   1      -4.956  75.224 114.102  0.00  0.00     0.028 C 
ATOM     12  C   LIG d   1      -6.090  75.695 113.179  0.00  0.00     0.006 C 
ENDBRANCH   8  11
ENDBRANCH   7   8
ENDBRANCH   1   7
BRANCH   6  13
ATOM     13  N   LIG d   1      -1.156  75.736 115.599  0.00  0.00    -0.311 N 
ATOM     14  C   LIG d   1      -0.686  75.083 114.537  0.00  0.00     0.210 C 
ATOM     15  C   LIG d   1       0.422  74.069 114.839  0.00  0.00     0.109 C 
ATOM     16  O   LIG d   1      -1.059  75.272 113.370  0.00  0.00    -0.276 OA
ATOM     17  H   LIG d   1      -0.774  75.543 116.505  0.00  0.00     0.149 HD
ENDBRANCH   6  13
BRANCH   5  18
ATOM     18  N   LIG d   1      -0.858  78.534 114.411  0.00  0.00     0.381 N 
ATOM     19  H   LIG d   1      -0.870  79.523 114.261  0.00  0.00    -0.090 HD
ATOM     20  H   LIG d   1      -1.232  78.087 113.593  0.00  0.00    -0.090 HD
ATOM     21  H   LIG d   1       0.076  78.226 114.570  0.00  0.00    -0.090 HD
ENDBRANCH   5  18
BRANCH   3  22
ATOM     22  C   LIG d   1      -4.573  79.912 117.101  0.00  0.00     0.382 C 
ATOM     23  O   LIG d   1      -3.985  80.938 117.520  0.00  0.00    -0.241 OA
ATOM     24  O   LIG d   1      -5.810  79.824 117.217  0.00  0.00    -0.241 OA
ENDBRANCH   3  22
TORSDOF 7
ENDMDL
