MODEL 1
REMARK VINA RESULT:      -5.3      0.000      0.000
REMARK  7 active torsions:
REMARK  status: ('A' for Active; 'I' for Inactive)
REMARK    1  A    between atoms: C_2  and  C_3 
REMARK    2  A    between atoms: C_3  and  O_6 
REMARK    3  A    between atoms: C_3  and  C_4 
REMARK    4  A    between atoms: C_7  and  O_6 
REMARK    5  A    between atoms: C_9  and  C_10 
REMARK    6  A    between atoms: N_15  and  C_14 
REMARK    7  A    between atoms: N_20  and  C_19 
REMARK       I    between atoms: C_22  and  N_20 
ROOT
ATOM      1  C   LIG d   1      -5.461  92.680 117.313  0.00  0.00     0.161 C 
ATOM      2  C   LIG d   1      -6.460  91.779 116.907  0.00  0.00     0.016 C 
ATOM      3  C   LIG d   1      -6.199  90.436 116.552  0.00  0.00     0.038 C 
ATOM      4  C   LIG d   1      -4.933  89.856 116.724  0.00  0.00     0.028 C 
ATOM      5  C   LIG d   1      -3.790  90.863 116.651  0.00  0.00    -0.047 C 
ATOM      6  C   LIG d   1      -4.092  92.035 117.613  0.00  0.00     0.091 C 
ENDROOT
BRANCH   1   7
ATOM      7  O   LIG d   1      -5.919  93.437 118.451  0.00  0.00    -0.368 OA
BRANCH   7   8
ATOM      8  C   LIG d   1      -7.232  94.037 118.330  0.00  0.00     0.119 C 
BRANCH   8   9
ATOM      9  C   LIG d   1      -7.208  94.958 117.095  0.00  0.00     0.028 C 
ATOM     10  C   LIG d   1      -8.168  94.483 115.991  0.00  0.00     0.006 C 
ENDBRANCH   8   9
BRANCH   8  11
ATOM     11  C   LIG d   1      -7.534  94.958 119.516  0.00  0.00     0.028 C 
ATOM     12  C   LIG d   1      -7.180  96.427 119.235  0.00  0.00     0.006 C 
ENDBRANCH   8  11
ENDBRANCH   7   8
ENDBRANCH   1   7
BRANCH   6  13
ATOM     13  N   LIG d   1      -3.065  93.106 117.541  0.00  0.00    -0.311 N 
ATOM     14  C   LIG d   1      -2.044  93.202 118.392  0.00  0.00     0.210 C 
ATOM     15  C   LIG d   1      -1.112  94.394 118.152  0.00  0.00     0.109 C 
ATOM     16  O   LIG d   1      -1.805  92.395 119.303  0.00  0.00    -0.276 OA
ATOM     17  H   LIG d   1      -3.165  93.786 116.813  0.00  0.00     0.149 HD
ENDBRANCH   6  13
BRANCH   5  18
ATOM     18  N   LIG d   1      -2.544  90.148 116.984  0.00  0.00     0.381 N 
ATOM     19  H   LIG d   1      -2.736  89.421 117.644  0.00  0.00    -0.090 HD
ATOM     20  H   LIG d   1      -1.900  90.795 117.405  0.00  0.00    -0.090 HD
ATOM     21  H   LIG d   1      -2.143  89.760 116.159  0.00  0.00    -0.090 HD
ENDBRANCH   5  18
BRANCH   3  22
ATOM     22  C   LIG d   1      -7.202  89.668 115.980  0.00  0.00     0.382 C 
ATOM     23  O   LIG d   1      -7.277  89.564 114.732  0.00  0.00    -0.241 OA
ATOM     24  O   LIG d   1      -8.059  89.115 116.695  0.00  0.00    -0.241 OA
ENDBRANCH   3  22
TORSDOF 7
ENDMDL
MODEL 2
REMARK VINA RESULT:      -5.2     18.548     20.831
REMARK  7 active torsions:
REMARK  status: ('A' for Active; 'I' for Inactive)
REMARK    1  A    between atoms: C_2  and  C_3 
REMARK    2  A    between atoms: C_3  and  O_6 
REMARK    3  A    between atoms: C_3  and  C_4 
REMARK    4  A    between atoms: C_7  and  O_6 
REMARK    5  A    between atoms: C_9  and  C_10 
REMARK    6  A    between atoms: N_15  and  C_14 
REMARK    7  A    between atoms: N_20  and  C_19 
REMARK       I    between atoms: C_22  and  N_20 
ROOT
ATOM      1  C   LIG d   1       9.708  79.044 114.928  0.00  0.00     0.161 C 
ATOM      2  C   LIG d   1       8.364  79.083 115.337  0.00  0.00     0.016 C 
ATOM      3  C   LIG d   1       7.612  77.926 115.648  0.00  0.00     0.038 C 
ATOM      4  C   LIG d   1       8.201  76.655 115.716  0.00  0.00     0.028 C 
ATOM      5  C   LIG d   1       9.427  76.506 114.822  0.00  0.00    -0.047 C 
ATOM      6  C   LIG d   1      10.398  77.675 115.104  0.00  0.00     0.091 C 
ENDROOT
BRANCH   1   7
ATOM      7  O   LIG d   1      10.455  80.073 115.606  0.00  0.00    -0.368 OA
BRANCH   7   8
ATOM      8  C   LIG d   1      10.615  81.322 114.889  0.00  0.00     0.119 C 
BRANCH   8   9
ATOM      9  C   LIG d   1      12.030  81.326 114.277  0.00  0.00     0.028 C 
ATOM     10  C   LIG d   1      12.033  80.880 112.805  0.00  0.00     0.006 C 
ENDBRANCH   8   9
BRANCH   8  11
ATOM     11  C   LIG d   1      10.583  82.520 115.843  0.00  0.00     0.028 C 
ATOM     12  C   LIG d   1       9.598  83.612 115.394  0.00  0.00     0.006 C 
ENDBRANCH   8  11
ENDBRANCH   7   8
ENDBRANCH   1   7
BRANCH   6  13
ATOM     13  N   LIG d   1      11.586  77.653 114.211  0.00  0.00    -0.311 N 
ATOM     14  C   LIG d   1      12.742  77.080 114.543  0.00  0.00     0.210 C 
ATOM     15  C   LIG d   1      13.845  77.188 113.485  0.00  0.00     0.109 C 
ATOM     16  O   LIG d   1      12.949  76.465 115.600  0.00  0.00    -0.276 OA
ATOM     17  H   LIG d   1      11.497  78.102 113.321  0.00  0.00     0.149 HD
ENDBRANCH   6  13
BRANCH   5  18
ATOM     18  N   LIG d   1      10.020  75.183 115.095  0.00  0.00     0.381 N 
ATOM     19  H   LIG d   1      10.790  75.024 114.477  0.00  0.00    -0.090 HD
ATOM     20  H   LIG d   1       9.327  74.476 114.924  0.00  0.00    -0.090 HD
ATOM     21  H   LIG d   1      10.328  75.136 116.041  0.00  0.00    -0.090 HD
ENDBRANCH   5  18
BRANCH   3  22
ATOM     22  C   LIG d   1       6.245  78.031 115.855  0.00  0.00     0.382 C 
ATOM     23  O   LIG d   1       5.580  77.017 116.173  0.00  0.00    -0.241 OA
ATOM     24  O   LIG d   1       5.662  79.119 115.686  0.00  0.00    -0.241 OA
ENDBRANCH   3  22
TORSDOF 7
ENDMDL
MODEL 3
REMARK VINA RESULT:      -5.1     20.563     22.877
REMARK  7 active torsions:
REMARK  status: ('A' for Active; 'I' for Inactive)
REMARK    1  A    between atoms: C_2  and  C_3 
REMARK    2  A    between atoms: C_3  and  O_6 
REMARK    3  A    between atoms: C_3  and  C_4 
REMARK    4  A    between atoms: C_7  and  O_6 
REMARK    5  A    between atoms: C_9  and  C_10 
REMARK    6  A    between atoms: N_15  and  C_14 
REMARK    7  A    between atoms: N_20  and  C_19 
REMARK       I    between atoms: C_22  and  N_20 
ROOT
ATOM      1  C   LIG d   1      10.493  76.542 114.873  0.00  0.00     0.161 C 
ATOM      2  C   LIG d   1      10.743  75.191 115.164  0.00  0.00     0.016 C 
ATOM      3  C   LIG d   1      12.030  74.608 115.107  0.00  0.00     0.038 C 
ATOM      4  C   LIG d   1      13.184  75.378 114.902  0.00  0.00     0.028 C 
ATOM      5  C   LIG d   1      12.928  76.653 114.106  0.00  0.00    -0.047 C 
ATOM      6  C   LIG d   1      11.755  77.422 114.756  0.00  0.00     0.091 C 
ENDROOT
BRANCH   1   7
ATOM      7  O   LIG d   1       9.588  77.093 115.850  0.00  0.00    -0.368 OA
BRANCH   7   8
ATOM      8  C   LIG d   1       8.186  77.109 115.482  0.00  0.00     0.119 C 
BRANCH   8   9
ATOM      9  C   LIG d   1       7.774  78.583 115.299  0.00  0.00     0.028 C 
ATOM     10  C   LIG d   1       8.613  79.539 116.163  0.00  0.00     0.006 C 
ENDBRANCH   8   9
BRANCH   8  11
ATOM     11  C   LIG d   1       7.306  76.580 116.618  0.00  0.00     0.028 C 
ATOM     12  C   LIG d   1       8.113  75.870 117.717  0.00  0.00     0.006 C 
ENDBRANCH   8  11
ENDBRANCH   7   8
ENDBRANCH   1   7
BRANCH   6  13
ATOM     13  N   LIG d   1      11.384  78.641 113.990  0.00  0.00    -0.311 N 
ATOM     14  C   LIG d   1      11.853  79.855 114.272  0.00  0.00     0.210 C 
ATOM     15  C   LIG d   1      11.327  80.977 113.371  0.00  0.00     0.109 C 
ATOM     16  O   LIG d   1      12.681  80.105 115.162  0.00  0.00    -0.276 OA
ATOM     17  H   LIG d   1      10.741  78.525 113.231  0.00  0.00     0.149 HD
ENDBRANCH   6  13
BRANCH   5  18
ATOM     18  N   LIG d   1      14.185  77.425 114.085  0.00  0.00     0.381 N 
ATOM     19  H   LIG d   1      14.498  77.588 115.021  0.00  0.00    -0.090 HD
ATOM     20  H   LIG d   1      14.012  78.315 113.651  0.00  0.00    -0.090 HD
ATOM     21  H   LIG d   1      14.882  76.928 113.575  0.00  0.00    -0.090 HD
ENDBRANCH   5  18
BRANCH   3  22
ATOM     22  C   LIG d   1      12.167  73.232 115.218  0.00  0.00     0.382 C 
ATOM     23  O   LIG d   1      12.631  72.731 116.271  0.00  0.00    -0.241 OA
ATOM     24  O   LIG d   1      11.873  72.489 114.263  0.00  0.00    -0.241 OA
ENDBRANCH   3  22
TORSDOF 7
ENDMDL
MODEL 4
REMARK VINA RESULT:      -5.1     14.422     17.283
REMARK  7 active torsions:
REMARK  status: ('A' for Active; 'I' for Inactive)
REMARK    1  A    between atoms: C_2  and  C_3 
REMARK    2  A    between atoms: C_3  and  O_6 
REMARK    3  A    between atoms: C_3  and  C_4 
REMARK    4  A    between atoms: C_7  and  O_6 
REMARK    5  A    between atoms: C_9  and  C_10 
REMARK    6  A    between atoms: N_15  and  C_14 
REMARK    7  A    between atoms: N_20  and  C_19 
REMARK       I    between atoms: C_22  and  N_20 
ROOT
ATOM      1  C   LIG d   1      -0.982  77.296 117.270  0.00  0.00     0.161 C 
ATOM      2  C   LIG d   1       0.275  76.913 117.767  0.00  0.00     0.016 C 
ATOM      3  C   LIG d   1       0.662  75.565 117.950  0.00  0.00     0.038 C 
ATOM      4  C   LIG d   1      -0.132  74.499 117.503  0.00  0.00     0.028 C 
ATOM      5  C   LIG d   1      -1.620  74.829 117.458  0.00  0.00    -0.047 C 
ATOM      6  C   LIG d   1      -1.819  76.145 116.673  0.00  0.00     0.091 C 
ENDROOT
BRANCH   1   7
ATOM      7  O   LIG d   1      -0.823  78.354 116.304  0.00  0.00    -0.368 OA
BRANCH   7   8
ATOM      8  C   LIG d   1       0.151  78.121 115.258  0.00  0.00     0.119 C 
BRANCH   8   9
ATOM      9  C   LIG d   1       1.098  79.336 115.228  0.00  0.00     0.028 C 
ATOM     10  C   LIG d   1       0.394  80.639 115.642  0.00  0.00     0.006 C 
ENDBRANCH   8   9
BRANCH   8  11
ATOM     11  C   LIG d   1      -0.511  78.089 113.877  0.00  0.00     0.028 C 
ATOM     12  C   LIG d   1      -0.719  76.661 113.348  0.00  0.00     0.006 C 
ENDBRANCH   8  11
ENDBRANCH   7   8
ENDBRANCH   1   7
BRANCH   6  13
ATOM     13  N   LIG d   1      -3.238  76.585 116.654  0.00  0.00    -0.311 N 
ATOM     14  C   LIG d   1      -4.078  76.307 115.658  0.00  0.00     0.210 C 
ATOM     15  C   LIG d   1      -5.492  76.872 115.828  0.00  0.00     0.109 C 
ATOM     16  O   LIG d   1      -3.796  75.618 114.666  0.00  0.00    -0.276 OA
ATOM     17  H   LIG d   1      -3.560  77.122 117.435  0.00  0.00     0.149 HD
ENDBRANCH   6  13
BRANCH   5  18
ATOM     18  N   LIG d   1      -2.313  73.680 116.845  0.00  0.00     0.381 N 
ATOM     19  H   LIG d   1      -1.906  73.475 115.955  0.00  0.00    -0.090 HD
ATOM     20  H   LIG d   1      -3.278  73.920 116.703  0.00  0.00    -0.090 HD
ATOM     21  H   LIG d   1      -2.245  72.884 117.441  0.00  0.00    -0.090 HD
ENDBRANCH   5  18
BRANCH   3  22
ATOM     22  C   LIG d   1       1.839  75.273 118.623  0.00  0.00     0.382 C 
ATOM     23  O   LIG d   1       1.867  74.340 119.461  0.00  0.00    -0.241 OA
ATOM     24  O   LIG d   1       2.861  75.960 118.435  0.00  0.00    -0.241 OA
ENDBRANCH   3  22
TORSDOF 7
ENDMDL
MODEL 5
REMARK VINA RESULT:      -5.0      2.771      5.141
REMARK  7 active torsions:
REMARK  status: ('A' for Active; 'I' for Inactive)
REMARK    1  A    between atoms: C_2  and  C_3 
REMARK    2  A    between atoms: C_3  and  O_6 
REMARK    3  A    between atoms: C_3  and  C_4 
REMARK    4  A    between atoms: C_7  and  O_6 
REMARK    5  A    between atoms: C_9  and  C_10 
REMARK    6  A    between atoms: N_15  and  C_14 
REMARK    7  A    between atoms: N_20  and  C_19 
REMARK       I    between atoms: C_22  and  N_20 
ROOT
ATOM      1  C   LIG d   1      -5.023  91.795 115.638  0.00  0.00     0.161 C 
ATOM      2  C   LIG d   1      -5.701  92.884 116.212  0.00  0.00     0.016 C 
ATOM      3  C   LIG d   1      -7.110  92.988 116.256  0.00  0.00     0.038 C 
ATOM      4  C   LIG d   1      -7.944  91.931 115.860  0.00  0.00     0.028 C 
ATOM      5  C   LIG d   1      -7.314  91.023 114.810  0.00  0.00    -0.047 C 
ATOM      6  C   LIG d   1      -5.916  90.583 115.301  0.00  0.00     0.091 C 
ENDROOT
BRANCH   1   7
ATOM      7  O   LIG d   1      -3.933  91.394 116.491  0.00  0.00    -0.368 OA
BRANCH   7   8
ATOM      8  C   LIG d   1      -4.252  91.219 117.893  0.00  0.00     0.119 C 
BRANCH   8   9
ATOM      9  C   LIG d   1      -3.581  92.370 118.668  0.00  0.00     0.028 C 
ATOM     10  C   LIG d   1      -4.579  93.153 119.537  0.00  0.00     0.006 C 
ENDBRANCH   8   9
BRANCH   8  11
ATOM     11  C   LIG d   1      -3.628  89.936 118.451  0.00  0.00     0.028 C 
ATOM     12  C   LIG d   1      -2.592  90.208 119.554  0.00  0.00     0.006 C 
ENDBRANCH   8  11
ENDBRANCH   7   8
ENDBRANCH   1   7
BRANCH   6  13
ATOM     13  N   LIG d   1      -5.195  89.759 114.296  0.00  0.00    -0.311 N 
ATOM     14  C   LIG d   1      -4.458  88.695 114.612  0.00  0.00     0.210 C 
ATOM     15  C   LIG d   1      -3.784  88.000 113.425  0.00  0.00     0.109 C 
ATOM     16  O   LIG d   1      -4.325  88.242 115.758  0.00  0.00    -0.276 OA
ATOM     17  H   LIG d   1      -5.274  90.037 113.337  0.00  0.00     0.149 HD
ENDBRANCH   6  13
BRANCH   5  18
ATOM     18  N   LIG d   1      -8.233  89.890 114.591  0.00  0.00     0.381 N 
ATOM     19  H   LIG d   1      -9.129  90.099 114.986  0.00  0.00    -0.090 HD
ATOM     20  H   LIG d   1      -7.866  89.079 115.056  0.00  0.00    -0.090 HD
ATOM     21  H   LIG d   1      -8.326  89.710 113.616  0.00  0.00    -0.090 HD
ENDBRANCH   5  18
BRANCH   3  22
ATOM     22  C   LIG d   1      -7.700  94.175 116.663  0.00  0.00     0.382 C 
ATOM     23  O   LIG d   1      -7.109  95.266 116.472  0.00  0.00    -0.241 OA
ATOM     24  O   LIG d   1      -8.794  94.166 117.258  0.00  0.00    -0.241 OA
ENDBRANCH   3  22
TORSDOF 7
ENDMDL
MODEL 6
REMARK VINA RESULT:      -4.9     15.795     17.245
REMARK  7 active torsions:
REMARK  status: ('A' for Active; 'I' for Inactive)
REMARK    1  A    between atoms: C_2  and  C_3 
REMARK    2  A    between atoms: C_3  and  O_6 
REMARK    3  A    between atoms: C_3  and  C_4 
REMARK    4  A    between atoms: C_7  and  O_6 
REMARK    5  A    between atoms: C_9  and  C_10 
REMARK    6  A    between atoms: N_15  and  C_14 
REMARK    7  A    between atoms: N_20  and  C_19 
REMARK       I    between atoms: C_22  and  N_20 
ROOT
ATOM      1  C   LIG d   1      -1.370  76.700 117.661  0.00  0.00     0.161 C 
ATOM      2  C   LIG d   1      -2.526  76.333 116.953  0.00  0.00     0.016 C 
ATOM      3  C   LIG d   1      -2.655  76.466 115.551  0.00  0.00     0.038 C 
ATOM      4  C   LIG d   1      -1.574  76.838 114.739  0.00  0.00     0.028 C 
ATOM      5  C   LIG d   1      -0.543  77.700 115.460  0.00  0.00    -0.047 C 
ATOM      6  C   LIG d   1      -0.140  77.003 116.780  0.00  0.00     0.091 C 
ENDROOT
BRANCH   1   7
ATOM      7  O   LIG d   1      -1.051  75.687 118.635  0.00  0.00    -0.368 OA
BRANCH   7   8
ATOM      8  C   LIG d   1      -0.076  74.696 118.228  0.00  0.00     0.119 C 
BRANCH   8   9
ATOM      9  C   LIG d   1      -0.847  73.510 117.617  0.00  0.00     0.028 C 
ATOM     10  C   LIG d   1      -0.584  73.352 116.110  0.00  0.00     0.006 C 
ENDBRANCH   8   9
BRANCH   8  11
ATOM     11  C   LIG d   1       0.668  74.117 119.435  0.00  0.00     0.028 C 
ATOM     12  C   LIG d   1       2.125  74.600 119.525  0.00  0.00     0.006 C 
ENDBRANCH   8  11
ENDBRANCH   7   8
ENDBRANCH   1   7
BRANCH   6  13
ATOM     13  N   LIG d   1       0.802  77.820 117.588  0.00  0.00    -0.311 N 
ATOM     14  C   LIG d   1       2.127  77.714 117.499  0.00  0.00     0.210 C 
ATOM     15  C   LIG d   1       2.914  78.635 118.436  0.00  0.00     0.109 C 
ATOM     16  O   LIG d   1       2.725  76.967 116.710  0.00  0.00    -0.276 OA
ATOM     17  H   LIG d   1       0.402  78.474 118.232  0.00  0.00     0.149 HD
ENDBRANCH   6  13
BRANCH   5  18
ATOM     18  N   LIG d   1       0.594  77.898 114.541  0.00  0.00     0.381 N 
ATOM     19  H   LIG d   1       0.496  77.297 113.747  0.00  0.00    -0.090 HD
ATOM     20  H   LIG d   1       1.444  77.655 115.018  0.00  0.00    -0.090 HD
ATOM     21  H   LIG d   1       0.631  78.849 114.245  0.00  0.00    -0.090 HD
ENDBRANCH   5  18
BRANCH   3  22
ATOM     22  C   LIG d   1      -3.890  76.265 114.953  0.00  0.00     0.382 C 
ATOM     23  O   LIG d   1      -4.628  77.246 114.694  0.00  0.00    -0.241 OA
ATOM     24  O   LIG d   1      -4.293  75.112 114.709  0.00  0.00    -0.241 OA
ENDBRANCH   3  22
TORSDOF 7
ENDMDL
MODEL 7
REMARK VINA RESULT:      -4.8     14.413     16.757
REMARK  7 active torsions:
REMARK  status: ('A' for Active; 'I' for Inactive)
REMARK    1  A    between atoms: C_2  and  C_3 
REMARK    2  A    between atoms: C_3  and  O_6 
REMARK    3  A    between atoms: C_3  and  C_4 
REMARK    4  A    between atoms: C_7  and  O_6 
REMARK    5  A    between atoms: C_9  and  C_10 
REMARK    6  A    between atoms: N_15  and  C_14 
REMARK    7  A    between atoms: N_20  and  C_19 
REMARK       I    between atoms: C_22  and  N_20 
ROOT
ATOM      1  C   LIG d   1      -3.083  76.547 117.281  0.00  0.00     0.161 C 
ATOM      2  C   LIG d   1      -4.209  77.292 117.668  0.00  0.00     0.016 C 
ATOM      3  C   LIG d   1      -5.524  76.995 117.241  0.00  0.00     0.038 C 
ATOM      4  C   LIG d   1      -5.822  75.833 116.513  0.00  0.00     0.028 C 
ATOM      5  C   LIG d   1      -4.652  75.326 115.676  0.00  0.00    -0.047 C 
ATOM      6  C   LIG d   1      -3.402  75.211 116.578  0.00  0.00     0.091 C 
ENDROOT
BRANCH   1   7
ATOM      7  O   LIG d   1      -2.230  76.322 118.421  0.00  0.00    -0.368 OA
BRANCH   7   8
ATOM      8  C   LIG d   1      -0.956  77.011 118.410  0.00  0.00     0.119 C 
BRANCH   8   9
ATOM      9  C   LIG d   1      -1.043  78.161 119.431  0.00  0.00     0.028 C 
ATOM     10  C   LIG d   1      -1.325  79.518 118.764  0.00  0.00     0.006 C 
ENDBRANCH   8   9
BRANCH   8  11
ATOM     11  C   LIG d   1      -0.699  77.686 117.059  0.00  0.00     0.028 C 
ATOM     12  C   LIG d   1       0.573  77.170 116.367  0.00  0.00     0.006 C 
ENDBRANCH   8  11
ENDBRANCH   7   8
ENDBRANCH   1   7
BRANCH   6  13
ATOM     13  N   LIG d   1      -2.192  74.802 115.819  0.00  0.00    -0.311 N 
ATOM     14  C   LIG d   1      -1.359  73.845 116.227  0.00  0.00     0.210 C 
ATOM     15  C   LIG d   1      -0.162  73.594 115.305  0.00  0.00     0.109 C 
ATOM     16  O   LIG d   1      -1.517  73.159 117.247  0.00  0.00    -0.276 OA
ATOM     17  H   LIG d   1      -2.005  75.286 114.962  0.00  0.00     0.149 HD
ENDBRANCH   6  13
BRANCH   5  18
ATOM     18  N   LIG d   1      -5.056  74.039 115.080  0.00  0.00     0.381 N 
ATOM     19  H   LIG d   1      -5.092  73.334 115.789  0.00  0.00    -0.090 HD
ATOM     20  H   LIG d   1      -4.369  73.766 114.399  0.00  0.00    -0.090 HD
ATOM     21  H   LIG d   1      -5.948  74.129 114.645  0.00  0.00    -0.090 HD
ENDBRANCH   5  18
BRANCH   3  22
ATOM     22  C   LIG d   1      -6.551  77.887 117.508  0.00  0.00     0.382 C 
ATOM     23  O   LIG d   1      -6.976  78.644 116.602  0.00  0.00    -0.241 OA
ATOM     24  O   LIG d   1      -7.029  77.975 118.655  0.00  0.00    -0.241 OA
ENDBRANCH   3  22
TORSDOF 7
ENDMDL
MODEL 8
REMARK VINA RESULT:      -4.7     33.650     35.221
REMARK  7 active torsions:
REMARK  status: ('A' for Active; 'I' for Inactive)
REMARK    1  A    between atoms: C_2  and  C_3 
REMARK    2  A    between atoms: C_3  and  O_6 
REMARK    3  A    between atoms: C_3  and  C_4 
REMARK    4  A    between atoms: C_7  and  O_6 
REMARK    5  A    between atoms: C_9  and  C_10 
REMARK    6  A    between atoms: N_15  and  C_14 
REMARK    7  A    between atoms: N_20  and  C_19 
REMARK       I    between atoms: C_22  and  N_20 
ROOT
ATOM      1  C   LIG d   1      -0.515  58.221 117.758  0.00  0.00     0.161 C 
ATOM      2  C   LIG d   1      -1.657  58.386 116.958  0.00  0.00     0.016 C 
ATOM      3  C   LIG d   1      -1.605  58.745 115.592  0.00  0.00     0.038 C 
ATOM      4  C   LIG d   1      -0.393  58.817 114.890  0.00  0.00     0.028 C 
ATOM      5  C   LIG d   1       0.802  59.153 115.776  0.00  0.00    -0.047 C 
ATOM      6  C   LIG d   1       0.819  58.186 116.982  0.00  0.00     0.091 C 
ENDROOT
BRANCH   1   7
ATOM      7  O   LIG d   1      -0.653  57.037 118.569  0.00  0.00    -0.368 OA
BRANCH   7   8
ATOM      8  C   LIG d   1      -1.825  56.224 118.315  0.00  0.00     0.119 C 
BRANCH   8   9
ATOM      9  C   LIG d   1      -2.734  56.322 119.555  0.00  0.00     0.028 C 
ATOM     10  C   LIG d   1      -4.205  56.579 119.185  0.00  0.00     0.006 C 
ENDBRANCH   8   9
BRANCH   8  11
ATOM     11  C   LIG d   1      -1.459  54.741 118.197  0.00  0.00     0.028 C 
ATOM     12  C   LIG d   1      -0.329  54.485 117.187  0.00  0.00     0.006 C 
ENDBRANCH   8  11
ENDBRANCH   7   8
ENDBRANCH   1   7
BRANCH   6  13
ATOM     13  N   LIG d   1       1.907  58.499 117.944  0.00  0.00    -0.311 N 
ATOM     14  C   LIG d   1       2.623  57.566 118.571  0.00  0.00     0.210 C 
ATOM     15  C   LIG d   1       3.683  58.105 119.536  0.00  0.00     0.109 C 
ATOM     16  O   LIG d   1       2.502  56.345 118.394  0.00  0.00    -0.276 OA
ATOM     17  H   LIG d   1       2.094  59.466 118.123  0.00  0.00     0.149 HD
ENDBRANCH   6  13
BRANCH   5  18
ATOM     18  N   LIG d   1       2.015  59.060 114.943  0.00  0.00     0.381 N 
ATOM     19  H   LIG d   1       2.745  58.608 115.457  0.00  0.00    -0.090 HD
ATOM     20  H   LIG d   1       2.322  59.988 114.710  0.00  0.00    -0.090 HD
ATOM     21  H   LIG d   1       1.819  58.548 114.111  0.00  0.00    -0.090 HD
ENDBRANCH   5  18
BRANCH   3  22
ATOM     22  C   LIG d   1      -2.774  59.077 114.923  0.00  0.00     0.382 C 
ATOM     23  O   LIG d   1      -3.867  59.086 115.539  0.00  0.00    -0.241 OA
ATOM     24  O   LIG d   1      -2.755  59.323 113.702  0.00  0.00    -0.241 OA
ENDBRANCH   3  22
TORSDOF 7
ENDMDL
MODEL 9
REMARK VINA RESULT:      -4.7     15.471     17.205
REMARK  7 active torsions:
REMARK  status: ('A' for Active; 'I' for Inactive)
REMARK    1  A    between atoms: C_2  and  C_3 
REMARK    2  A    between atoms: C_3  and  O_6 
REMARK    3  A    between atoms: C_3  and  C_4 
REMARK    4  A    between atoms: C_7  and  O_6 
REMARK    5  A    between atoms: C_9  and  C_10 
REMARK    6  A    between atoms: N_15  and  C_14 
REMARK    7  A    between atoms: N_20  and  C_19 
REMARK       I    between atoms: C_22  and  N_20 
ROOT
ATOM      1  C   LIG d   1      -2.875  75.415 116.035  0.00  0.00     0.161 C 
ATOM      2  C   LIG d   1      -4.044  75.379 115.257  0.00  0.00     0.016 C 
ATOM      3  C   LIG d   1      -5.190  76.157 115.539  0.00  0.00     0.038 C 
ATOM      4  C   LIG d   1      -5.190  77.142 116.538  0.00  0.00     0.028 C 
ATOM      5  C   LIG d   1      -4.207  76.859 117.668  0.00  0.00    -0.047 C 
ATOM      6  C   LIG d   1      -2.816  76.565 117.061  0.00  0.00     0.091 C 
ENDROOT
BRANCH   1   7
ATOM      7  O   LIG d   1      -1.718  75.450 115.176  0.00  0.00    -0.368 OA
BRANCH   7   8
ATOM      8  C   LIG d   1      -0.514  74.839 115.702  0.00  0.00     0.119 C 
BRANCH   8   9
ATOM      9  C   LIG d   1       0.682  75.681 115.219  0.00  0.00     0.028 C 
ATOM     10  C   LIG d   1       0.278  77.119 114.851  0.00  0.00     0.006 C 
ENDBRANCH   8   9
BRANCH   8  11
ATOM     11  C   LIG d   1      -0.293  73.444 115.111  0.00  0.00     0.028 C 
ATOM     12  C   LIG d   1       0.599  73.461 113.859  0.00  0.00     0.006 C 
ENDBRANCH   8  11
ENDBRANCH   7   8
ENDBRANCH   1   7
BRANCH   6  13
ATOM     13  N   LIG d   1      -1.814  76.195 118.094  0.00  0.00    -0.311 N 
ATOM     14  C   LIG d   1      -0.838  77.009 118.494  0.00  0.00     0.210 C 
ATOM     15  C   LIG d   1       0.099  76.423 119.555  0.00  0.00     0.109 C 
ATOM     16  O   LIG d   1      -0.678  78.172 118.094  0.00  0.00    -0.276 OA
ATOM     17  H   LIG d   1      -1.888  75.280 118.495  0.00  0.00     0.149 HD
ENDBRANCH   6  13
BRANCH   5  18
ATOM     18  N   LIG d   1      -4.211  78.030 118.566  0.00  0.00     0.381 N 
ATOM     19  H   LIG d   1      -3.399  78.589 118.396  0.00  0.00    -0.090 HD
ATOM     20  H   LIG d   1      -4.179  77.709 119.518  0.00  0.00    -0.090 HD
ATOM     21  H   LIG d   1      -5.033  78.571 118.417  0.00  0.00    -0.090 HD
ENDBRANCH   5  18
BRANCH   3  22
ATOM     22  C   LIG d   1      -6.367  75.924 114.844  0.00  0.00     0.382 C 
ATOM     23  O   LIG d   1      -6.378  75.989 113.591  0.00  0.00    -0.241 OA
ATOM     24  O   LIG d   1      -7.428  75.694 115.455  0.00  0.00    -0.241 OA
ENDBRANCH   3  22
TORSDOF 7
ENDMDL
