MODEL 1
REMARK VINA RESULT:      -5.5      0.000      0.000
REMARK  7 active torsions:
REMARK  status: ('A' for Active; 'I' for Inactive)
REMARK    1  A    between atoms: C_2  and  C_3 
REMARK    2  A    between atoms: C_3  and  O_6 
REMARK    3  A    between atoms: C_3  and  C_4 
REMARK    4  A    between atoms: C_7  and  O_6 
REMARK    5  A    between atoms: C_9  and  C_10 
REMARK    6  A    between atoms: N_15  and  C_14 
REMARK    7  A    between atoms: N_20  and  C_19 
REMARK       I    between atoms: C_22  and  N_20 
ROOT
ATOM      1  C   LIG d   1      -5.506  74.988 117.000  0.00  0.00     0.161 C 
ATOM      2  C   LIG d   1      -4.406  74.330 116.428  0.00  0.00     0.016 C 
ATOM      3  C   LIG d   1      -3.063  74.677 116.701  0.00  0.00     0.038 C 
ATOM      4  C   LIG d   1      -2.726  75.615 117.689  0.00  0.00     0.028 C 
ATOM      5  C   LIG d   1      -3.810  76.659 117.928  0.00  0.00    -0.047 C 
ATOM      6  C   LIG d   1      -5.157  75.939 118.164  0.00  0.00     0.091 C 
ENDROOT
BRANCH   1   7
ATOM      7  O   LIG d   1      -6.489  74.022 117.421  0.00  0.00    -0.368 OA
BRANCH   7   8
ATOM      8  C   LIG d   1      -7.519  73.698 116.454  0.00  0.00     0.119 C 
BRANCH   8   9
ATOM      9  C   LIG d   1      -8.881  73.853 117.158  0.00  0.00     0.028 C 
ATOM     10  C   LIG d   1      -9.347  75.318 117.216  0.00  0.00     0.006 C 
ENDBRANCH   8   9
BRANCH   8  11
ATOM     11  C   LIG d   1      -7.445  72.227 116.033  0.00  0.00     0.028 C 
ATOM     12  C   LIG d   1      -8.787  71.495 116.191  0.00  0.00     0.006 C 
ENDBRANCH   8  11
ENDBRANCH   7   8
ENDBRANCH   1   7
BRANCH   6  13
ATOM     13  N   LIG d   1      -6.288  76.890 118.323  0.00  0.00    -0.311 N 
ATOM     14  C   LIG d   1      -6.593  77.823 117.423  0.00  0.00     0.210 C 
ATOM     15  C   LIG d   1      -7.785  78.712 117.792  0.00  0.00     0.109 C 
ATOM     16  O   LIG d   1      -6.010  77.978 116.340  0.00  0.00    -0.276 OA
ATOM     17  H   LIG d   1      -6.834  76.814 119.159  0.00  0.00     0.149 HD
ENDBRANCH   6  13
BRANCH   5  18
ATOM     18  N   LIG d   1      -3.388  77.487 119.074  0.00  0.00     0.381 N 
ATOM     19  H   LIG d   1      -3.449  76.953 119.918  0.00  0.00    -0.090 HD
ATOM     20  H   LIG d   1      -4.007  78.274 119.152  0.00  0.00    -0.090 HD
ATOM     21  H   LIG d   1      -2.452  77.803 118.940  0.00  0.00    -0.090 HD
ENDBRANCH   5  18
BRANCH   3  22
ATOM     22  C   LIG d   1      -2.041  74.112 115.953  0.00  0.00     0.382 C 
ATOM     23  O   LIG d   1      -1.232  73.320 116.494  0.00  0.00    -0.241 OA
ATOM     24  O   LIG d   1      -1.891  74.419 114.755  0.00  0.00    -0.241 OA
ENDBRANCH   3  22
TORSDOF 7
ENDMDL
MODEL 2
REMARK VINA RESULT:      -5.3      2.534      4.746
REMARK  7 active torsions:
REMARK  status: ('A' for Active; 'I' for Inactive)
REMARK    1  A    between atoms: C_2  and  C_3 
REMARK    2  A    between atoms: C_3  and  O_6 
REMARK    3  A    between atoms: C_3  and  C_4 
REMARK    4  A    between atoms: C_7  and  O_6 
REMARK    5  A    between atoms: C_9  and  C_10 
REMARK    6  A    between atoms: N_15  and  C_14 
REMARK    7  A    between atoms: N_20  and  C_19 
REMARK       I    between atoms: C_22  and  N_20 
ROOT
ATOM      1  C   LIG d   1      -7.518  75.731 116.882  0.00  0.00     0.161 C 
ATOM      2  C   LIG d   1      -8.158  74.483 116.796  0.00  0.00     0.016 C 
ATOM      3  C   LIG d   1      -7.493  73.292 116.426  0.00  0.00     0.038 C 
ATOM      4  C   LIG d   1      -6.101  73.239 116.263  0.00  0.00     0.028 C 
ATOM      5  C   LIG d   1      -5.489  74.572 115.846  0.00  0.00    -0.047 C 
ATOM      6  C   LIG d   1      -5.977  75.673 116.816  0.00  0.00     0.091 C 
ENDROOT
BRANCH   1   7
ATOM      7  O   LIG d   1      -7.943  76.416 118.077  0.00  0.00    -0.368 OA
BRANCH   7   8
ATOM      8  C   LIG d   1      -8.914  77.476 117.892  0.00  0.00     0.119 C 
BRANCH   8   9
ATOM      9  C   LIG d   1      -8.470  78.667 118.763  0.00  0.00     0.028 C 
ATOM     10  C   LIG d   1      -7.775  79.767 117.943  0.00  0.00     0.006 C 
ENDBRANCH   8   9
BRANCH   8  11
ATOM     11  C   LIG d   1     -10.289  77.071 118.430  0.00  0.00     0.028 C 
ATOM     12  C   LIG d   1     -10.784  77.994 119.555  0.00  0.00     0.006 C 
ENDBRANCH   8  11
ENDBRANCH   7   8
ENDBRANCH   1   7
BRANCH   6  13
ATOM     13  N   LIG d   1      -5.493  77.024 116.430  0.00  0.00    -0.311 N 
ATOM     14  C   LIG d   1      -4.628  77.728 117.158  0.00  0.00     0.210 C 
ATOM     15  C   LIG d   1      -4.276  79.106 116.590  0.00  0.00     0.109 C 
ATOM     16  O   LIG d   1      -4.094  77.329 118.204  0.00  0.00    -0.276 OA
ATOM     17  H   LIG d   1      -5.851  77.411 115.579  0.00  0.00     0.149 HD
ENDBRANCH   6  13
BRANCH   5  18
ATOM     18  N   LIG d   1      -4.023  74.410 115.847  0.00  0.00     0.381 N 
ATOM     19  H   LIG d   1      -3.610  75.058 115.207  0.00  0.00    -0.090 HD
ATOM     20  H   LIG d   1      -3.799  73.479 115.541  0.00  0.00    -0.090 HD
ATOM     21  H   LIG d   1      -3.664  74.562 116.764  0.00  0.00    -0.090 HD
ENDBRANCH   5  18
BRANCH   3  22
ATOM     22  C   LIG d   1      -8.230  72.143 116.176  0.00  0.00     0.382 C 
ATOM     23  O   LIG d   1      -9.465  72.131 116.395  0.00  0.00    -0.241 OA
ATOM     24  O   LIG d   1      -7.667  71.106 115.777  0.00  0.00    -0.241 OA
ENDBRANCH   3  22
TORSDOF 7
ENDMDL
MODEL 3
REMARK VINA RESULT:      -5.2      1.818      5.036
REMARK  7 active torsions:
REMARK  status: ('A' for Active; 'I' for Inactive)
REMARK    1  A    between atoms: C_2  and  C_3 
REMARK    2  A    between atoms: C_3  and  O_6 
REMARK    3  A    between atoms: C_3  and  C_4 
REMARK    4  A    between atoms: C_7  and  O_6 
REMARK    5  A    between atoms: C_9  and  C_10 
REMARK    6  A    between atoms: N_15  and  C_14 
REMARK    7  A    between atoms: N_20  and  C_19 
REMARK       I    between atoms: C_22  and  N_20 
ROOT
ATOM      1  C   LIG d   1      -6.196  74.827 117.357  0.00  0.00     0.161 C 
ATOM      2  C   LIG d   1      -6.703  73.603 116.890  0.00  0.00     0.016 C 
ATOM      3  C   LIG d   1      -8.085  73.319 116.791  0.00  0.00     0.038 C 
ATOM      4  C   LIG d   1      -9.061  74.302 117.012  0.00  0.00     0.028 C 
ATOM      5  C   LIG d   1      -8.610  75.399 117.971  0.00  0.00    -0.047 C 
ATOM      6  C   LIG d   1      -7.245  75.950 117.497  0.00  0.00     0.091 C 
ENDROOT
BRANCH   1   7
ATOM      7  O   LIG d   1      -5.109  75.259 116.515  0.00  0.00    -0.368 OA
BRANCH   7   8
ATOM      8  C   LIG d   1      -3.775  75.047 117.039  0.00  0.00     0.119 C 
BRANCH   8   9
ATOM      9  C   LIG d   1      -3.230  76.418 117.486  0.00  0.00     0.028 C 
ATOM     10  C   LIG d   1      -3.134  76.540 119.016  0.00  0.00     0.006 C 
ENDBRANCH   8   9
BRANCH   8  11
ATOM     11  C   LIG d   1      -2.817  74.567 115.944  0.00  0.00     0.028 C 
ATOM     12  C   LIG d   1      -1.530  73.946 116.510  0.00  0.00     0.006 C 
ENDBRANCH   8  11
ENDBRANCH   7   8
ENDBRANCH   1   7
BRANCH   6  13
ATOM     13  N   LIG d   1      -6.692  76.969 118.427  0.00  0.00    -0.311 N 
ATOM     14  C   LIG d   1      -6.790  78.281 118.219  0.00  0.00     0.210 C 
ATOM     15  C   LIG d   1      -6.133  79.156 119.291  0.00  0.00     0.109 C 
ATOM     16  O   LIG d   1      -7.387  78.803 117.266  0.00  0.00    -0.276 OA
ATOM     17  H   LIG d   1      -6.219  76.633 119.243  0.00  0.00     0.149 HD
ENDBRANCH   6  13
BRANCH   5  18
ATOM     18  N   LIG d   1      -9.668  76.426 118.002  0.00  0.00     0.381 N 
ATOM     19  H   LIG d   1     -10.296  76.243 118.760  0.00  0.00    -0.090 HD
ATOM     20  H   LIG d   1     -10.189  76.383 117.144  0.00  0.00    -0.090 HD
ATOM     21  H   LIG d   1      -9.263  77.330 118.108  0.00  0.00    -0.090 HD
ENDBRANCH   5  18
BRANCH   3  22
ATOM     22  C   LIG d   1      -8.503  72.028 116.506  0.00  0.00     0.382 C 
ATOM     23  O   LIG d   1      -7.696  71.072 116.602  0.00  0.00    -0.241 OA
ATOM     24  O   LIG d   1      -9.665  71.813 116.112  0.00  0.00    -0.241 OA
ENDBRANCH   3  22
TORSDOF 7
ENDMDL
MODEL 4
REMARK VINA RESULT:      -5.2      1.909      4.918
REMARK  7 active torsions:
REMARK  status: ('A' for Active; 'I' for Inactive)
REMARK    1  A    between atoms: C_2  and  C_3 
REMARK    2  A    between atoms: C_3  and  O_6 
REMARK    3  A    between atoms: C_3  and  C_4 
REMARK    4  A    between atoms: C_7  and  O_6 
REMARK    5  A    between atoms: C_9  and  C_10 
REMARK    6  A    between atoms: N_15  and  C_14 
REMARK    7  A    between atoms: N_20  and  C_19 
REMARK       I    between atoms: C_22  and  N_20 
ROOT
ATOM      1  C   LIG d   1      -5.734  76.759 117.264  0.00  0.00     0.161 C 
ATOM      2  C   LIG d   1      -6.534  77.897 117.458  0.00  0.00     0.016 C 
ATOM      3  C   LIG d   1      -6.046  79.219 117.349  0.00  0.00     0.038 C 
ATOM      4  C   LIG d   1      -4.751  79.496 116.886  0.00  0.00     0.028 C 
ATOM      5  C   LIG d   1      -3.756  78.374 117.165  0.00  0.00    -0.047 C 
ATOM      6  C   LIG d   1      -4.347  77.041 116.650  0.00  0.00     0.091 C 
ENDROOT
BRANCH   1   7
ATOM      7  O   LIG d   1      -6.446  75.790 116.469  0.00  0.00    -0.368 OA
BRANCH   7   8
ATOM      8  C   LIG d   1      -6.866  74.586 117.156  0.00  0.00     0.119 C 
BRANCH   8   9
ATOM      9  C   LIG d   1      -6.176  73.394 116.465  0.00  0.00     0.028 C 
ATOM     10  C   LIG d   1      -7.181  72.341 115.968  0.00  0.00     0.006 C 
ENDBRANCH   8   9
BRANCH   8  11
ATOM     11  C   LIG d   1      -8.368  74.341 116.984  0.00  0.00     0.028 C 
ATOM     12  C   LIG d   1      -9.229  75.350 117.760  0.00  0.00     0.006 C 
ENDBRANCH   8  11
ENDBRANCH   7   8
ENDBRANCH   1   7
BRANCH   6  13
ATOM     13  N   LIG d   1      -3.474  75.878 116.959  0.00  0.00    -0.311 N 
ATOM     14  C   LIG d   1      -2.924  75.106 116.023  0.00  0.00     0.210 C 
ATOM     15  C   LIG d   1      -2.075  73.948 116.557  0.00  0.00     0.109 C 
ATOM     16  O   LIG d   1      -3.034  75.289 114.801  0.00  0.00    -0.276 OA
ATOM     17  H   LIG d   1      -3.306  75.677 117.925  0.00  0.00     0.149 HD
ENDBRANCH   6  13
BRANCH   5  18
ATOM     18  N   LIG d   1      -2.484  78.734 116.510  0.00  0.00     0.381 N 
ATOM     19  H   LIG d   1      -2.222  79.664 116.769  0.00  0.00    -0.090 HD
ATOM     20  H   LIG d   1      -2.613  78.708 115.514  0.00  0.00    -0.090 HD
ATOM     21  H   LIG d   1      -1.770  78.093 116.777  0.00  0.00    -0.090 HD
ENDBRANCH   5  18
BRANCH   3  22
ATOM     22  C   LIG d   1      -6.846  80.282 117.743  0.00  0.00     0.382 C 
ATOM     23  O   LIG d   1      -7.342  80.299 118.895  0.00  0.00    -0.241 OA
ATOM     24  O   LIG d   1      -7.114  81.200 116.945  0.00  0.00    -0.241 OA
ENDBRANCH   3  22
TORSDOF 7
ENDMDL
MODEL 5
REMARK VINA RESULT:      -5.1      2.140      5.019
REMARK  7 active torsions:
REMARK  status: ('A' for Active; 'I' for Inactive)
REMARK    1  A    between atoms: C_2  and  C_3 
REMARK    2  A    between atoms: C_3  and  O_6 
REMARK    3  A    between atoms: C_3  and  C_4 
REMARK    4  A    between atoms: C_7  and  O_6 
REMARK    5  A    between atoms: C_9  and  C_10 
REMARK    6  A    between atoms: N_15  and  C_14 
REMARK    7  A    between atoms: N_20  and  C_19 
REMARK       I    between atoms: C_22  and  N_20 
ROOT
ATOM      1  C   LIG d   1      -6.721  75.770 118.525  0.00  0.00     0.161 C 
ATOM      2  C   LIG d   1      -8.041  76.214 118.340  0.00  0.00     0.016 C 
ATOM      3  C   LIG d   1      -8.378  77.559 118.063  0.00  0.00     0.038 C 
ATOM      4  C   LIG d   1      -7.399  78.530 117.803  0.00  0.00     0.028 C 
ATOM      5  C   LIG d   1      -6.062  78.239 118.476  0.00  0.00    -0.047 C 
ATOM      6  C   LIG d   1      -5.634  76.793 118.135  0.00  0.00     0.091 C 
ENDROOT
BRANCH   1   7
ATOM      7  O   LIG d   1      -6.519  74.530 117.819  0.00  0.00    -0.368 OA
BRANCH   7   8
ATOM      8  C   LIG d   1      -7.274  74.364 116.594  0.00  0.00     0.119 C 
BRANCH   8   9
ATOM      9  C   LIG d   1      -7.727  72.892 116.526  0.00  0.00     0.028 C 
ATOM     10  C   LIG d   1      -9.231  72.728 116.799  0.00  0.00     0.006 C 
ENDBRANCH   8   9
BRANCH   8  11
ATOM     11  C   LIG d   1      -6.390  74.574 115.361  0.00  0.00     0.028 C 
ATOM     12  C   LIG d   1      -4.913  74.244 115.624  0.00  0.00     0.006 C 
ENDBRANCH   8  11
ENDBRANCH   7   8
ENDBRANCH   1   7
BRANCH   6  13
ATOM     13  N   LIG d   1      -4.377  76.398 118.822  0.00  0.00    -0.311 N 
ATOM     14  C   LIG d   1      -3.176  76.461 118.249  0.00  0.00     0.210 C 
ATOM     15  C   LIG d   1      -2.014  75.987 119.127  0.00  0.00     0.109 C 
ATOM     16  O   LIG d   1      -2.960  76.896 117.108  0.00  0.00    -0.276 OA
ATOM     17  H   LIG d   1      -4.457  76.063 119.762  0.00  0.00     0.149 HD
ENDBRANCH   6  13
BRANCH   5  18
ATOM     18  N   LIG d   1      -5.098  79.253 118.010  0.00  0.00     0.381 N 
ATOM     19  H   LIG d   1      -4.207  78.826 117.852  0.00  0.00    -0.090 HD
ATOM     20  H   LIG d   1      -4.991  79.952 118.723  0.00  0.00    -0.090 HD
ATOM     21  H   LIG d   1      -5.426  79.674 117.168  0.00  0.00    -0.090 HD
ENDBRANCH   5  18
BRANCH   3  22
ATOM     22  C   LIG d   1      -9.707  77.953 118.085  0.00  0.00     0.382 C 
ATOM     23  O   LIG d   1     -10.613  77.096 118.221  0.00  0.00    -0.241 OA
ATOM     24  O   LIG d   1     -10.014  79.150 117.926  0.00  0.00    -0.241 OA
ENDBRANCH   3  22
TORSDOF 7
ENDMDL
MODEL 6
REMARK VINA RESULT:      -4.7      2.375      4.727
REMARK  7 active torsions:
REMARK  status: ('A' for Active; 'I' for Inactive)
REMARK    1  A    between atoms: C_2  and  C_3 
REMARK    2  A    between atoms: C_3  and  O_6 
REMARK    3  A    between atoms: C_3  and  C_4 
REMARK    4  A    between atoms: C_7  and  O_6 
REMARK    5  A    between atoms: C_9  and  C_10 
REMARK    6  A    between atoms: N_15  and  C_14 
REMARK    7  A    between atoms: N_20  and  C_19 
REMARK       I    between atoms: C_22  and  N_20 
ROOT
ATOM      1  C   LIG d   1      -6.148  76.478 115.891  0.00  0.00     0.161 C 
ATOM      2  C   LIG d   1      -6.967  75.343 116.003  0.00  0.00     0.016 C 
ATOM      3  C   LIG d   1      -6.464  74.037 116.203  0.00  0.00     0.038 C 
ATOM      4  C   LIG d   1      -5.106  73.796 116.457  0.00  0.00     0.028 C 
ATOM      5  C   LIG d   1      -4.181  74.847 115.852  0.00  0.00    -0.047 C 
ATOM      6  C   LIG d   1      -4.671  76.250 116.276  0.00  0.00     0.091 C 
ENDROOT
BRANCH   1   7
ATOM      7  O   LIG d   1      -6.705  77.561 116.661  0.00  0.00    -0.368 OA
BRANCH   7   8
ATOM      8  C   LIG d   1      -6.437  77.535 118.085  0.00  0.00     0.119 C 
BRANCH   8   9
ATOM      9  C   LIG d   1      -7.796  77.486 118.810  0.00  0.00     0.028 C 
ATOM     10  C   LIG d   1      -8.957  77.944 117.912  0.00  0.00     0.006 C 
ENDBRANCH   8   9
BRANCH   8  11
ATOM     11  C   LIG d   1      -5.774  78.834 118.552  0.00  0.00     0.028 C 
ATOM     12  C   LIG d   1      -5.762  79.920 117.465  0.00  0.00     0.006 C 
ENDBRANCH   8  11
ENDBRANCH   7   8
ENDBRANCH   1   7
BRANCH   6  13
ATOM     13  N   LIG d   1      -3.871  77.340 115.658  0.00  0.00    -0.311 N 
ATOM     14  C   LIG d   1      -2.858  77.946 116.274  0.00  0.00     0.210 C 
ATOM     15  C   LIG d   1      -2.181  79.057 115.465  0.00  0.00     0.109 C 
ATOM     16  O   LIG d   1      -2.434  77.646 117.400  0.00  0.00    -0.276 OA
ATOM     17  H   LIG d   1      -4.127  77.625 114.732  0.00  0.00     0.149 HD
ENDBRANCH   6  13
BRANCH   5  18
ATOM     18  N   LIG d   1      -2.810  74.550 116.308  0.00  0.00     0.381 N 
ATOM     19  H   LIG d   1      -2.658  74.957 117.209  0.00  0.00    -0.090 HD
ATOM     20  H   LIG d   1      -2.157  74.959 115.663  0.00  0.00    -0.090 HD
ATOM     21  H   LIG d   1      -2.671  73.565 116.353  0.00  0.00    -0.090 HD
ENDBRANCH   5  18
BRANCH   3  22
ATOM     22  C   LIG d   1      -7.320  72.949 116.111  0.00  0.00     0.382 C 
ATOM     23  O   LIG d   1      -8.446  72.989 116.663  0.00  0.00    -0.241 OA
ATOM     24  O   LIG d   1      -6.962  71.913 115.520  0.00  0.00    -0.241 OA
ENDBRANCH   3  22
TORSDOF 7
ENDMDL
MODEL 7
REMARK VINA RESULT:      -4.3      3.565      5.684
REMARK  7 active torsions:
REMARK  status: ('A' for Active; 'I' for Inactive)
REMARK    1  A    between atoms: C_2  and  C_3 
REMARK    2  A    between atoms: C_3  and  O_6 
REMARK    3  A    between atoms: C_3  and  C_4 
REMARK    4  A    between atoms: C_7  and  O_6 
REMARK    5  A    between atoms: C_9  and  C_10 
REMARK    6  A    between atoms: N_15  and  C_14 
REMARK    7  A    between atoms: N_20  and  C_19 
REMARK       I    between atoms: C_22  and  N_20 
ROOT
ATOM      1  C   LIG d   1      -3.746  78.461 116.782  0.00  0.00     0.161 C 
ATOM      2  C   LIG d   1      -2.773  79.401 117.161  0.00  0.00     0.016 C 
ATOM      3  C   LIG d   1      -1.454  79.405 116.651  0.00  0.00     0.038 C 
ATOM      4  C   LIG d   1      -1.061  78.555 115.607  0.00  0.00     0.028 C 
ATOM      5  C   LIG d   1      -1.860  77.257 115.548  0.00  0.00    -0.047 C 
ATOM      6  C   LIG d   1      -3.368  77.595 115.562  0.00  0.00     0.091 C 
ENDROOT
BRANCH   1   7
ATOM      7  O   LIG d   1      -5.005  79.126 116.554  0.00  0.00    -0.368 OA
BRANCH   7   8
ATOM      8  C   LIG d   1      -5.782  79.440 117.735  0.00  0.00     0.119 C 
BRANCH   8   9
ATOM      9  C   LIG d   1      -7.197  78.866 117.524  0.00  0.00     0.028 C 
ATOM     10  C   LIG d   1      -7.204  77.330 117.463  0.00  0.00     0.006 C 
ENDBRANCH   8   9
BRANCH   8  11
ATOM     11  C   LIG d   1      -5.976  80.951 117.889  0.00  0.00     0.028 C 
ATOM     12  C   LIG d   1      -7.339  81.433 117.366  0.00  0.00     0.006 C 
ENDBRANCH   8  11
ENDBRANCH   7   8
ENDBRANCH   1   7
BRANCH   6  13
ATOM     13  N   LIG d   1      -4.221  76.379 115.592  0.00  0.00    -0.311 N 
ATOM     14  C   LIG d   1      -4.719  75.806 114.497  0.00  0.00     0.210 C 
ATOM     15  C   LIG d   1      -5.590  74.572 114.753  0.00  0.00     0.109 C 
ATOM     16  O   LIG d   1      -4.496  76.183 113.337  0.00  0.00    -0.276 OA
ATOM     17  H   LIG d   1      -4.427  75.988 116.490  0.00  0.00     0.149 HD
ENDBRANCH   6  13
BRANCH   5  18
ATOM     18  N   LIG d   1      -1.441  76.530 114.335  0.00  0.00     0.381 N 
ATOM     19  H   LIG d   1      -0.986  77.159 113.704  0.00  0.00    -0.090 HD
ATOM     20  H   LIG d   1      -2.257  76.161 113.879  0.00  0.00    -0.090 HD
ATOM     21  H   LIG d   1      -0.823  75.788 114.579  0.00  0.00    -0.090 HD
ENDBRANCH   5  18
BRANCH   3  22
ATOM     22  C   LIG d   1      -0.502  80.240 117.215  0.00  0.00     0.382 C 
ATOM     23  O   LIG d   1       0.535  80.533 116.572  0.00  0.00    -0.241 OA
ATOM     24  O   LIG d   1      -0.645  80.668 118.376  0.00  0.00    -0.241 OA
ENDBRANCH   3  22
TORSDOF 7
ENDMDL
MODEL 8
REMARK VINA RESULT:      -4.3     14.475     16.730
REMARK  7 active torsions:
REMARK  status: ('A' for Active; 'I' for Inactive)
REMARK    1  A    between atoms: C_2  and  C_3 
REMARK    2  A    between atoms: C_3  and  O_6 
REMARK    3  A    between atoms: C_3  and  C_4 
REMARK    4  A    between atoms: C_7  and  O_6 
REMARK    5  A    between atoms: C_9  and  C_10 
REMARK    6  A    between atoms: N_15  and  C_14 
REMARK    7  A    between atoms: N_20  and  C_19 
REMARK       I    between atoms: C_22  and  N_20 
ROOT
ATOM      1  C   LIG d   1       2.918  88.960 116.368  0.00  0.00     0.161 C 
ATOM      2  C   LIG d   1       3.372  90.147 116.966  0.00  0.00     0.016 C 
ATOM      3  C   LIG d   1       4.353  90.985 116.387  0.00  0.00     0.038 C 
ATOM      4  C   LIG d   1       4.840  90.769 115.089  0.00  0.00     0.028 C 
ATOM      5  C   LIG d   1       4.784  89.308 114.657  0.00  0.00    -0.047 C 
ATOM      6  C   LIG d   1       3.356  88.767 114.901  0.00  0.00     0.091 C 
ENDROOT
BRANCH   1   7
ATOM      7  O   LIG d   1       1.483  88.876 116.477  0.00  0.00    -0.368 OA
BRANCH   7   8
ATOM      8  C   LIG d   1       0.967  88.404 117.746  0.00  0.00     0.119 C 
BRANCH   8   9
ATOM      9  C   LIG d   1       1.193  86.880 117.799  0.00  0.00     0.028 C 
ATOM     10  C   LIG d   1       0.245  86.180 118.788  0.00  0.00     0.006 C 
ENDBRANCH   8   9
BRANCH   8  11
ATOM     11  C   LIG d   1      -0.550  88.592 117.835  0.00  0.00     0.028 C 
ATOM     12  C   LIG d   1      -0.975  90.065 117.735  0.00  0.00     0.006 C 
ENDBRANCH   8  11
ENDBRANCH   7   8
ENDBRANCH   1   7
BRANCH   6  13
ATOM     13  N   LIG d   1       3.237  87.320 114.583  0.00  0.00    -0.311 N 
ATOM     14  C   LIG d   1       2.428  86.841 113.639  0.00  0.00     0.210 C 
ATOM     15  C   LIG d   1       2.442  85.317 113.487  0.00  0.00     0.109 C 
ATOM     16  O   LIG d   1       1.725  87.537 112.890  0.00  0.00    -0.276 OA
ATOM     17  H   LIG d   1       3.795  86.687 115.121  0.00  0.00     0.149 HD
ENDBRANCH   6  13
BRANCH   5  18
ATOM     18  N   LIG d   1       5.191  89.246 113.240  0.00  0.00     0.381 N 
ATOM     19  H   LIG d   1       6.071  89.707 113.121  0.00  0.00    -0.090 HD
ATOM     20  H   LIG d   1       4.505  89.726 112.684  0.00  0.00    -0.090 HD
ATOM     21  H   LIG d   1       5.262  88.297 112.947  0.00  0.00    -0.090 HD
ENDBRANCH   5  18
BRANCH   3  22
ATOM     22  C   LIG d   1       4.886  92.031 117.125  0.00  0.00     0.382 C 
ATOM     23  O   LIG d   1       5.722  91.797 118.030  0.00  0.00    -0.241 OA
ATOM     24  O   LIG d   1       4.508  93.201 116.927  0.00  0.00    -0.241 OA
ENDBRANCH   3  22
TORSDOF 7
ENDMDL
MODEL 9
REMARK VINA RESULT:      -4.2     14.914     17.181
REMARK  7 active torsions:
REMARK  status: ('A' for Active; 'I' for Inactive)
REMARK    1  A    between atoms: C_2  and  C_3 
REMARK    2  A    between atoms: C_3  and  O_6 
REMARK    3  A    between atoms: C_3  and  C_4 
REMARK    4  A    between atoms: C_7  and  O_6 
REMARK    5  A    between atoms: C_9  and  C_10 
REMARK    6  A    between atoms: N_15  and  C_14 
REMARK    7  A    between atoms: N_20  and  C_19 
REMARK       I    between atoms: C_22  and  N_20 
ROOT
ATOM      1  C   LIG d   1       3.484  88.500 116.099  0.00  0.00     0.161 C 
ATOM      2  C   LIG d   1       3.199  87.376 115.306  0.00  0.00     0.016 C 
ATOM      3  C   LIG d   1       3.424  87.330 113.911  0.00  0.00     0.038 C 
ATOM      4  C   LIG d   1       4.094  88.360 113.234  0.00  0.00     0.028 C 
ATOM      5  C   LIG d   1       3.944  89.722 113.903  0.00  0.00    -0.047 C 
ATOM      6  C   LIG d   1       4.318  89.592 115.397  0.00  0.00     0.091 C 
ENDROOT
BRANCH   1   7
ATOM      7  O   LIG d   1       4.127  88.087 117.321  0.00  0.00    -0.368 OA
BRANCH   7   8
ATOM      8  C   LIG d   1       5.373  87.362 117.172  0.00  0.00     0.119 C 
BRANCH   8   9
ATOM      9  C   LIG d   1       5.241  86.047 117.964  0.00  0.00     0.028 C 
ATOM     10  C   LIG d   1       5.398  84.805 117.071  0.00  0.00     0.006 C 
ENDBRANCH   8   9
BRANCH   8  11
ATOM     11  C   LIG d   1       6.536  88.114 117.824  0.00  0.00     0.028 C 
ATOM     12  C   LIG d   1       7.813  88.093 116.969  0.00  0.00     0.006 C 
ENDBRANCH   8  11
ENDBRANCH   7   8
ENDBRANCH   1   7
BRANCH   6  13
ATOM     13  N   LIG d   1       4.118  90.861 116.144  0.00  0.00    -0.311 N 
ATOM     14  C   LIG d   1       5.118  91.573 116.660  0.00  0.00     0.210 C 
ATOM     15  C   LIG d   1       4.691  92.839 117.409  0.00  0.00     0.109 C 
ATOM     16  O   LIG d   1       6.320  91.294 116.541  0.00  0.00    -0.276 OA
ATOM     17  H   LIG d   1       3.175  91.178 116.261  0.00  0.00     0.149 HD
ENDBRANCH   6  13
BRANCH   5  18
ATOM     18  N   LIG d   1       4.802  90.674 113.172  0.00  0.00     0.381 N 
ATOM     19  H   LIG d   1       4.543  91.612 113.406  0.00  0.00    -0.090 HD
ATOM     20  H   LIG d   1       4.664  90.545 112.185  0.00  0.00    -0.090 HD
ATOM     21  H   LIG d   1       5.758  90.518 113.404  0.00  0.00    -0.090 HD
ENDBRANCH   5  18
BRANCH   3  22
ATOM     22  C   LIG d   1       2.940  86.261 113.172  0.00  0.00     0.382 C 
ATOM     23  O   LIG d   1       1.740  86.245 112.805  0.00  0.00    -0.241 OA
ATOM     24  O   LIG d   1       3.676  85.293 112.905  0.00  0.00    -0.241 OA
ENDBRANCH   3  22
TORSDOF 7
ENDMDL
