MODEL 1
REMARK VINA RESULT:      -4.9      0.000      0.000
REMARK  7 active torsions:
REMARK  status: ('A' for Active; 'I' for Inactive)
REMARK    1  A    between atoms: C_2  and  C_3 
REMARK    2  A    between atoms: C_3  and  O_6 
REMARK    3  A    between atoms: C_3  and  C_4 
REMARK    4  A    between atoms: C_7  and  O_6 
REMARK    5  A    between atoms: C_9  and  C_10 
REMARK    6  A    between atoms: N_15  and  C_14 
REMARK    7  A    between atoms: N_20  and  C_19 
REMARK       I    between atoms: C_22  and  N_20 
ROOT
ATOM      1  C   LIG d   1      -4.130  78.426 117.469  0.00  0.00     0.161 C 
ATOM      2  C   LIG d   1      -3.278  79.298 118.168  0.00  0.00     0.016 C 
ATOM      3  C   LIG d   1      -1.875  79.321 117.994  0.00  0.00     0.038 C 
ATOM      4  C   LIG d   1      -1.240  78.573 116.992  0.00  0.00     0.028 C 
ATOM      5  C   LIG d   1      -2.000  77.308 116.607  0.00  0.00    -0.047 C 
ATOM      6  C   LIG d   1      -3.467  77.680 116.292  0.00  0.00     0.091 C 
ENDROOT
BRANCH   1   7
ATOM      7  O   LIG d   1      -5.297  79.141 117.016  0.00  0.00    -0.368 OA
BRANCH   7   8
ATOM      8  C   LIG d   1      -6.497  78.970 117.810  0.00  0.00     0.119 C 
BRANCH   8   9
ATOM      9  C   LIG d   1      -7.298  77.807 117.194  0.00  0.00     0.028 C 
ATOM     10  C   LIG d   1      -8.757  77.779 117.678  0.00  0.00     0.006 C 
ENDBRANCH   8   9
BRANCH   8  11
ATOM     11  C   LIG d   1      -7.412  80.194 117.705  0.00  0.00     0.028 C 
ATOM     12  C   LIG d   1      -6.838  81.430 118.415  0.00  0.00     0.006 C 
ENDBRANCH   8  11
ENDBRANCH   7   8
ENDBRANCH   1   7
BRANCH   6  13
ATOM     13  N   LIG d   1      -4.301  76.488 115.989  0.00  0.00    -0.311 N 
ATOM     14  C   LIG d   1      -4.613  76.108 114.751  0.00  0.00     0.210 C 
ATOM     15  C   LIG d   1      -5.501  74.862 114.661  0.00  0.00     0.109 C 
ATOM     16  O   LIG d   1      -4.212  76.664 113.718  0.00  0.00    -0.276 OA
ATOM     17  H   LIG d   1      -4.643  75.960 116.767  0.00  0.00     0.149 HD
ENDBRANCH   6  13
BRANCH   5  18
ATOM     18  N   LIG d   1      -1.300  76.698 115.461  0.00  0.00     0.381 N 
ATOM     19  H   LIG d   1      -1.522  77.198 114.623  0.00  0.00    -0.090 HD
ATOM     20  H   LIG d   1      -1.614  75.749 115.355  0.00  0.00    -0.090 HD
ATOM     21  H   LIG d   1      -0.316  76.715 115.615  0.00  0.00    -0.090 HD
ENDBRANCH   5  18
BRANCH   3  22
ATOM     22  C   LIG d   1      -1.088  80.071 118.855  0.00  0.00     0.382 C 
ATOM     23  O   LIG d   1      -1.220  81.318 118.899  0.00  0.00    -0.241 OA
ATOM     24  O   LIG d   1      -0.218  79.521 119.555  0.00  0.00    -0.241 OA
ENDBRANCH   3  22
TORSDOF 7
ENDMDL
MODEL 2
REMARK VINA RESULT:      -4.8     16.772     19.511
REMARK  7 active torsions:
REMARK  status: ('A' for Active; 'I' for Inactive)
REMARK    1  A    between atoms: C_2  and  C_3 
REMARK    2  A    between atoms: C_3  and  O_6 
REMARK    3  A    between atoms: C_3  and  C_4 
REMARK    4  A    between atoms: C_7  and  O_6 
REMARK    5  A    between atoms: C_9  and  C_10 
REMARK    6  A    between atoms: N_15  and  C_14 
REMARK    7  A    between atoms: N_20  and  C_19 
REMARK       I    between atoms: C_22  and  N_20 
ROOT
ATOM      1  C   LIG d   1     -17.052  65.012 115.603  0.00  0.00     0.161 C 
ATOM      2  C   LIG d   1     -16.184  64.468 116.564  0.00  0.00     0.016 C 
ATOM      3  C   LIG d   1     -16.421  63.236 117.217  0.00  0.00     0.038 C 
ATOM      4  C   LIG d   1     -17.471  62.387 116.840  0.00  0.00     0.028 C 
ATOM      5  C   LIG d   1     -18.657  63.125 116.228  0.00  0.00    -0.047 C 
ATOM      6  C   LIG d   1     -18.145  64.047 115.098  0.00  0.00     0.091 C 
ENDROOT
BRANCH   1   7
ATOM      7  O   LIG d   1     -16.290  65.530 114.494  0.00  0.00    -0.368 OA
BRANCH   7   8
ATOM      8  C   LIG d   1     -16.362  66.961 114.284  0.00  0.00     0.119 C 
BRANCH   8   9
ATOM      9  C   LIG d   1     -15.768  67.256 112.893  0.00  0.00     0.028 C 
ATOM     10  C   LIG d   1     -14.888  68.517 112.886  0.00  0.00     0.006 C 
ENDBRANCH   8   9
BRANCH   8  11
ATOM     11  C   LIG d   1     -15.469  67.715 115.274  0.00  0.00     0.028 C 
ATOM     12  C   LIG d   1     -16.271  68.435 116.371  0.00  0.00     0.006 C 
ENDBRANCH   8  11
ENDBRANCH   7   8
ENDBRANCH   1   7
BRANCH   6  13
ATOM     13  N   LIG d   1     -19.231  64.869 114.502  0.00  0.00    -0.311 N 
ATOM     14  C   LIG d   1     -19.910  64.509 113.415  0.00  0.00     0.210 C 
ATOM     15  C   LIG d   1     -20.974  65.511 112.955  0.00  0.00     0.109 C 
ATOM     16  O   LIG d   1     -19.755  63.439 112.806  0.00  0.00    -0.276 OA
ATOM     17  H   LIG d   1     -19.444  65.738 114.951  0.00  0.00     0.149 HD
ENDBRANCH   6  13
BRANCH   5  18
ATOM     18  N   LIG d   1     -19.618  62.110 115.756  0.00  0.00     0.381 N 
ATOM     19  H   LIG d   1     -19.905  61.533 116.521  0.00  0.00    -0.090 HD
ATOM     20  H   LIG d   1     -19.166  61.528 115.073  0.00  0.00    -0.090 HD
ATOM     21  H   LIG d   1     -20.412  62.555 115.350  0.00  0.00    -0.090 HD
ENDBRANCH   5  18
BRANCH   3  22
ATOM     22  C   LIG d   1     -15.623  62.862 118.287  0.00  0.00     0.382 C 
ATOM     23  O   LIG d   1     -15.809  61.757 118.852  0.00  0.00    -0.241 OA
ATOM     24  O   LIG d   1     -14.748  63.634 118.724  0.00  0.00    -0.241 OA
ENDBRANCH   3  22
TORSDOF 7
ENDMDL
MODEL 3
REMARK VINA RESULT:      -4.8     16.200     19.132
REMARK  7 active torsions:
REMARK  status: ('A' for Active; 'I' for Inactive)
REMARK    1  A    between atoms: C_2  and  C_3 
REMARK    2  A    between atoms: C_3  and  O_6 
REMARK    3  A    between atoms: C_3  and  C_4 
REMARK    4  A    between atoms: C_7  and  O_6 
REMARK    5  A    between atoms: C_9  and  C_10 
REMARK    6  A    between atoms: N_15  and  C_14 
REMARK    7  A    between atoms: N_20  and  C_19 
REMARK       I    between atoms: C_22  and  N_20 
ROOT
ATOM      1  C   LIG d   1     -17.143  64.851 116.154  0.00  0.00     0.161 C 
ATOM      2  C   LIG d   1     -16.897  66.126 115.618  0.00  0.00     0.016 C 
ATOM      3  C   LIG d   1     -16.022  67.064 116.212  0.00  0.00     0.038 C 
ATOM      4  C   LIG d   1     -15.212  66.732 117.308  0.00  0.00     0.028 C 
ATOM      5  C   LIG d   1     -15.798  65.630 118.183  0.00  0.00    -0.047 C 
ATOM      6  C   LIG d   1     -16.184  64.430 117.287  0.00  0.00     0.091 C 
ENDROOT
BRANCH   1   7
ATOM      7  O   LIG d   1     -17.136  63.868 115.100  0.00  0.00    -0.368 OA
BRANCH   7   8
ATOM      8  C   LIG d   1     -18.433  63.455 114.604  0.00  0.00     0.119 C 
BRANCH   8   9
ATOM      9  C   LIG d   1     -18.395  61.925 114.428  0.00  0.00     0.028 C 
ATOM     10  C   LIG d   1     -18.679  61.175 115.741  0.00  0.00     0.006 C 
ENDBRANCH   8   9
BRANCH   8  11
ATOM     11  C   LIG d   1     -18.700  64.018 113.205  0.00  0.00     0.028 C 
ATOM     12  C   LIG d   1     -20.090  64.661 113.077  0.00  0.00     0.006 C 
ENDBRANCH   8  11
ENDBRANCH   7   8
ENDBRANCH   1   7
BRANCH   6  13
ATOM     13  N   LIG d   1     -16.843  63.340 118.053  0.00  0.00    -0.311 N 
ATOM     14  C   LIG d   1     -16.189  62.288 118.541  0.00  0.00     0.210 C 
ATOM     15  C   LIG d   1     -17.062  61.270 119.282  0.00  0.00     0.109 C 
ATOM     16  O   LIG d   1     -14.964  62.117 118.460  0.00  0.00    -0.276 OA
ATOM     17  H   LIG d   1     -17.832  63.415 118.193  0.00  0.00     0.149 HD
ENDBRANCH   6  13
BRANCH   5  18
ATOM     18  N   LIG d   1     -14.791  65.288 119.205  0.00  0.00     0.381 N 
ATOM     19  H   LIG d   1     -15.118  65.564 120.109  0.00  0.00    -0.090 HD
ATOM     20  H   LIG d   1     -13.944  65.792 119.008  0.00  0.00    -0.090 HD
ATOM     21  H   LIG d   1     -14.613  64.308 119.193  0.00  0.00    -0.090 HD
ENDBRANCH   5  18
BRANCH   3  22
ATOM     22  C   LIG d   1     -15.981  68.365 115.733  0.00  0.00     0.382 C 
ATOM     23  O   LIG d   1     -15.520  68.597 114.589  0.00  0.00    -0.241 OA
ATOM     24  O   LIG d   1     -16.357  69.314 116.447  0.00  0.00    -0.241 OA
ENDBRANCH   3  22
TORSDOF 7
ENDMDL
MODEL 4
REMARK VINA RESULT:      -4.7      3.137      6.208
REMARK  7 active torsions:
REMARK  status: ('A' for Active; 'I' for Inactive)
REMARK    1  A    between atoms: C_2  and  C_3 
REMARK    2  A    between atoms: C_3  and  O_6 
REMARK    3  A    between atoms: C_3  and  C_4 
REMARK    4  A    between atoms: C_7  and  O_6 
REMARK    5  A    between atoms: C_9  and  C_10 
REMARK    6  A    between atoms: N_15  and  C_14 
REMARK    7  A    between atoms: N_20  and  C_19 
REMARK       I    between atoms: C_22  and  N_20 
ROOT
ATOM      1  C   LIG d   1      -2.221  77.971 117.414  0.00  0.00     0.161 C 
ATOM      2  C   LIG d   1      -3.294  77.211 116.918  0.00  0.00     0.016 C 
ATOM      3  C   LIG d   1      -3.418  76.833 115.561  0.00  0.00     0.038 C 
ATOM      4  C   LIG d   1      -2.393  77.062 114.631  0.00  0.00     0.028 C 
ATOM      5  C   LIG d   1      -1.522  78.266 114.974  0.00  0.00    -0.047 C 
ATOM      6  C   LIG d   1      -1.039  78.135 116.436  0.00  0.00     0.091 C 
ENDROOT
BRANCH   1   7
ATOM      7  O   LIG d   1      -1.765  77.415 118.663  0.00  0.00    -0.368 OA
BRANCH   7   8
ATOM      8  C   LIG d   1      -0.816  76.325 118.567  0.00  0.00     0.119 C 
BRANCH   8   9
ATOM      9  C   LIG d   1      -1.540  75.040 119.014  0.00  0.00     0.028 C 
ATOM     10  C   LIG d   1      -1.648  74.003 117.884  0.00  0.00     0.006 C 
ENDBRANCH   8   9
BRANCH   8  11
ATOM     11  C   LIG d   1       0.340  76.503 119.555  0.00  0.00     0.028 C 
ATOM     12  C   LIG d   1       1.549  75.613 119.224  0.00  0.00     0.006 C 
ENDBRANCH   8  11
ENDBRANCH   7   8
ENDBRANCH   1   7
BRANCH   6  13
ATOM     13  N   LIG d   1      -0.249  79.314 116.880  0.00  0.00    -0.311 N 
ATOM     14  C   LIG d   1       1.061  79.272 117.115  0.00  0.00     0.210 C 
ATOM     15  C   LIG d   1       1.677  80.594 117.583  0.00  0.00     0.109 C 
ATOM     16  O   LIG d   1       1.778  78.273 116.949  0.00  0.00    -0.276 OA
ATOM     17  H   LIG d   1      -0.746  80.173 117.009  0.00  0.00     0.149 HD
ENDBRANCH   6  13
BRANCH   5  18
ATOM     18  N   LIG d   1      -0.415  78.307 114.000  0.00  0.00     0.381 N 
ATOM     19  H   LIG d   1      -0.105  77.376 113.800  0.00  0.00    -0.090 HD
ATOM     20  H   LIG d   1       0.353  78.815 114.402  0.00  0.00    -0.090 HD
ATOM     21  H   LIG d   1      -0.714  78.752 113.161  0.00  0.00    -0.090 HD
ENDBRANCH   5  18
BRANCH   3  22
ATOM     22  C   LIG d   1      -4.595  76.252 115.114  0.00  0.00     0.382 C 
ATOM     23  O   LIG d   1      -5.698  76.647 115.563  0.00  0.00    -0.241 OA
ATOM     24  O   LIG d   1      -4.566  75.309 114.301  0.00  0.00    -0.241 OA
ENDBRANCH   3  22
TORSDOF 7
ENDMDL
MODEL 5
REMARK VINA RESULT:      -4.6     17.068     19.924
REMARK  7 active torsions:
REMARK  status: ('A' for Active; 'I' for Inactive)
REMARK    1  A    between atoms: C_2  and  C_3 
REMARK    2  A    between atoms: C_3  and  O_6 
REMARK    3  A    between atoms: C_3  and  C_4 
REMARK    4  A    between atoms: C_7  and  O_6 
REMARK    5  A    between atoms: C_9  and  C_10 
REMARK    6  A    between atoms: N_15  and  C_14 
REMARK    7  A    between atoms: N_20  and  C_19 
REMARK       I    between atoms: C_22  and  N_20 
ROOT
ATOM      1  C   LIG d   1     -16.884  63.858 116.682  0.00  0.00     0.161 C 
ATOM      2  C   LIG d   1     -16.298  65.103 116.965  0.00  0.00     0.016 C 
ATOM      3  C   LIG d   1     -16.153  66.131 116.005  0.00  0.00     0.038 C 
ATOM      4  C   LIG d   1     -16.726  66.038 114.727  0.00  0.00     0.028 C 
ATOM      5  C   LIG d   1     -16.885  64.603 114.238  0.00  0.00    -0.047 C 
ATOM      6  C   LIG d   1     -17.614  63.780 115.325  0.00  0.00     0.091 C 
ENDROOT
BRANCH   1   7
ATOM      7  O   LIG d   1     -17.774  63.483 117.752  0.00  0.00    -0.368 OA
BRANCH   7   8
ATOM      8  C   LIG d   1     -17.341  62.380 118.585  0.00  0.00     0.119 C 
BRANCH   8   9
ATOM      9  C   LIG d   1     -15.926  61.980 118.124  0.00  0.00     0.028 C 
ATOM     10  C   LIG d   1     -14.925  61.916 119.289  0.00  0.00     0.006 C 
ENDBRANCH   8   9
BRANCH   8  11
ATOM     11  C   LIG d   1     -18.207  61.137 118.358  0.00  0.00     0.028 C 
ATOM     12  C   LIG d   1     -19.656  61.482 117.979  0.00  0.00     0.006 C 
ENDBRANCH   8  11
ENDBRANCH   7   8
ENDBRANCH   1   7
BRANCH   6  13
ATOM     13  N   LIG d   1     -17.736  62.344 114.962  0.00  0.00    -0.311 N 
ATOM     14  C   LIG d   1     -18.819  61.823 114.386  0.00  0.00     0.210 C 
ATOM     15  C   LIG d   1     -18.745  60.317 114.115  0.00  0.00     0.109 C 
ATOM     16  O   LIG d   1     -19.819  62.471 114.045  0.00  0.00    -0.276 OA
ATOM     17  H   LIG d   1     -16.958  61.752 115.175  0.00  0.00     0.149 HD
ENDBRANCH   6  13
BRANCH   5  18
ATOM     18  N   LIG d   1     -17.618  64.647 112.958  0.00  0.00     0.381 N 
ATOM     19  H   LIG d   1     -16.995  64.908 112.220  0.00  0.00    -0.090 HD
ATOM     20  H   LIG d   1     -18.340  65.343 113.021  0.00  0.00    -0.090 HD
ATOM     21  H   LIG d   1     -18.020  63.757 112.765  0.00  0.00    -0.090 HD
ENDBRANCH   5  18
BRANCH   3  22
ATOM     22  C   LIG d   1     -15.394  67.252 116.307  0.00  0.00     0.382 C 
ATOM     23  O   LIG d   1     -14.358  67.138 117.005  0.00  0.00    -0.241 OA
ATOM     24  O   LIG d   1     -15.757  68.381 115.927  0.00  0.00    -0.241 OA
ENDBRANCH   3  22
TORSDOF 7
ENDMDL
MODEL 6
REMARK VINA RESULT:      -4.4      1.954      2.824
REMARK  7 active torsions:
REMARK  status: ('A' for Active; 'I' for Inactive)
REMARK    1  A    between atoms: C_2  and  C_3 
REMARK    2  A    between atoms: C_3  and  O_6 
REMARK    3  A    between atoms: C_3  and  C_4 
REMARK    4  A    between atoms: C_7  and  O_6 
REMARK    5  A    between atoms: C_9  and  C_10 
REMARK    6  A    between atoms: N_15  and  C_14 
REMARK    7  A    between atoms: N_20  and  C_19 
REMARK       I    between atoms: C_22  and  N_20 
ROOT
ATOM      1  C   LIG d   1      -1.906  77.845 117.771  0.00  0.00     0.161 C 
ATOM      2  C   LIG d   1      -0.668  78.209 118.327  0.00  0.00     0.016 C 
ATOM      3  C   LIG d   1       0.576  77.825 117.775  0.00  0.00     0.038 C 
ATOM      4  C   LIG d   1       0.667  77.172 116.537  0.00  0.00     0.028 C 
ATOM      5  C   LIG d   1      -0.567  76.344 116.195  0.00  0.00    -0.047 C 
ATOM      6  C   LIG d   1      -1.825  77.228 116.360  0.00  0.00     0.091 C 
ENDROOT
BRANCH   1   7
ATOM      7  O   LIG d   1      -2.794  78.980 117.771  0.00  0.00    -0.368 OA
BRANCH   7   8
ATOM      8  C   LIG d   1      -3.572  79.181 118.977  0.00  0.00     0.119 C 
BRANCH   8   9
ATOM      9  C   LIG d   1      -5.035  78.826 118.648  0.00  0.00     0.028 C 
ATOM     10  C   LIG d   1      -5.396  79.121 117.182  0.00  0.00     0.006 C 
ENDBRANCH   8   9
BRANCH   8  11
ATOM     11  C   LIG d   1      -3.596  80.656 119.386  0.00  0.00     0.028 C 
ATOM     12  C   LIG d   1      -2.205  81.310 119.339  0.00  0.00     0.006 C 
ENDBRANCH   8  11
ENDBRANCH   7   8
ENDBRANCH   1   7
BRANCH   6  13
ATOM     13  N   LIG d   1      -3.083  76.472 116.126  0.00  0.00    -0.311 N 
ATOM     14  C   LIG d   1      -3.714  76.442 114.954  0.00  0.00     0.210 C 
ATOM     15  C   LIG d   1      -5.005  75.619 114.935  0.00  0.00     0.109 C 
ATOM     16  O   LIG d   1      -3.310  76.994 113.919  0.00  0.00    -0.276 OA
ATOM     17  H   LIG d   1      -3.464  75.970 116.904  0.00  0.00     0.149 HD
ENDBRANCH   6  13
BRANCH   5  18
ATOM     18  N   LIG d   1      -0.395  75.833 114.823  0.00  0.00     0.381 N 
ATOM     19  H   LIG d   1      -0.204  76.592 114.200  0.00  0.00    -0.090 HD
ATOM     20  H   LIG d   1      -1.249  75.392 114.530  0.00  0.00    -0.090 HD
ATOM     21  H   LIG d   1       0.353  75.175 114.795  0.00  0.00    -0.090 HD
ENDBRANCH   5  18
BRANCH   3  22
ATOM     22  C   LIG d   1       1.744  78.058 118.485  0.00  0.00     0.382 C 
ATOM     23  O   LIG d   1       2.218  79.218 118.548  0.00  0.00    -0.241 OA
ATOM     24  O   LIG d   1       2.354  77.117 119.025  0.00  0.00    -0.241 OA
ENDBRANCH   3  22
TORSDOF 7
ENDMDL
MODEL 7
REMARK VINA RESULT:      -4.2     16.808     19.284
REMARK  7 active torsions:
REMARK  status: ('A' for Active; 'I' for Inactive)
REMARK    1  A    between atoms: C_2  and  C_3 
REMARK    2  A    between atoms: C_3  and  O_6 
REMARK    3  A    between atoms: C_3  and  C_4 
REMARK    4  A    between atoms: C_7  and  O_6 
REMARK    5  A    between atoms: C_9  and  C_10 
REMARK    6  A    between atoms: N_15  and  C_14 
REMARK    7  A    between atoms: N_20  and  C_19 
REMARK       I    between atoms: C_22  and  N_20 
ROOT
ATOM      1  C   LIG d   1     -16.817  65.136 116.788  0.00  0.00     0.161 C 
ATOM      2  C   LIG d   1     -15.900  64.214 117.322  0.00  0.00     0.016 C 
ATOM      3  C   LIG d   1     -16.249  62.894 117.688  0.00  0.00     0.038 C 
ATOM      4  C   LIG d   1     -17.511  62.354 117.401  0.00  0.00     0.028 C 
ATOM      5  C   LIG d   1     -18.616  63.402 117.325  0.00  0.00    -0.047 C 
ATOM      6  C   LIG d   1     -18.171  64.530 116.365  0.00  0.00     0.091 C 
ENDROOT
BRANCH   1   7
ATOM      7  O   LIG d   1     -16.215  65.838 115.682  0.00  0.00    -0.368 OA
BRANCH   7   8
ATOM      8  C   LIG d   1     -15.451  67.022 116.019  0.00  0.00     0.119 C 
BRANCH   8   9
ATOM      9  C   LIG d   1     -16.106  67.658 117.261  0.00  0.00     0.028 C 
ATOM     10  C   LIG d   1     -16.820  68.980 116.936  0.00  0.00     0.006 C 
ENDBRANCH   8   9
BRANCH   8  11
ATOM     11  C   LIG d   1     -15.553  68.083 114.919  0.00  0.00     0.028 C 
ATOM     12  C   LIG d   1     -15.482  67.484 113.506  0.00  0.00     0.006 C 
ENDBRANCH   8  11
ENDBRANCH   7   8
ENDBRANCH   1   7
BRANCH   6  13
ATOM     13  N   LIG d   1     -19.158  65.639 116.298  0.00  0.00    -0.311 N 
ATOM     14  C   LIG d   1     -19.576  66.314 117.367  0.00  0.00     0.210 C 
ATOM     15  C   LIG d   1     -20.612  67.406 117.078  0.00  0.00     0.109 C 
ATOM     16  O   LIG d   1     -19.164  66.135 118.523  0.00  0.00    -0.276 OA
ATOM     17  H   LIG d   1     -19.522  65.872 115.394  0.00  0.00     0.149 HD
ENDBRANCH   6  13
BRANCH   5  18
ATOM     18  N   LIG d   1     -19.848  62.721 116.885  0.00  0.00     0.381 N 
ATOM     19  H   LIG d   1     -20.543  62.781 117.603  0.00  0.00    -0.090 HD
ATOM     20  H   LIG d   1     -19.643  61.751 116.724  0.00  0.00    -0.090 HD
ATOM     21  H   LIG d   1     -20.188  63.139 116.047  0.00  0.00    -0.090 HD
ENDBRANCH   5  18
BRANCH   3  22
ATOM     22  C   LIG d   1     -15.340  62.111 118.384  0.00  0.00     0.382 C 
ATOM     23  O   LIG d   1     -15.732  61.086 118.992  0.00  0.00    -0.241 OA
ATOM     24  O   LIG d   1     -14.141  62.441 118.448  0.00  0.00    -0.241 OA
ENDBRANCH   3  22
TORSDOF 7
ENDMDL
MODEL 8
REMARK VINA RESULT:      -4.1      9.403     11.920
REMARK  7 active torsions:
REMARK  status: ('A' for Active; 'I' for Inactive)
REMARK    1  A    between atoms: C_2  and  C_3 
REMARK    2  A    between atoms: C_3  and  O_6 
REMARK    3  A    between atoms: C_3  and  C_4 
REMARK    4  A    between atoms: C_7  and  O_6 
REMARK    5  A    between atoms: C_9  and  C_10 
REMARK    6  A    between atoms: N_15  and  C_14 
REMARK    7  A    between atoms: N_20  and  C_19 
REMARK       I    between atoms: C_22  and  N_20 
ROOT
ATOM      1  C   LIG d   1       4.047  85.781 114.290  0.00  0.00     0.161 C 
ATOM      2  C   LIG d   1       4.115  87.134 113.920  0.00  0.00     0.016 C 
ATOM      3  C   LIG d   1       4.965  88.072 114.550  0.00  0.00     0.038 C 
ATOM      4  C   LIG d   1       5.922  87.684 115.499  0.00  0.00     0.028 C 
ATOM      5  C   LIG d   1       5.541  86.420 116.262  0.00  0.00    -0.047 C 
ATOM      6  C   LIG d   1       5.164  85.316 115.248  0.00  0.00     0.091 C 
ENDROOT
BRANCH   1   7
ATOM      7  O   LIG d   1       4.022  84.952 113.111  0.00  0.00    -0.368 OA
BRANCH   7   8
ATOM      8  C   LIG d   1       2.756  84.317 112.805  0.00  0.00     0.119 C 
BRANCH   8   9
ATOM      9  C   LIG d   1       1.723  84.828 113.828  0.00  0.00     0.028 C 
ATOM     10  C   LIG d   1       0.590  85.632 113.166  0.00  0.00     0.006 C 
ENDBRANCH   8   9
BRANCH   8  11
ATOM     11  C   LIG d   1       2.826  82.803 113.021  0.00  0.00     0.028 C 
ATOM     12  C   LIG d   1       2.107  82.350 114.302  0.00  0.00     0.006 C 
ENDBRANCH   8  11
ENDBRANCH   7   8
ENDBRANCH   1   7
BRANCH   6  13
ATOM     13  N   LIG d   1       4.697  84.072 115.913  0.00  0.00    -0.311 N 
ATOM     14  C   LIG d   1       5.486  83.024 116.144  0.00  0.00     0.210 C 
ATOM     15  C   LIG d   1       4.800  81.834 116.823  0.00  0.00     0.109 C 
ATOM     16  O   LIG d   1       6.697  82.978 115.880  0.00  0.00    -0.276 OA
ATOM     17  H   LIG d   1       3.736  84.035 116.189  0.00  0.00     0.149 HD
ENDBRANCH   6  13
BRANCH   5  18
ATOM     18  N   LIG d   1       6.686  86.054 117.117  0.00  0.00     0.381 N 
ATOM     19  H   LIG d   1       6.529  85.154 117.526  0.00  0.00    -0.090 HD
ATOM     20  H   LIG d   1       6.766  86.727 117.859  0.00  0.00    -0.090 HD
ATOM     21  H   LIG d   1       7.523  86.040 116.578  0.00  0.00    -0.090 HD
ENDBRANCH   5  18
BRANCH   3  22
ATOM     22  C   LIG d   1       4.834  89.422 114.259  0.00  0.00     0.382 C 
ATOM     23  O   LIG d   1       4.964  90.274 115.171  0.00  0.00    -0.241 OA
ATOM     24  O   LIG d   1       4.544  89.795 113.107  0.00  0.00    -0.241 OA
ENDBRANCH   3  22
TORSDOF 7
ENDMDL
MODEL 9
REMARK VINA RESULT:      -4.1     12.152     14.887
REMARK  7 active torsions:
REMARK  status: ('A' for Active; 'I' for Inactive)
REMARK    1  A    between atoms: C_2  and  C_3 
REMARK    2  A    between atoms: C_3  and  O_6 
REMARK    3  A    between atoms: C_3  and  C_4 
REMARK    4  A    between atoms: C_7  and  O_6 
REMARK    5  A    between atoms: C_9  and  C_10 
REMARK    6  A    between atoms: N_15  and  C_14 
REMARK    7  A    between atoms: N_20  and  C_19 
REMARK       I    between atoms: C_22  and  N_20 
ROOT
ATOM      1  C   LIG d   1       4.810  89.855 115.437  0.00  0.00     0.161 C 
ATOM      2  C   LIG d   1       3.833  89.078 114.794  0.00  0.00     0.016 C 
ATOM      3  C   LIG d   1       3.909  87.670 114.680  0.00  0.00     0.038 C 
ATOM      4  C   LIG d   1       4.899  86.926 115.338  0.00  0.00     0.028 C 
ATOM      5  C   LIG d   1       6.187  87.707 115.575  0.00  0.00    -0.047 C 
ATOM      6  C   LIG d   1       5.841  89.050 116.257  0.00  0.00     0.091 C 
ENDROOT
BRANCH   1   7
ATOM      7  O   LIG d   1       4.176  90.849 116.266  0.00  0.00    -0.368 OA
BRANCH   7   8
ATOM      8  C   LIG d   1       3.885  90.451 117.629  0.00  0.00     0.119 C 
BRANCH   8   9
ATOM      9  C   LIG d   1       2.352  90.382 117.774  0.00  0.00     0.028 C 
ATOM     10  C   LIG d   1       1.670  91.716 117.428  0.00  0.00     0.006 C 
ENDBRANCH   8   9
BRANCH   8  11
ATOM     11  C   LIG d   1       4.339  91.516 118.630  0.00  0.00     0.028 C 
ATOM     12  C   LIG d   1       5.148  92.646 117.972  0.00  0.00     0.006 C 
ENDBRANCH   8  11
ENDBRANCH   7   8
ENDBRANCH   1   7
BRANCH   6  13
ATOM     13  N   LIG d   1       7.035  89.913 116.449  0.00  0.00    -0.311 N 
ATOM     14  C   LIG d   1       7.730  89.961 117.584  0.00  0.00     0.210 C 
ATOM     15  C   LIG d   1       8.915  90.932 117.577  0.00  0.00     0.109 C 
ATOM     16  O   LIG d   1       7.498  89.266 118.585  0.00  0.00    -0.276 OA
ATOM     17  H   LIG d   1       7.313  90.487 115.677  0.00  0.00     0.149 HD
ENDBRANCH   6  13
BRANCH   5  18
ATOM     18  N   LIG d   1       7.079  86.859 116.389  0.00  0.00     0.381 N 
ATOM     19  H   LIG d   1       7.852  86.551 115.834  0.00  0.00    -0.090 HD
ATOM     20  H   LIG d   1       6.568  86.050 116.695  0.00  0.00    -0.090 HD
ATOM     21  H   LIG d   1       7.410  87.370 117.177  0.00  0.00    -0.090 HD
ENDBRANCH   5  18
BRANCH   3  22
ATOM     22  C   LIG d   1       3.010  86.997 113.867  0.00  0.00     0.382 C 
ATOM     23  O   LIG d   1       2.064  87.621 113.328  0.00  0.00    -0.241 OA
ATOM     24  O   LIG d   1       3.106  85.766 113.702  0.00  0.00    -0.241 OA
ENDBRANCH   3  22
TORSDOF 7
ENDMDL
