MODEL 1
REMARK VINA RESULT:      -5.6      0.000      0.000
REMARK  7 active torsions:
REMARK  status: ('A' for Active; 'I' for Inactive)
REMARK    1  A    between atoms: C_2  and  C_3 
REMARK    2  A    between atoms: C_3  and  O_6 
REMARK    3  A    between atoms: C_3  and  C_4 
REMARK    4  A    between atoms: C_7  and  O_6 
REMARK    5  A    between atoms: C_9  and  C_10 
REMARK    6  A    between atoms: N_15  and  C_14 
REMARK    7  A    between atoms: N_20  and  C_19 
REMARK       I    between atoms: C_22  and  N_20 
ROOT
ATOM      1  C   LIG d   1      -6.805  76.771 117.155  0.00  0.00     0.161 C 
ATOM      2  C   LIG d   1      -8.065  77.117 117.670  0.00  0.00     0.016 C 
ATOM      3  C   LIG d   1      -8.410  78.430 118.065  0.00  0.00     0.038 C 
ATOM      4  C   LIG d   1      -7.563  79.523 117.828  0.00  0.00     0.028 C 
ATOM      5  C   LIG d   1      -6.087  79.143 117.775  0.00  0.00    -0.047 C 
ATOM      6  C   LIG d   1      -5.906  77.969 116.786  0.00  0.00     0.091 C 
ENDROOT
BRANCH   1   7
ATOM      7  O   LIG d   1      -6.965  75.897 116.020  0.00  0.00    -0.368 OA
BRANCH   7   8
ATOM      8  C   LIG d   1      -6.436  74.556 116.169  0.00  0.00     0.119 C 
BRANCH   8   9
ATOM      9  C   LIG d   1      -5.776  74.167 114.832  0.00  0.00     0.028 C 
ATOM     10  C   LIG d   1      -5.651  75.361 113.870  0.00  0.00     0.006 C 
ENDBRANCH   8   9
BRANCH   8  11
ATOM     11  C   LIG d   1      -7.557  73.535 116.381  0.00  0.00     0.028 C 
ATOM     12  C   LIG d   1      -7.163  72.116 115.939  0.00  0.00     0.006 C 
ENDBRANCH   8  11
ENDBRANCH   7   8
ENDBRANCH   1   7
BRANCH   6  13
ATOM     13  N   LIG d   1      -4.503  77.481 116.737  0.00  0.00    -0.311 N 
ATOM     14  C   LIG d   1      -3.612  77.899 115.840  0.00  0.00     0.210 C 
ATOM     15  C   LIG d   1      -2.228  77.252 115.953  0.00  0.00     0.109 C 
ATOM     16  O   LIG d   1      -3.827  78.767 114.981  0.00  0.00    -0.276 OA
ATOM     17  H   LIG d   1      -4.234  76.797 117.417  0.00  0.00     0.149 HD
ENDBRANCH   6  13
BRANCH   5  18
ATOM     18  N   LIG d   1      -5.331  80.349 117.386  0.00  0.00     0.381 N 
ATOM     19  H   LIG d   1      -5.955  81.034 117.010  0.00  0.00    -0.090 HD
ATOM     20  H   LIG d   1      -4.668  80.101 116.673  0.00  0.00    -0.090 HD
ATOM     21  H   LIG d   1      -4.854  80.722 118.177  0.00  0.00    -0.090 HD
ENDBRANCH   5  18
BRANCH   3  22
ATOM     22  C   LIG d   1      -9.600  78.654 118.740  0.00  0.00     0.382 C 
ATOM     23  O   LIG d   1     -10.602  77.938 118.500  0.00  0.00    -0.241 OA
ATOM     24  O   LIG d   1      -9.698  79.592 119.555  0.00  0.00    -0.241 OA
ENDBRANCH   3  22
TORSDOF 7
ENDMDL
MODEL 2
REMARK VINA RESULT:      -5.1      3.884      5.842
REMARK  7 active torsions:
REMARK  status: ('A' for Active; 'I' for Inactive)
REMARK    1  A    between atoms: C_2  and  C_3 
REMARK    2  A    between atoms: C_3  and  O_6 
REMARK    3  A    between atoms: C_3  and  C_4 
REMARK    4  A    between atoms: C_7  and  O_6 
REMARK    5  A    between atoms: C_9  and  C_10 
REMARK    6  A    between atoms: N_15  and  C_14 
REMARK    7  A    between atoms: N_20  and  C_19 
REMARK       I    between atoms: C_22  and  N_20 
ROOT
ATOM      1  C   LIG d   1      -2.964  75.735 116.258  0.00  0.00     0.161 C 
ATOM      2  C   LIG d   1      -3.233  76.939 115.586  0.00  0.00     0.016 C 
ATOM      3  C   LIG d   1      -2.340  77.531 114.663  0.00  0.00     0.038 C 
ATOM      4  C   LIG d   1      -1.176  76.876 114.233  0.00  0.00     0.028 C 
ATOM      5  C   LIG d   1      -0.617  75.897 115.260  0.00  0.00    -0.047 C 
ATOM      6  C   LIG d   1      -1.749  74.950 115.719  0.00  0.00     0.091 C 
ENDROOT
BRANCH   1   7
ATOM      7  O   LIG d   1      -4.140  74.901 116.256  0.00  0.00    -0.368 OA
BRANCH   7   8
ATOM      8  C   LIG d   1      -5.092  75.144 115.191  0.00  0.00     0.119 C 
BRANCH   8   9
ATOM      9  C   LIG d   1      -6.498  75.150 115.820  0.00  0.00     0.028 C 
ATOM     10  C   LIG d   1      -6.470  75.500 117.317  0.00  0.00     0.006 C 
ENDBRANCH   8   9
BRANCH   8  11
ATOM     11  C   LIG d   1      -5.104  73.993 114.181  0.00  0.00     0.028 C 
ATOM     12  C   LIG d   1      -5.727  72.709 114.749  0.00  0.00     0.006 C 
ENDBRANCH   8  11
ENDBRANCH   7   8
ENDBRANCH   1   7
BRANCH   6  13
ATOM     13  N   LIG d   1      -1.309  74.015 116.786  0.00  0.00    -0.311 N 
ATOM     14  C   LIG d   1      -0.682  74.408 117.893  0.00  0.00     0.210 C 
ATOM     15  C   LIG d   1      -0.297  73.280 118.855  0.00  0.00     0.109 C 
ATOM     16  O   LIG d   1      -0.436  75.588 118.185  0.00  0.00    -0.276 OA
ATOM     17  H   LIG d   1      -1.495  73.041 116.645  0.00  0.00     0.149 HD
ENDBRANCH   6  13
BRANCH   5  18
ATOM     18  N   LIG d   1       0.512  75.187 114.630  0.00  0.00     0.381 N 
ATOM     19  H   LIG d   1       1.187  74.940 115.326  0.00  0.00    -0.090 HD
ATOM     20  H   LIG d   1       0.952  75.799 113.967  0.00  0.00    -0.090 HD
ATOM     21  H   LIG d   1       0.184  74.366 114.170  0.00  0.00    -0.090 HD
ENDBRANCH   5  18
BRANCH   3  22
ATOM     22  C   LIG d   1      -2.589  78.810 114.190  0.00  0.00     0.382 C 
ATOM     23  O   LIG d   1      -2.092  79.183 113.100  0.00  0.00    -0.241 OA
ATOM     24  O   LIG d   1      -3.268  79.611 114.861  0.00  0.00    -0.241 OA
ENDBRANCH   3  22
TORSDOF 7
ENDMDL
MODEL 3
REMARK VINA RESULT:      -4.9      1.559      2.280
REMARK  7 active torsions:
REMARK  status: ('A' for Active; 'I' for Inactive)
REMARK    1  A    between atoms: C_2  and  C_3 
REMARK    2  A    between atoms: C_3  and  O_6 
REMARK    3  A    between atoms: C_3  and  C_4 
REMARK    4  A    between atoms: C_7  and  O_6 
REMARK    5  A    between atoms: C_9  and  C_10 
REMARK    6  A    between atoms: N_15  and  C_14 
REMARK    7  A    between atoms: N_20  and  C_19 
REMARK       I    between atoms: C_22  and  N_20 
ROOT
ATOM      1  C   LIG d   1      -6.447  78.218 118.281  0.00  0.00     0.161 C 
ATOM      2  C   LIG d   1      -7.822  78.120 118.549  0.00  0.00     0.016 C 
ATOM      3  C   LIG d   1      -8.720  79.204 118.421  0.00  0.00     0.038 C 
ATOM      4  C   LIG d   1      -8.326  80.432 117.867  0.00  0.00     0.028 C 
ATOM      5  C   LIG d   1      -6.843  80.733 118.056  0.00  0.00    -0.047 C 
ATOM      6  C   LIG d   1      -6.018  79.519 117.569  0.00  0.00     0.091 C 
ENDROOT
BRANCH   1   7
ATOM      7  O   LIG d   1      -6.012  77.069 117.528  0.00  0.00    -0.368 OA
BRANCH   7   8
ATOM      8  C   LIG d   1      -7.044  76.352 116.806  0.00  0.00     0.119 C 
BRANCH   8   9
ATOM      9  C   LIG d   1      -7.164  74.952 117.439  0.00  0.00     0.028 C 
ATOM     10  C   LIG d   1      -7.260  73.837 116.384  0.00  0.00     0.006 C 
ENDBRANCH   8   9
BRANCH   8  11
ATOM     11  C   LIG d   1      -6.636  76.105 115.351  0.00  0.00     0.028 C 
ATOM     12  C   LIG d   1      -5.237  76.649 115.023  0.00  0.00     0.006 C 
ENDBRANCH   8  11
ENDBRANCH   7   8
ENDBRANCH   1   7
BRANCH   6  13
ATOM     13  N   LIG d   1      -4.560  79.696 117.796  0.00  0.00    -0.311 N 
ATOM     14  C   LIG d   1      -3.681  79.872 116.811  0.00  0.00     0.210 C 
ATOM     15  C   LIG d   1      -2.224  80.015 117.262  0.00  0.00     0.109 C 
ATOM     16  O   LIG d   1      -3.974  79.955 115.609  0.00  0.00    -0.276 OA
ATOM     17  H   LIG d   1      -4.240  79.674 118.744  0.00  0.00     0.149 HD
ENDBRANCH   6  13
BRANCH   5  18
ATOM     18  N   LIG d   1      -6.542  81.971 117.313  0.00  0.00     0.381 N 
ATOM     19  H   LIG d   1      -7.382  82.342 116.918  0.00  0.00    -0.090 HD
ATOM     20  H   LIG d   1      -5.909  81.755 116.563  0.00  0.00    -0.090 HD
ATOM     21  H   LIG d   1      -6.129  82.642 117.923  0.00  0.00    -0.090 HD
ENDBRANCH   5  18
BRANCH   3  22
ATOM     22  C   LIG d   1     -10.020  79.079 118.888  0.00  0.00     0.382 C 
ATOM     23  O   LIG d   1     -10.682  78.046 118.629  0.00  0.00    -0.241 OA
ATOM     24  O   LIG d   1     -10.554  80.006 119.526  0.00  0.00    -0.241 OA
ENDBRANCH   3  22
TORSDOF 7
ENDMDL
MODEL 4
REMARK VINA RESULT:      -4.7      1.568      2.077
REMARK  7 active torsions:
REMARK  status: ('A' for Active; 'I' for Inactive)
REMARK    1  A    between atoms: C_2  and  C_3 
REMARK    2  A    between atoms: C_3  and  O_6 
REMARK    3  A    between atoms: C_3  and  C_4 
REMARK    4  A    between atoms: C_7  and  O_6 
REMARK    5  A    between atoms: C_9  and  C_10 
REMARK    6  A    between atoms: N_15  and  C_14 
REMARK    7  A    between atoms: N_20  and  C_19 
REMARK       I    between atoms: C_22  and  N_20 
ROOT
ATOM      1  C   LIG d   1      -5.511  78.052 116.679  0.00  0.00     0.161 C 
ATOM      2  C   LIG d   1      -6.801  77.995 117.233  0.00  0.00     0.016 C 
ATOM      3  C   LIG d   1      -7.412  79.085 117.895  0.00  0.00     0.038 C 
ATOM      4  C   LIG d   1      -6.830  80.361 117.916  0.00  0.00     0.028 C 
ATOM      5  C   LIG d   1      -5.309  80.335 117.810  0.00  0.00    -0.047 C 
ATOM      6  C   LIG d   1      -4.906  79.469 116.594  0.00  0.00     0.091 C 
ENDROOT
BRANCH   1   7
ATOM      7  O   LIG d   1      -5.509  77.428 115.380  0.00  0.00    -0.368 OA
BRANCH   7   8
ATOM      8  C   LIG d   1      -5.026  76.063 115.329  0.00  0.00     0.119 C 
BRANCH   8   9
ATOM      9  C   LIG d   1      -3.793  76.043 114.405  0.00  0.00     0.028 C 
ATOM     10  C   LIG d   1      -2.472  75.978 115.189  0.00  0.00     0.006 C 
ENDBRANCH   8   9
BRANCH   8  11
ATOM     11  C   LIG d   1      -6.046  75.134 114.665  0.00  0.00     0.028 C 
ATOM     12  C   LIG d   1      -5.803  73.652 114.990  0.00  0.00     0.006 C 
ENDBRANCH   8  11
ENDBRANCH   7   8
ENDBRANCH   1   7
BRANCH   6  13
ATOM     13  N   LIG d   1      -3.432  79.321 116.467  0.00  0.00    -0.311 N 
ATOM     14  C   LIG d   1      -2.739  79.762 115.419  0.00  0.00     0.210 C 
ATOM     15  C   LIG d   1      -1.233  79.490 115.479  0.00  0.00     0.109 C 
ATOM     16  O   LIG d   1      -3.224  80.380 114.459  0.00  0.00    -0.276 OA
ATOM     17  H   LIG d   1      -2.954  78.859 117.215  0.00  0.00     0.149 HD
ENDBRANCH   6  13
BRANCH   5  18
ATOM     18  N   LIG d   1      -4.845  81.731 117.704  0.00  0.00     0.381 N 
ATOM     19  H   LIG d   1      -3.845  81.758 117.711  0.00  0.00    -0.090 HD
ATOM     20  H   LIG d   1      -5.181  82.246 118.499  0.00  0.00    -0.090 HD
ATOM     21  H   LIG d   1      -5.189  82.142 116.864  0.00  0.00    -0.090 HD
ENDBRANCH   5  18
BRANCH   3  22
ATOM     22  C   LIG d   1      -8.602  78.892 118.581  0.00  0.00     0.382 C 
ATOM     23  O   LIG d   1      -9.559  79.685 118.410  0.00  0.00    -0.241 OA
ATOM     24  O   LIG d   1      -8.715  77.962 119.402  0.00  0.00    -0.241 OA
ENDBRANCH   3  22
TORSDOF 7
ENDMDL
MODEL 5
REMARK VINA RESULT:      -4.6     10.041     13.106
REMARK  7 active torsions:
REMARK  status: ('A' for Active; 'I' for Inactive)
REMARK    1  A    between atoms: C_2  and  C_3 
REMARK    2  A    between atoms: C_3  and  O_6 
REMARK    3  A    between atoms: C_3  and  C_4 
REMARK    4  A    between atoms: C_7  and  O_6 
REMARK    5  A    between atoms: C_9  and  C_10 
REMARK    6  A    between atoms: N_15  and  C_14 
REMARK    7  A    between atoms: N_20  and  C_19 
REMARK       I    between atoms: C_22  and  N_20 
ROOT
ATOM      1  C   LIG d   1       2.387  85.374 114.568  0.00  0.00     0.161 C 
ATOM      2  C   LIG d   1       2.783  86.524 113.865  0.00  0.00     0.016 C 
ATOM      3  C   LIG d   1       4.050  87.132 114.019  0.00  0.00     0.038 C 
ATOM      4  C   LIG d   1       5.070  86.540 114.779  0.00  0.00     0.028 C 
ATOM      5  C   LIG d   1       4.548  85.650 115.903  0.00  0.00    -0.047 C 
ATOM      6  C   LIG d   1       3.525  84.650 115.318  0.00  0.00     0.091 C 
ENDROOT
BRANCH   1   7
ATOM      7  O   LIG d   1       1.717  84.462 113.675  0.00  0.00    -0.368 OA
BRANCH   7   8
ATOM      8  C   LIG d   1       0.275  84.588 113.601  0.00  0.00     0.119 C 
BRANCH   8   9
ATOM      9  C   LIG d   1      -0.248  84.771 115.038  0.00  0.00     0.028 C 
ATOM     10  C   LIG d   1      -1.420  83.829 115.361  0.00  0.00     0.006 C 
ENDBRANCH   8   9
BRANCH   8  11
ATOM     11  C   LIG d   1      -0.371  83.294 113.096  0.00  0.00     0.028 C 
ATOM     12  C   LIG d   1       0.656  82.189 112.805  0.00  0.00     0.006 C 
ENDBRANCH   8  11
ENDBRANCH   7   8
ENDBRANCH   1   7
BRANCH   6  13
ATOM     13  N   LIG d   1       2.904  83.797 116.364  0.00  0.00    -0.311 N 
ATOM     14  C   LIG d   1       2.758  82.479 116.244  0.00  0.00     0.210 C 
ATOM     15  C   LIG d   1       2.073  81.793 117.431  0.00  0.00     0.109 C 
ATOM     16  O   LIG d   1       3.160  81.807 115.282  0.00  0.00    -0.276 OA
ATOM     17  H   LIG d   1       2.577  84.256 117.192  0.00  0.00     0.149 HD
ENDBRANCH   6  13
BRANCH   5  18
ATOM     18  N   LIG d   1       5.712  84.990 116.525  0.00  0.00     0.381 N 
ATOM     19  H   LIG d   1       6.497  85.033 115.906  0.00  0.00    -0.090 HD
ATOM     20  H   LIG d   1       5.490  84.023 116.685  0.00  0.00    -0.090 HD
ATOM     21  H   LIG d   1       5.935  85.434 117.388  0.00  0.00    -0.090 HD
ENDBRANCH   5  18
BRANCH   3  22
ATOM     22  C   LIG d   1       4.294  88.368 113.440  0.00  0.00     0.382 C 
ATOM     23  O   LIG d   1       3.351  89.178 113.270  0.00  0.00    -0.241 OA
ATOM     24  O   LIG d   1       5.438  88.666 113.045  0.00  0.00    -0.241 OA
ENDBRANCH   3  22
TORSDOF 7
ENDMDL
MODEL 6
REMARK VINA RESULT:      -4.5      4.282      6.657
REMARK  7 active torsions:
REMARK  status: ('A' for Active; 'I' for Inactive)
REMARK    1  A    between atoms: C_2  and  C_3 
REMARK    2  A    between atoms: C_3  and  O_6 
REMARK    3  A    between atoms: C_3  and  C_4 
REMARK    4  A    between atoms: C_7  and  O_6 
REMARK    5  A    between atoms: C_9  and  C_10 
REMARK    6  A    between atoms: N_15  and  C_14 
REMARK    7  A    between atoms: N_20  and  C_19 
REMARK       I    between atoms: C_22  and  N_20 
ROOT
ATOM      1  C   LIG d   1      -1.605  77.522 114.929  0.00  0.00     0.161 C 
ATOM      2  C   LIG d   1      -2.821  77.238 114.286  0.00  0.00     0.016 C 
ATOM      3  C   LIG d   1      -3.548  76.042 114.490  0.00  0.00     0.038 C 
ATOM      4  C   LIG d   1      -3.181  75.109 115.471  0.00  0.00     0.028 C 
ATOM      5  C   LIG d   1      -1.689  75.115 115.784  0.00  0.00    -0.047 C 
ATOM      6  C   LIG d   1      -1.246  76.565 116.085  0.00  0.00     0.091 C 
ENDROOT
BRANCH   1   7
ATOM      7  O   LIG d   1      -1.602  78.887 115.389  0.00  0.00    -0.368 OA
BRANCH   7   8
ATOM      8  C   LIG d   1      -2.843  79.617 115.227  0.00  0.00     0.119 C 
BRANCH   8   9
ATOM      9  C   LIG d   1      -2.501  80.973 114.580  0.00  0.00     0.028 C 
ATOM     10  C   LIG d   1      -2.773  82.158 115.523  0.00  0.00     0.006 C 
ENDBRANCH   8   9
BRANCH   8  11
ATOM     11  C   LIG d   1      -3.469  79.960 116.582  0.00  0.00     0.028 C 
ATOM     12  C   LIG d   1      -4.769  79.185 116.851  0.00  0.00     0.006 C 
ENDBRANCH   8  11
ENDBRANCH   7   8
ENDBRANCH   1   7
BRANCH   6  13
ATOM     13  N   LIG d   1       0.218  76.673 116.321  0.00  0.00    -0.311 N 
ATOM     14  C   LIG d   1       0.774  76.597 117.528  0.00  0.00     0.210 C 
ATOM     15  C   LIG d   1       2.298  76.754 117.550  0.00  0.00     0.109 C 
ATOM     16  O   LIG d   1       0.153  76.383 118.581  0.00  0.00    -0.276 OA
ATOM     17  H   LIG d   1       0.799  76.816 115.518  0.00  0.00     0.149 HD
ENDBRANCH   6  13
BRANCH   5  18
ATOM     18  N   LIG d   1      -1.468  74.196 116.917  0.00  0.00     0.381 N 
ATOM     19  H   LIG d   1      -0.638  73.659 116.760  0.00  0.00    -0.090 HD
ATOM     20  H   LIG d   1      -2.246  73.563 116.979  0.00  0.00    -0.090 HD
ATOM     21  H   LIG d   1      -1.383  74.713 117.764  0.00  0.00    -0.090 HD
ENDBRANCH   5  18
BRANCH   3  22
ATOM     22  C   LIG d   1      -4.634  75.752 113.678  0.00  0.00     0.382 C 
ATOM     23  O   LIG d   1      -5.002  76.575 112.805  0.00  0.00    -0.241 OA
ATOM     24  O   LIG d   1      -5.278  74.698 113.837  0.00  0.00    -0.241 OA
ENDBRANCH   3  22
TORSDOF 7
ENDMDL
MODEL 7
REMARK VINA RESULT:      -4.5      1.845      2.753
REMARK  7 active torsions:
REMARK  status: ('A' for Active; 'I' for Inactive)
REMARK    1  A    between atoms: C_2  and  C_3 
REMARK    2  A    between atoms: C_3  and  O_6 
REMARK    3  A    between atoms: C_3  and  C_4 
REMARK    4  A    between atoms: C_7  and  O_6 
REMARK    5  A    between atoms: C_9  and  C_10 
REMARK    6  A    between atoms: N_15  and  C_14 
REMARK    7  A    between atoms: N_20  and  C_19 
REMARK       I    between atoms: C_22  and  N_20 
ROOT
ATOM      1  C   LIG d   1      -4.715  75.768 116.871  0.00  0.00     0.161 C 
ATOM      2  C   LIG d   1      -6.079  75.933 117.161  0.00  0.00     0.016 C 
ATOM      3  C   LIG d   1      -6.727  77.190 117.170  0.00  0.00     0.038 C 
ATOM      4  C   LIG d   1      -6.082  78.359 116.737  0.00  0.00     0.028 C 
ATOM      5  C   LIG d   1      -4.569  78.318 116.919  0.00  0.00    -0.047 C 
ATOM      6  C   LIG d   1      -4.022  77.018 116.289  0.00  0.00     0.091 C 
ENDROOT
BRANCH   1   7
ATOM      7  O   LIG d   1      -4.535  74.640 115.991  0.00  0.00    -0.368 OA
BRANCH   7   8
ATOM      8  C   LIG d   1      -5.654  74.322 115.127  0.00  0.00     0.119 C 
BRANCH   8   9
ATOM      9  C   LIG d   1      -5.777  72.787 115.075  0.00  0.00     0.028 C 
ATOM     10  C   LIG d   1      -6.720  72.237 116.159  0.00  0.00     0.006 C 
ENDBRANCH   8   9
BRANCH   8  11
ATOM     11  C   LIG d   1      -5.382  74.755 113.683  0.00  0.00     0.028 C 
ATOM     12  C   LIG d   1      -6.038  76.101 113.332  0.00  0.00     0.006 C 
ENDBRANCH   8  11
ENDBRANCH   7   8
ENDBRANCH   1   7
BRANCH   6  13
ATOM     13  N   LIG d   1      -2.559  76.858 116.496  0.00  0.00    -0.311 N 
ATOM     14  C   LIG d   1      -1.982  76.885 117.697  0.00  0.00     0.210 C 
ATOM     15  C   LIG d   1      -0.458  76.721 117.685  0.00  0.00     0.109 C 
ATOM     16  O   LIG d   1      -2.590  76.996 118.772  0.00  0.00    -0.276 OA
ATOM     17  H   LIG d   1      -1.993  76.732 115.680  0.00  0.00     0.149 HD
ENDBRANCH   6  13
BRANCH   5  18
ATOM     18  N   LIG d   1      -4.013  79.538 116.303  0.00  0.00     0.381 N 
ATOM     19  H   LIG d   1      -3.101  79.348 115.939  0.00  0.00    -0.090 HD
ATOM     20  H   LIG d   1      -3.930  80.249 117.008  0.00  0.00    -0.090 HD
ATOM     21  H   LIG d   1      -4.611  79.853 115.572  0.00  0.00    -0.090 HD
ENDBRANCH   5  18
BRANCH   3  22
ATOM     22  C   LIG d   1      -8.022  77.292 117.652  0.00  0.00     0.382 C 
ATOM     23  O   LIG d   1      -8.910  76.509 117.237  0.00  0.00    -0.241 OA
ATOM     24  O   LIG d   1      -8.325  78.187 118.465  0.00  0.00    -0.241 OA
ENDBRANCH   3  22
TORSDOF 7
ENDMDL
MODEL 8
REMARK VINA RESULT:      -4.5     11.768     14.563
REMARK  7 active torsions:
REMARK  status: ('A' for Active; 'I' for Inactive)
REMARK    1  A    between atoms: C_2  and  C_3 
REMARK    2  A    between atoms: C_3  and  O_6 
REMARK    3  A    between atoms: C_3  and  C_4 
REMARK    4  A    between atoms: C_7  and  O_6 
REMARK    5  A    between atoms: C_9  and  C_10 
REMARK    6  A    between atoms: N_15  and  C_14 
REMARK    7  A    between atoms: N_20  and  C_19 
REMARK       I    between atoms: C_22  and  N_20 
ROOT
ATOM      1  C   LIG d   1       3.767  86.250 116.410  0.00  0.00     0.161 C 
ATOM      2  C   LIG d   1       3.407  87.173 115.414  0.00  0.00     0.016 C 
ATOM      3  C   LIG d   1       4.348  87.841 114.596  0.00  0.00     0.038 C 
ATOM      4  C   LIG d   1       5.712  87.516 114.618  0.00  0.00     0.028 C 
ATOM      5  C   LIG d   1       6.180  86.956 115.957  0.00  0.00    -0.047 C 
ATOM      6  C   LIG d   1       5.242  85.800 116.373  0.00  0.00     0.091 C 
ENDROOT
BRANCH   1   7
ATOM      7  O   LIG d   1       2.893  85.105 116.354  0.00  0.00    -0.368 OA
BRANCH   7   8
ATOM      8  C   LIG d   1       1.505  85.346 116.695  0.00  0.00     0.119 C 
BRANCH   8   9
ATOM      9  C   LIG d   1       1.233  84.654 118.045  0.00  0.00     0.028 C 
ATOM     10  C   LIG d   1       2.276  83.571 118.370  0.00  0.00     0.006 C 
ENDBRANCH   8   9
BRANCH   8  11
ATOM     11  C   LIG d   1       0.561  84.671 115.696  0.00  0.00     0.028 C 
ATOM     12  C   LIG d   1      -0.078  85.665 114.713  0.00  0.00     0.006 C 
ENDBRANCH   8  11
ENDBRANCH   7   8
ENDBRANCH   1   7
BRANCH   6  13
ATOM     13  N   LIG d   1       5.579  85.250 117.712  0.00  0.00    -0.311 N 
ATOM     14  C   LIG d   1       6.343  84.174 117.892  0.00  0.00     0.210 C 
ATOM     15  C   LIG d   1       6.549  83.765 119.354  0.00  0.00     0.109 C 
ATOM     16  O   LIG d   1       6.895  83.538 116.982  0.00  0.00    -0.276 OA
ATOM     17  H   LIG d   1       5.198  85.723 118.508  0.00  0.00     0.149 HD
ENDBRANCH   6  13
BRANCH   5  18
ATOM     18  N   LIG d   1       7.584  86.532 115.796  0.00  0.00     0.381 N 
ATOM     19  H   LIG d   1       7.618  85.627 115.370  0.00  0.00    -0.090 HD
ATOM     20  H   LIG d   1       8.011  86.469 116.704  0.00  0.00    -0.090 HD
ATOM     21  H   LIG d   1       8.077  87.191 115.234  0.00  0.00    -0.090 HD
ENDBRANCH   5  18
BRANCH   3  22
ATOM     22  C   LIG d   1       3.930  88.875 113.773  0.00  0.00     0.382 C 
ATOM     23  O   LIG d   1       4.374  90.035 113.949  0.00  0.00    -0.241 OA
ATOM     24  O   LIG d   1       3.081  88.672 112.884  0.00  0.00    -0.241 OA
ENDBRANCH   3  22
TORSDOF 7
ENDMDL
MODEL 9
REMARK VINA RESULT:      -4.4     16.182     18.726
REMARK  7 active torsions:
REMARK  status: ('A' for Active; 'I' for Inactive)
REMARK    1  A    between atoms: C_2  and  C_3 
REMARK    2  A    between atoms: C_3  and  O_6 
REMARK    3  A    between atoms: C_3  and  C_4 
REMARK    4  A    between atoms: C_7  and  O_6 
REMARK    5  A    between atoms: C_9  and  C_10 
REMARK    6  A    between atoms: N_15  and  C_14 
REMARK    7  A    between atoms: N_20  and  C_19 
REMARK       I    between atoms: C_22  and  N_20 
ROOT
ATOM      1  C   LIG d   1      11.548  77.468 114.793  0.00  0.00     0.161 C 
ATOM      2  C   LIG d   1      11.604  76.064 114.782  0.00  0.00     0.016 C 
ATOM      3  C   LIG d   1      10.467  75.238 114.941  0.00  0.00     0.038 C 
ATOM      4  C   LIG d   1       9.167  75.765 114.969  0.00  0.00     0.028 C 
ATOM      5  C   LIG d   1       9.105  77.196 115.490  0.00  0.00    -0.047 C 
ATOM      6  C   LIG d   1      10.125  78.058 114.712  0.00  0.00     0.091 C 
ENDROOT
BRANCH   1   7
ATOM      7  O   LIG d   1      12.371  77.998 113.736  0.00  0.00    -0.368 OA
BRANCH   7   8
ATOM      8  C   LIG d   1      13.668  78.509 114.132  0.00  0.00     0.119 C 
BRANCH   8   9
ATOM      9  C   LIG d   1      13.847  79.885 113.463  0.00  0.00     0.028 C 
ATOM     10  C   LIG d   1      13.982  81.023 114.489  0.00  0.00     0.006 C 
ENDBRANCH   8   9
BRANCH   8  11
ATOM     11  C   LIG d   1      14.802  77.639 113.582  0.00  0.00     0.028 C 
ATOM     12  C   LIG d   1      15.329  76.626 114.611  0.00  0.00     0.006 C 
ENDBRANCH   8  11
ENDBRANCH   7   8
ENDBRANCH   1   7
BRANCH   6  13
ATOM     13  N   LIG d   1      10.188  79.455 115.216  0.00  0.00    -0.311 N 
ATOM     14  C   LIG d   1      10.273  80.519 114.419  0.00  0.00     0.210 C 
ATOM     15  C   LIG d   1      10.347  81.866 115.145  0.00  0.00     0.109 C 
ATOM     16  O   LIG d   1      10.262  80.477 113.180  0.00  0.00    -0.276 OA
ATOM     17  H   LIG d   1      10.171  79.583 116.209  0.00  0.00     0.149 HD
ENDBRANCH   6  13
BRANCH   5  18
ATOM     18  N   LIG d   1       7.715  77.666 115.337  0.00  0.00     0.381 N 
ATOM     19  H   LIG d   1       7.293  77.223 114.545  0.00  0.00    -0.090 HD
ATOM     20  H   LIG d   1       7.723  78.658 115.176  0.00  0.00    -0.090 HD
ATOM     21  H   LIG d   1       7.192  77.459 116.160  0.00  0.00    -0.090 HD
ENDBRANCH   5  18
BRANCH   3  22
ATOM     22  C   LIG d   1      10.629  73.872 115.112  0.00  0.00     0.382 C 
ATOM     23  O   LIG d   1       9.629  73.145 115.327  0.00  0.00    -0.241 OA
ATOM     24  O   LIG d   1      11.766  73.364 115.099  0.00  0.00    -0.241 OA
ENDBRANCH   3  22
TORSDOF 7
ENDMDL
