MODEL 1
REMARK VINA RESULT:      -5.3      0.000      0.000
REMARK  7 active torsions:
REMARK  status: ('A' for Active; 'I' for Inactive)
REMARK    1  A    between atoms: C_2  and  C_3 
REMARK    2  A    between atoms: C_3  and  O_6 
REMARK    3  A    between atoms: C_3  and  C_4 
REMARK    4  A    between atoms: C_7  and  O_6 
REMARK    5  A    between atoms: C_9  and  C_10 
REMARK    6  A    between atoms: N_15  and  C_14 
REMARK    7  A    between atoms: N_20  and  C_19 
REMARK       I    between atoms: C_22  and  N_20 
ROOT
ATOM      1  C   LIG d   1      -6.003  78.777 117.494  0.00  0.00     0.161 C 
ATOM      2  C   LIG d   1      -7.376  78.574 117.715  0.00  0.00     0.016 C 
ATOM      3  C   LIG d   1      -8.284  79.623 117.988  0.00  0.00     0.038 C 
ATOM      4  C   LIG d   1      -7.905  80.971 117.909  0.00  0.00     0.028 C 
ATOM      5  C   LIG d   1      -6.423  81.201 118.187  0.00  0.00    -0.047 C 
ATOM      6  C   LIG d   1      -5.592  80.251 117.294  0.00  0.00     0.091 C 
ENDROOT
BRANCH   1   7
ATOM      7  O   LIG d   1      -5.564  77.979 116.378  0.00  0.00    -0.368 OA
BRANCH   7   8
ATOM      8  C   LIG d   1      -5.821  76.556 116.472  0.00  0.00     0.119 C 
BRANCH   8   9
ATOM      9  C   LIG d   1      -4.456  75.842 116.522  0.00  0.00     0.028 C 
ATOM     10  C   LIG d   1      -4.481  74.590 117.415  0.00  0.00     0.006 C 
ENDBRANCH   8   9
BRANCH   8  11
ATOM     11  C   LIG d   1      -6.508  76.029 115.209  0.00  0.00     0.028 C 
ATOM     12  C   LIG d   1      -5.527  75.800 114.048  0.00  0.00     0.006 C 
ENDBRANCH   8  11
ENDBRANCH   7   8
ENDBRANCH   1   7
BRANCH   6  13
ATOM     13  N   LIG d   1      -4.134  80.352 117.564  0.00  0.00    -0.311 N 
ATOM     14  C   LIG d   1      -3.231  80.623 116.623  0.00  0.00     0.210 C 
ATOM     15  C   LIG d   1      -1.780  80.661 117.110  0.00  0.00     0.109 C 
ATOM     16  O   LIG d   1      -3.498  80.868 115.436  0.00  0.00    -0.276 OA
ATOM     17  H   LIG d   1      -3.832  80.198 118.506  0.00  0.00     0.149 HD
ENDBRANCH   6  13
BRANCH   5  18
ATOM     18  N   LIG d   1      -6.139  82.626 117.936  0.00  0.00     0.381 N 
ATOM     19  H   LIG d   1      -5.950  82.768 116.964  0.00  0.00    -0.090 HD
ATOM     20  H   LIG d   1      -5.322  82.892 118.458  0.00  0.00    -0.090 HD
ATOM     21  H   LIG d   1      -6.916  83.184 118.216  0.00  0.00    -0.090 HD
ENDBRANCH   5  18
BRANCH   3  22
ATOM     22  C   LIG d   1      -9.579  79.325 118.384  0.00  0.00     0.382 C 
ATOM     23  O   LIG d   1     -10.075  78.204 118.114  0.00  0.00    -0.241 OA
ATOM     24  O   LIG d   1     -10.273  80.178 118.968  0.00  0.00    -0.241 OA
ENDBRANCH   3  22
TORSDOF 7
ENDMDL
MODEL 2
REMARK VINA RESULT:      -5.1      5.089      6.851
REMARK  7 active torsions:
REMARK  status: ('A' for Active; 'I' for Inactive)
REMARK    1  A    between atoms: C_2  and  C_3 
REMARK    2  A    between atoms: C_3  and  O_6 
REMARK    3  A    between atoms: C_3  and  C_4 
REMARK    4  A    between atoms: C_7  and  O_6 
REMARK    5  A    between atoms: C_9  and  C_10 
REMARK    6  A    between atoms: N_15  and  C_14 
REMARK    7  A    between atoms: N_20  and  C_19 
REMARK       I    between atoms: C_22  and  N_20 
ROOT
ATOM      1  C   LIG d   1      -2.465  75.949 116.976  0.00  0.00     0.161 C 
ATOM      2  C   LIG d   1      -2.697  77.093 116.194  0.00  0.00     0.016 C 
ATOM      3  C   LIG d   1      -2.047  77.338 114.962  0.00  0.00     0.038 C 
ATOM      4  C   LIG d   1      -1.228  76.377 114.352  0.00  0.00     0.028 C 
ATOM      5  C   LIG d   1      -0.570  75.423 115.343  0.00  0.00    -0.047 C 
ATOM      6  C   LIG d   1      -1.658  74.837 116.272  0.00  0.00     0.091 C 
ENDROOT
BRANCH   1   7
ATOM      7  O   LIG d   1      -3.717  75.428 117.462  0.00  0.00    -0.368 OA
BRANCH   7   8
ATOM      8  C   LIG d   1      -4.373  74.451 116.617  0.00  0.00     0.119 C 
BRANCH   8   9
ATOM      9  C   LIG d   1      -5.569  75.150 115.943  0.00  0.00     0.028 C 
ATOM     10  C   LIG d   1      -5.356  75.352 114.433  0.00  0.00     0.006 C 
ENDBRANCH   8   9
BRANCH   8  11
ATOM     11  C   LIG d   1      -4.981  73.315 117.446  0.00  0.00     0.028 C 
ATOM     12  C   LIG d   1      -5.999  72.480 116.655  0.00  0.00     0.006 C 
ENDBRANCH   8  11
ENDBRANCH   7   8
ENDBRANCH   1   7
BRANCH   6  13
ATOM     13  N   LIG d   1      -1.090  73.958 117.327  0.00  0.00    -0.311 N 
ATOM     14  C   LIG d   1      -0.228  74.383 118.249  0.00  0.00     0.210 C 
ATOM     15  C   LIG d   1       0.250  73.309 119.231  0.00  0.00     0.109 C 
ATOM     16  O   LIG d   1       0.162  75.555 118.367  0.00  0.00    -0.276 OA
ATOM     17  H   LIG d   1      -1.376  72.999 117.325  0.00  0.00     0.149 HD
ENDBRANCH   6  13
BRANCH   5  18
ATOM     18  N   LIG d   1       0.142  74.392 114.565  0.00  0.00     0.381 N 
ATOM     19  H   LIG d   1      -0.030  73.490 114.962  0.00  0.00    -0.090 HD
ATOM     20  H   LIG d   1       1.129  74.574 114.611  0.00  0.00    -0.090 HD
ATOM     21  H   LIG d   1      -0.163  74.410 113.617  0.00  0.00    -0.090 HD
ENDBRANCH   5  18
BRANCH   3  22
ATOM     22  C   LIG d   1      -2.183  78.574 114.348  0.00  0.00     0.382 C 
ATOM     23  O   LIG d   1      -1.378  79.498 114.614  0.00  0.00    -0.241 OA
ATOM     24  O   LIG d   1      -3.127  78.789 113.564  0.00  0.00    -0.241 OA
ENDBRANCH   3  22
TORSDOF 7
ENDMDL
MODEL 3
REMARK VINA RESULT:      -4.9      4.446      5.814
REMARK  7 active torsions:
REMARK  status: ('A' for Active; 'I' for Inactive)
REMARK    1  A    between atoms: C_2  and  C_3 
REMARK    2  A    between atoms: C_3  and  O_6 
REMARK    3  A    between atoms: C_3  and  C_4 
REMARK    4  A    between atoms: C_7  and  O_6 
REMARK    5  A    between atoms: C_9  and  C_10 
REMARK    6  A    between atoms: N_15  and  C_14 
REMARK    7  A    between atoms: N_20  and  C_19 
REMARK       I    between atoms: C_22  and  N_20 
ROOT
ATOM      1  C   LIG d   1      -2.570  75.043 116.782  0.00  0.00     0.161 C 
ATOM      2  C   LIG d   1      -3.180  75.878 117.734  0.00  0.00     0.016 C 
ATOM      3  C   LIG d   1      -2.806  77.226 117.940  0.00  0.00     0.038 C 
ATOM      4  C   LIG d   1      -1.893  77.879 117.098  0.00  0.00     0.028 C 
ATOM      5  C   LIG d   1      -0.887  76.936 116.448  0.00  0.00    -0.047 C 
ATOM      6  C   LIG d   1      -1.650  75.771 115.779  0.00  0.00     0.091 C 
ENDROOT
BRANCH   1   7
ATOM      7  O   LIG d   1      -3.577  74.286 116.081  0.00  0.00    -0.368 OA
BRANCH   7   8
ATOM      8  C   LIG d   1      -4.923  74.372 116.610  0.00  0.00     0.119 C 
BRANCH   8   9
ATOM      9  C   LIG d   1      -5.307  72.971 117.126  0.00  0.00     0.028 C 
ATOM     10  C   LIG d   1      -6.494  72.368 116.357  0.00  0.00     0.006 C 
ENDBRANCH   8   9
BRANCH   8  11
ATOM     11  C   LIG d   1      -5.936  74.689 115.507  0.00  0.00     0.028 C 
ATOM     12  C   LIG d   1      -5.361  75.606 114.415  0.00  0.00     0.006 C 
ENDBRANCH   8  11
ENDBRANCH   7   8
ENDBRANCH   1   7
BRANCH   6  13
ATOM     13  N   LIG d   1      -0.736  74.757 115.192  0.00  0.00    -0.311 N 
ATOM     14  C   LIG d   1      -0.308  74.799 113.931  0.00  0.00     0.210 C 
ATOM     15  C   LIG d   1       0.613  73.645 113.522  0.00  0.00     0.109 C 
ATOM     16  O   LIG d   1      -0.578  75.699 113.122  0.00  0.00    -0.276 OA
ATOM     17  H   LIG d   1      -0.442  74.008 115.787  0.00  0.00     0.149 HD
ENDBRANCH   6  13
BRANCH   5  18
ATOM     18  N   LIG d   1      -0.087  77.727 115.494  0.00  0.00     0.381 N 
ATOM     19  H   LIG d   1      -0.608  77.868 114.651  0.00  0.00    -0.090 HD
ATOM     20  H   LIG d   1       0.748  77.216 115.267  0.00  0.00    -0.090 HD
ATOM     21  H   LIG d   1       0.152  78.607 115.896  0.00  0.00    -0.090 HD
ENDBRANCH   5  18
BRANCH   3  22
ATOM     22  C   LIG d   1      -3.318  77.923 119.024  0.00  0.00     0.382 C 
ATOM     23  O   LIG d   1      -4.393  77.554 119.555  0.00  0.00    -0.241 OA
ATOM     24  O   LIG d   1      -2.741  78.942 119.449  0.00  0.00    -0.241 OA
ENDBRANCH   3  22
TORSDOF 7
ENDMDL
MODEL 4
REMARK VINA RESULT:      -4.9      2.965      4.179
REMARK  7 active torsions:
REMARK  status: ('A' for Active; 'I' for Inactive)
REMARK    1  A    between atoms: C_2  and  C_3 
REMARK    2  A    between atoms: C_3  and  O_6 
REMARK    3  A    between atoms: C_3  and  C_4 
REMARK    4  A    between atoms: C_7  and  O_6 
REMARK    5  A    between atoms: C_9  and  C_10 
REMARK    6  A    between atoms: N_15  and  C_14 
REMARK    7  A    between atoms: N_20  and  C_19 
REMARK       I    between atoms: C_22  and  N_20 
ROOT
ATOM      1  C   LIG d   1      -3.998  76.128 117.871  0.00  0.00     0.161 C 
ATOM      2  C   LIG d   1      -5.133  76.902 117.577  0.00  0.00     0.016 C 
ATOM      3  C   LIG d   1      -5.118  78.315 117.527  0.00  0.00     0.038 C 
ATOM      4  C   LIG d   1      -3.926  79.048 117.620  0.00  0.00     0.028 C 
ATOM      5  C   LIG d   1      -2.839  78.338 118.418  0.00  0.00    -0.047 C 
ATOM      6  C   LIG d   1      -2.665  76.905 117.866  0.00  0.00     0.091 C 
ENDROOT
BRANCH   1   7
ATOM      7  O   LIG d   1      -3.927  75.004 116.971  0.00  0.00    -0.368 OA
BRANCH   7   8
ATOM      8  C   LIG d   1      -5.193  74.506 116.472  0.00  0.00     0.119 C 
BRANCH   8   9
ATOM      9  C   LIG d   1      -5.392  73.090 117.047  0.00  0.00     0.028 C 
ATOM     10  C   LIG d   1      -6.442  72.282 116.266  0.00  0.00     0.006 C 
ENDBRANCH   8   9
BRANCH   8  11
ATOM     11  C   LIG d   1      -5.160  74.326 114.952  0.00  0.00     0.028 C 
ATOM     12  C   LIG d   1      -5.497  75.619 114.191  0.00  0.00     0.006 C 
ENDBRANCH   8  11
ENDBRANCH   7   8
ENDBRANCH   1   7
BRANCH   6  13
ATOM     13  N   LIG d   1      -1.679  76.112 118.645  0.00  0.00    -0.311 N 
ATOM     14  C   LIG d   1      -0.543  75.645 118.131  0.00  0.00     0.210 C 
ATOM     15  C   LIG d   1       0.322  74.835 119.102  0.00  0.00     0.109 C 
ATOM     16  O   LIG d   1      -0.154  75.852 116.972  0.00  0.00    -0.276 OA
ATOM     17  H   LIG d   1      -1.901  75.924 119.603  0.00  0.00     0.149 HD
ENDBRANCH   6  13
BRANCH   5  18
ATOM     18  N   LIG d   1      -1.610  79.149 118.318  0.00  0.00     0.381 N 
ATOM     19  H   LIG d   1      -1.562  79.580 117.417  0.00  0.00    -0.090 HD
ATOM     20  H   LIG d   1      -0.813  78.546 118.423  0.00  0.00    -0.090 HD
ATOM     21  H   LIG d   1      -1.604  79.847 119.029  0.00  0.00    -0.090 HD
ENDBRANCH   5  18
BRANCH   3  22
ATOM     22  C   LIG d   1      -6.313  79.011 117.422  0.00  0.00     0.382 C 
ATOM     23  O   LIG d   1      -6.309  80.214 117.064  0.00  0.00    -0.241 OA
ATOM     24  O   LIG d   1      -7.391  78.465 117.723  0.00  0.00    -0.241 OA
ENDBRANCH   3  22
TORSDOF 7
ENDMDL
MODEL 5
REMARK VINA RESULT:      -4.7      5.011      7.135
REMARK  7 active torsions:
REMARK  status: ('A' for Active; 'I' for Inactive)
REMARK    1  A    between atoms: C_2  and  C_3 
REMARK    2  A    between atoms: C_3  and  O_6 
REMARK    3  A    between atoms: C_3  and  C_4 
REMARK    4  A    between atoms: C_7  and  O_6 
REMARK    5  A    between atoms: C_9  and  C_10 
REMARK    6  A    between atoms: N_15  and  C_14 
REMARK    7  A    between atoms: N_20  and  C_19 
REMARK       I    between atoms: C_22  and  N_20 
ROOT
ATOM      1  C   LIG d   1      -1.105  76.953 115.913  0.00  0.00     0.161 C 
ATOM      2  C   LIG d   1      -2.418  76.609 115.549  0.00  0.00     0.016 C 
ATOM      3  C   LIG d   1      -3.050  75.412 115.956  0.00  0.00     0.038 C 
ATOM      4  C   LIG d   1      -2.461  74.541 116.885  0.00  0.00     0.028 C 
ATOM      5  C   LIG d   1      -0.937  74.596 116.884  0.00  0.00    -0.047 C 
ATOM      6  C   LIG d   1      -0.487  76.069 117.016  0.00  0.00     0.091 C 
ENDROOT
BRANCH   1   7
ATOM      7  O   LIG d   1      -1.051  78.341 116.295  0.00  0.00    -0.368 OA
BRANCH   7   8
ATOM      8  C   LIG d   1      -0.390  79.234 115.364  0.00  0.00     0.119 C 
BRANCH   8   9
ATOM      9  C   LIG d   1       0.867  79.785 116.065  0.00  0.00     0.028 C 
ATOM     10  C   LIG d   1       0.699  79.865 117.592  0.00  0.00     0.006 C 
ENDBRANCH   8   9
BRANCH   8  11
ATOM     11  C   LIG d   1      -1.254  80.460 115.058  0.00  0.00     0.028 C 
ATOM     12  C   LIG d   1      -2.652  80.377 115.692  0.00  0.00     0.006 C 
ENDBRANCH   8  11
ENDBRANCH   7   8
ENDBRANCH   1   7
BRANCH   6  13
ATOM     13  N   LIG d   1       0.990  76.219 116.939  0.00  0.00    -0.311 N 
ATOM     14  C   LIG d   1       1.770  76.351 118.010  0.00  0.00     0.210 C 
ATOM     15  C   LIG d   1       3.263  76.513 117.707  0.00  0.00     0.109 C 
ATOM     16  O   LIG d   1       1.371  76.316 119.184  0.00  0.00    -0.276 OA
ATOM     17  H   LIG d   1       1.400  76.227 116.026  0.00  0.00     0.149 HD
ENDBRANCH   6  13
BRANCH   5  18
ATOM     18  N   LIG d   1      -0.460  73.744 117.991  0.00  0.00     0.381 N 
ATOM     19  H   LIG d   1      -1.235  73.279 118.419  0.00  0.00    -0.090 HD
ATOM     20  H   LIG d   1      -0.020  74.326 118.682  0.00  0.00    -0.090 HD
ATOM     21  H   LIG d   1       0.191  73.073 117.648  0.00  0.00    -0.090 HD
ENDBRANCH   5  18
BRANCH   3  22
ATOM     22  C   LIG d   1      -4.269  75.055 115.401  0.00  0.00     0.382 C 
ATOM     23  O   LIG d   1      -4.558  75.419 114.235  0.00  0.00    -0.241 OA
ATOM     24  O   LIG d   1      -5.103  74.413 116.067  0.00  0.00    -0.241 OA
ENDBRANCH   3  22
TORSDOF 7
ENDMDL
MODEL 6
REMARK VINA RESULT:      -4.7      4.782      6.964
REMARK  7 active torsions:
REMARK  status: ('A' for Active; 'I' for Inactive)
REMARK    1  A    between atoms: C_2  and  C_3 
REMARK    2  A    between atoms: C_3  and  O_6 
REMARK    3  A    between atoms: C_3  and  C_4 
REMARK    4  A    between atoms: C_7  and  O_6 
REMARK    5  A    between atoms: C_9  and  C_10 
REMARK    6  A    between atoms: N_15  and  C_14 
REMARK    7  A    between atoms: N_20  and  C_19 
REMARK       I    between atoms: C_22  and  N_20 
ROOT
ATOM      1  C   LIG d   1      -0.791  77.420 115.715  0.00  0.00     0.161 C 
ATOM      2  C   LIG d   1      -2.078  77.345 115.157  0.00  0.00     0.016 C 
ATOM      3  C   LIG d   1      -2.919  76.216 115.289  0.00  0.00     0.038 C 
ATOM      4  C   LIG d   1      -2.586  75.137 116.122  0.00  0.00     0.028 C 
ATOM      5  C   LIG d   1      -1.083  74.949 116.298  0.00  0.00    -0.047 C 
ATOM      6  C   LIG d   1      -0.455  76.298 116.719  0.00  0.00     0.091 C 
ENDROOT
BRANCH   1   7
ATOM      7  O   LIG d   1      -0.597  78.712 116.324  0.00  0.00    -0.368 OA
BRANCH   7   8
ATOM      8  C   LIG d   1      -1.767  79.310 116.935  0.00  0.00     0.119 C 
BRANCH   8   9
ATOM      9  C   LIG d   1      -1.747  80.814 116.597  0.00  0.00     0.028 C 
ATOM     10  C   LIG d   1      -3.160  81.395 116.424  0.00  0.00     0.006 C 
ENDBRANCH   8   9
BRANCH   8  11
ATOM     11  C   LIG d   1      -1.696  79.237 118.463  0.00  0.00     0.028 C 
ATOM     12  C   LIG d   1      -2.726  78.266 119.061  0.00  0.00     0.006 C 
ENDBRANCH   8  11
ENDBRANCH   7   8
ENDBRANCH   1   7
BRANCH   6  13
ATOM     13  N   LIG d   1       1.025  76.223 116.832  0.00  0.00    -0.311 N 
ATOM     14  C   LIG d   1       1.695  76.577 117.927  0.00  0.00     0.210 C 
ATOM     15  C   LIG d   1       3.218  76.441 117.825  0.00  0.00     0.109 C 
ATOM     16  O   LIG d   1       1.172  76.960 118.984  0.00  0.00    -0.276 OA
ATOM     17  H   LIG d   1       1.527  75.893 116.031  0.00  0.00     0.149 HD
ENDBRANCH   6  13
BRANCH   5  18
ATOM     18  N   LIG d   1      -0.881  73.881 117.296  0.00  0.00     0.381 N 
ATOM     19  H   LIG d   1      -0.164  74.150 117.939  0.00  0.00    -0.090 HD
ATOM     20  H   LIG d   1      -0.585  73.046 116.822  0.00  0.00    -0.090 HD
ATOM     21  H   LIG d   1      -1.731  73.709 117.787  0.00  0.00    -0.090 HD
ENDBRANCH   5  18
BRANCH   3  22
ATOM     22  C   LIG d   1      -4.091  76.141 114.551  0.00  0.00     0.382 C 
ATOM     23  O   LIG d   1      -5.065  75.482 114.987  0.00  0.00    -0.241 OA
ATOM     24  O   LIG d   1      -4.170  76.688 113.435  0.00  0.00    -0.241 OA
ENDBRANCH   3  22
TORSDOF 7
ENDMDL
MODEL 7
REMARK VINA RESULT:      -4.5      4.476      7.045
REMARK  7 active torsions:
REMARK  status: ('A' for Active; 'I' for Inactive)
REMARK    1  A    between atoms: C_2  and  C_3 
REMARK    2  A    between atoms: C_3  and  O_6 
REMARK    3  A    between atoms: C_3  and  C_4 
REMARK    4  A    between atoms: C_7  and  O_6 
REMARK    5  A    between atoms: C_9  and  C_10 
REMARK    6  A    between atoms: N_15  and  C_14 
REMARK    7  A    between atoms: N_20  and  C_19 
REMARK       I    between atoms: C_22  and  N_20 
ROOT
ATOM      1  C   LIG d   1      -0.976  77.276 115.750  0.00  0.00     0.161 C 
ATOM      2  C   LIG d   1      -2.288  77.076 115.291  0.00  0.00     0.016 C 
ATOM      3  C   LIG d   1      -3.042  75.913 115.570  0.00  0.00     0.038 C 
ATOM      4  C   LIG d   1      -2.585  74.930 116.461  0.00  0.00     0.028 C 
ATOM      5  C   LIG d   1      -1.065  74.850 116.547  0.00  0.00    -0.047 C 
ATOM      6  C   LIG d   1      -0.502  76.265 116.815  0.00  0.00     0.091 C 
ENDROOT
BRANCH   1   7
ATOM      7  O   LIG d   1      -0.830  78.624 116.239  0.00  0.00    -0.368 OA
BRANCH   7   8
ATOM      8  C   LIG d   1      -1.088  78.821 117.651  0.00  0.00     0.119 C 
BRANCH   8   9
ATOM      9  C   LIG d   1      -2.390  79.637 117.775  0.00  0.00     0.028 C 
ATOM     10  C   LIG d   1      -3.566  78.790 118.290  0.00  0.00     0.006 C 
ENDBRANCH   8   9
BRANCH   8  11
ATOM     11  C   LIG d   1      -0.004  79.687 118.301  0.00  0.00     0.028 C 
ATOM     12  C   LIG d   1       1.198  79.930 117.375  0.00  0.00     0.006 C 
ENDBRANCH   8  11
ENDBRANCH   7   8
ENDBRANCH   1   7
BRANCH   6  13
ATOM     13  N   LIG d   1       0.984  76.291 116.830  0.00  0.00    -0.311 N 
ATOM     14  C   LIG d   1       1.705  76.316 117.949  0.00  0.00     0.210 C 
ATOM     15  C   LIG d   1       3.222  76.360 117.740  0.00  0.00     0.109 C 
ATOM     16  O   LIG d   1       1.234  76.273 119.096  0.00  0.00    -0.276 OA
ATOM     17  H   LIG d   1       1.449  76.295 115.943  0.00  0.00     0.149 HD
ENDBRANCH   6  13
BRANCH   5  18
ATOM     18  N   LIG d   1      -0.729  73.884 117.610  0.00  0.00     0.381 N 
ATOM     19  H   LIG d   1       0.028  74.236 118.161  0.00  0.00    -0.090 HD
ATOM     20  H   LIG d   1      -0.434  73.022 117.184  0.00  0.00    -0.090 HD
ATOM     21  H   LIG d   1      -1.524  73.723 118.188  0.00  0.00    -0.090 HD
ENDBRANCH   5  18
BRANCH   3  22
ATOM     22  C   LIG d   1      -4.251  75.706 114.924  0.00  0.00     0.382 C 
ATOM     23  O   LIG d   1      -5.039  76.665 114.746  0.00  0.00    -0.241 OA
ATOM     24  O   LIG d   1      -4.582  74.563 114.556  0.00  0.00    -0.241 OA
ENDBRANCH   3  22
TORSDOF 7
ENDMDL
MODEL 8
REMARK VINA RESULT:      -4.5      1.699      2.155
REMARK  7 active torsions:
REMARK  status: ('A' for Active; 'I' for Inactive)
REMARK    1  A    between atoms: C_2  and  C_3 
REMARK    2  A    between atoms: C_3  and  O_6 
REMARK    3  A    between atoms: C_3  and  C_4 
REMARK    4  A    between atoms: C_7  and  O_6 
REMARK    5  A    between atoms: C_9  and  C_10 
REMARK    6  A    between atoms: N_15  and  C_14 
REMARK    7  A    between atoms: N_20  and  C_19 
REMARK       I    between atoms: C_22  and  N_20 
ROOT
ATOM      1  C   LIG d   1      -4.786  77.940 117.118  0.00  0.00     0.161 C 
ATOM      2  C   LIG d   1      -6.129  78.300 117.318  0.00  0.00     0.016 C 
ATOM      3  C   LIG d   1      -6.545  79.617 117.618  0.00  0.00     0.038 C 
ATOM      4  C   LIG d   1      -5.655  80.701 117.588  0.00  0.00     0.028 C 
ATOM      5  C   LIG d   1      -4.213  80.308 117.888  0.00  0.00    -0.047 C 
ATOM      6  C   LIG d   1      -3.813  79.129 116.971  0.00  0.00     0.091 C 
ENDROOT
BRANCH   1   7
ATOM      7  O   LIG d   1      -4.680  77.063 115.979  0.00  0.00    -0.368 OA
BRANCH   7   8
ATOM      8  C   LIG d   1      -4.961  75.663 116.224  0.00  0.00     0.119 C 
BRANCH   8   9
ATOM      9  C   LIG d   1      -3.648  75.000 116.681  0.00  0.00     0.028 C 
ATOM     10  C   LIG d   1      -2.489  75.257 115.703  0.00  0.00     0.006 C 
ENDBRANCH   8   9
BRANCH   8  11
ATOM     11  C   LIG d   1      -5.354  74.939 114.933  0.00  0.00     0.028 C 
ATOM     12  C   LIG d   1      -5.586  75.901 113.757  0.00  0.00     0.006 C 
ENDBRANCH   8  11
ENDBRANCH   7   8
ENDBRANCH   1   7
BRANCH   6  13
ATOM     13  N   LIG d   1      -2.444  78.628 117.258  0.00  0.00    -0.311 N 
ATOM     14  C   LIG d   1      -1.438  78.702 116.387  0.00  0.00     0.210 C 
ATOM     15  C   LIG d   1      -0.114  78.108 116.876  0.00  0.00     0.109 C 
ATOM     16  O   LIG d   1      -1.510  79.234 115.269  0.00  0.00    -0.276 OA
ATOM     17  H   LIG d   1      -2.289  78.209 118.154  0.00  0.00     0.149 HD
ENDBRANCH   6  13
BRANCH   5  18
ATOM     18  N   LIG d   1      -3.374  81.505 117.688  0.00  0.00     0.381 N 
ATOM     19  H   LIG d   1      -3.648  81.974 116.847  0.00  0.00    -0.090 HD
ATOM     20  H   LIG d   1      -2.416  81.219 117.591  0.00  0.00    -0.090 HD
ATOM     21  H   LIG d   1      -3.468  82.121 118.466  0.00  0.00    -0.090 HD
ENDBRANCH   5  18
BRANCH   3  22
ATOM     22  C   LIG d   1      -7.860  79.854 117.991  0.00  0.00     0.382 C 
ATOM     23  O   LIG d   1      -8.515  80.767 117.433  0.00  0.00    -0.241 OA
ATOM     24  O   LIG d   1      -8.384  79.196 118.910  0.00  0.00    -0.241 OA
ENDBRANCH   3  22
TORSDOF 7
ENDMDL
MODEL 9
REMARK VINA RESULT:      -4.5      9.763     13.484
REMARK  7 active torsions:
REMARK  status: ('A' for Active; 'I' for Inactive)
REMARK    1  A    between atoms: C_2  and  C_3 
REMARK    2  A    between atoms: C_3  and  O_6 
REMARK    3  A    between atoms: C_3  and  C_4 
REMARK    4  A    between atoms: C_7  and  O_6 
REMARK    5  A    between atoms: C_9  and  C_10 
REMARK    6  A    between atoms: N_15  and  C_14 
REMARK    7  A    between atoms: N_20  and  C_19 
REMARK       I    between atoms: C_22  and  N_20 
ROOT
ATOM      1  C   LIG d   1       2.735  88.416 115.295  0.00  0.00     0.161 C 
ATOM      2  C   LIG d   1       3.286  89.539 115.935  0.00  0.00     0.016 C 
ATOM      3  C   LIG d   1       2.548  90.383 116.797  0.00  0.00     0.038 C 
ATOM      4  C   LIG d   1       1.240  90.072 117.199  0.00  0.00     0.028 C 
ATOM      5  C   LIG d   1       0.480  89.226 116.183  0.00  0.00    -0.047 C 
ATOM      6  C   LIG d   1       1.341  87.998 115.808  0.00  0.00     0.091 C 
ENDROOT
BRANCH   1   7
ATOM      7  O   LIG d   1       3.652  87.308 115.378  0.00  0.00    -0.368 OA
BRANCH   7   8
ATOM      8  C   LIG d   1       3.931  86.616 114.135  0.00  0.00     0.119 C 
BRANCH   8   9
ATOM      9  C   LIG d   1       5.167  85.727 114.367  0.00  0.00     0.028 C 
ATOM     10  C   LIG d   1       5.308  84.628 113.301  0.00  0.00     0.006 C 
ENDBRANCH   8   9
BRANCH   8  11
ATOM     11  C   LIG d   1       4.338  87.597 113.031  0.00  0.00     0.028 C 
ATOM     12  C   LIG d   1       5.685  88.281 113.310  0.00  0.00     0.006 C 
ENDBRANCH   8  11
ENDBRANCH   7   8
ENDBRANCH   1   7
BRANCH   6  13
ATOM     13  N   LIG d   1       0.707  87.161 114.757  0.00  0.00    -0.311 N 
ATOM     14  C   LIG d   1      -0.054  86.101 115.023  0.00  0.00     0.210 C 
ATOM     15  C   LIG d   1      -0.594  85.367 113.792  0.00  0.00     0.109 C 
ATOM     16  O   LIG d   1      -0.361  85.719 116.162  0.00  0.00    -0.276 OA
ATOM     17  H   LIG d   1       0.878  87.419 113.804  0.00  0.00     0.149 HD
ENDBRANCH   6  13
BRANCH   5  18
ATOM     18  N   LIG d   1      -0.815  88.861 116.788  0.00  0.00     0.381 N 
ATOM     19  H   LIG d   1      -0.855  87.872 116.933  0.00  0.00    -0.090 HD
ATOM     20  H   LIG d   1      -1.553  89.117 116.156  0.00  0.00    -0.090 HD
ATOM     21  H   LIG d   1      -0.932  89.336 117.656  0.00  0.00    -0.090 HD
ENDBRANCH   5  18
BRANCH   3  22
ATOM     22  C   LIG d   1       3.106  91.574 117.235  0.00  0.00     0.382 C 
ATOM     23  O   LIG d   1       4.102  92.056 116.642  0.00  0.00    -0.241 OA
ATOM     24  O   LIG d   1       2.654  92.151 118.242  0.00  0.00    -0.241 OA
ENDBRANCH   3  22
TORSDOF 7
ENDMDL
