MODEL 1
REMARK VINA RESULT:      -6.2      0.000      0.000
REMARK  7 active torsions:
REMARK  status: ('A' for Active; 'I' for Inactive)
REMARK    1  A    between atoms: C_2  and  C_3 
REMARK    2  A    between atoms: C_3  and  O_6 
REMARK    3  A    between atoms: C_3  and  C_4 
REMARK    4  A    between atoms: C_7  and  O_6 
REMARK    5  A    between atoms: C_9  and  C_10 
REMARK    6  A    between atoms: N_15  and  C_14 
REMARK    7  A    between atoms: N_20  and  C_19 
REMARK       I    between atoms: C_22  and  N_20 
ROOT
ATOM      1  C   LIG d   1      -7.320  77.528 117.265  0.00  0.00     0.161 C 
ATOM      2  C   LIG d   1      -8.538  78.202 117.458  0.00  0.00     0.016 C 
ATOM      3  C   LIG d   1      -8.626  79.588 117.719  0.00  0.00     0.038 C 
ATOM      4  C   LIG d   1      -7.504  80.428 117.655  0.00  0.00     0.028 C 
ATOM      5  C   LIG d   1      -6.194  79.712 117.963  0.00  0.00    -0.047 C 
ATOM      6  C   LIG d   1      -6.094  78.447 117.081  0.00  0.00     0.091 C 
ENDROOT
BRANCH   1   7
ATOM      7  O   LIG d   1      -7.436  76.619 116.152  0.00  0.00    -0.368 OA
BRANCH   7   8
ATOM      8  C   LIG d   1      -7.654  75.226 116.487  0.00  0.00     0.119 C 
BRANCH   8   9
ATOM      9  C   LIG d   1      -6.562  74.403 115.777  0.00  0.00     0.028 C 
ATOM     10  C   LIG d   1      -5.992  75.124 114.544  0.00  0.00     0.006 C 
ENDBRANCH   8   9
BRANCH   8  11
ATOM     11  C   LIG d   1      -8.981  74.717 115.916  0.00  0.00     0.028 C 
ATOM     12  C   LIG d   1      -9.067  73.183 115.886  0.00  0.00     0.006 C 
ENDBRANCH   8  11
ENDBRANCH   7   8
ENDBRANCH   1   7
BRANCH   6  13
ATOM     13  N   LIG d   1      -4.881  77.642 117.379  0.00  0.00    -0.311 N 
ATOM     14  C   LIG d   1      -3.904  77.435 116.498  0.00  0.00     0.210 C 
ATOM     15  C   LIG d   1      -2.752  76.560 117.003  0.00  0.00     0.109 C 
ATOM     16  O   LIG d   1      -3.866  77.920 115.357  0.00  0.00    -0.276 OA
ATOM     17  H   LIG d   1      -4.815  77.237 118.293  0.00  0.00     0.149 HD
ENDBRANCH   6  13
BRANCH   5  18
ATOM     18  N   LIG d   1      -5.097  80.670 117.726  0.00  0.00     0.381 N 
ATOM     19  H   LIG d   1      -4.628  80.443 116.871  0.00  0.00    -0.090 HD
ATOM     20  H   LIG d   1      -4.434  80.597 118.478  0.00  0.00    -0.090 HD
ATOM     21  H   LIG d   1      -5.458  81.597 117.680  0.00  0.00    -0.090 HD
ENDBRANCH   5  18
BRANCH   3  22
ATOM     22  C   LIG d   1      -9.843  80.142 118.088  0.00  0.00     0.382 C 
ATOM     23  O   LIG d   1     -10.392  79.790 119.160  0.00  0.00    -0.241 OA
ATOM     24  O   LIG d   1     -10.420  80.955 117.342  0.00  0.00    -0.241 OA
ENDBRANCH   3  22
TORSDOF 7
ENDMDL
MODEL 2
REMARK VINA RESULT:      -5.9      1.498      2.173
REMARK  7 active torsions:
REMARK  status: ('A' for Active; 'I' for Inactive)
REMARK    1  A    between atoms: C_2  and  C_3 
REMARK    2  A    between atoms: C_3  and  O_6 
REMARK    3  A    between atoms: C_3  and  C_4 
REMARK    4  A    between atoms: C_7  and  O_6 
REMARK    5  A    between atoms: C_9  and  C_10 
REMARK    6  A    between atoms: N_15  and  C_14 
REMARK    7  A    between atoms: N_20  and  C_19 
REMARK       I    between atoms: C_22  and  N_20 
ROOT
ATOM      1  C   LIG d   1      -6.554  76.647 116.542  0.00  0.00     0.161 C 
ATOM      2  C   LIG d   1      -7.526  77.584 116.930  0.00  0.00     0.016 C 
ATOM      3  C   LIG d   1      -7.214  78.886 117.387  0.00  0.00     0.038 C 
ATOM      4  C   LIG d   1      -5.907  79.393 117.342  0.00  0.00     0.028 C 
ATOM      5  C   LIG d   1      -4.834  78.313 117.434  0.00  0.00    -0.047 C 
ATOM      6  C   LIG d   1      -5.131  77.221 116.382  0.00  0.00     0.091 C 
ENDROOT
BRANCH   1   7
ATOM      7  O   LIG d   1      -6.968  75.988 115.329  0.00  0.00    -0.368 OA
BRANCH   7   8
ATOM      8  C   LIG d   1      -7.439  74.625 115.474  0.00  0.00     0.119 C 
BRANCH   8   9
ATOM      9  C   LIG d   1      -8.939  74.687 115.819  0.00  0.00     0.028 C 
ATOM     10  C   LIG d   1      -9.597  73.297 115.829  0.00  0.00     0.006 C 
ENDBRANCH   8   9
BRANCH   8  11
ATOM     11  C   LIG d   1      -6.776  73.930 116.667  0.00  0.00     0.028 C 
ATOM     12  C   LIG d   1      -6.048  72.635 116.274  0.00  0.00     0.006 C 
ENDBRANCH   8  11
ENDBRANCH   7   8
ENDBRANCH   1   7
BRANCH   6  13
ATOM     13  N   LIG d   1      -4.176  76.084 116.460  0.00  0.00    -0.311 N 
ATOM     14  C   LIG d   1      -3.619  75.519 115.391  0.00  0.00     0.210 C 
ATOM     15  C   LIG d   1      -2.679  74.348 115.693  0.00  0.00     0.109 C 
ATOM     16  O   LIG d   1      -3.789  75.897 114.222  0.00  0.00    -0.276 OA
ATOM     17  H   LIG d   1      -3.958  75.734 117.373  0.00  0.00     0.149 HD
ENDBRANCH   6  13
BRANCH   5  18
ATOM     18  N   LIG d   1      -3.526  78.966 117.238  0.00  0.00     0.381 N 
ATOM     19  H   LIG d   1      -3.480  79.804 117.783  0.00  0.00    -0.090 HD
ATOM     20  H   LIG d   1      -3.429  79.215 116.269  0.00  0.00    -0.090 HD
ATOM     21  H   LIG d   1      -2.792  78.347 117.504  0.00  0.00    -0.090 HD
ENDBRANCH   5  18
BRANCH   3  22
ATOM     22  C   LIG d   1      -8.211  79.680 117.932  0.00  0.00     0.382 C 
ATOM     23  O   LIG d   1      -8.666  79.421 119.072  0.00  0.00    -0.241 OA
ATOM     24  O   LIG d   1      -8.692  80.627 117.280  0.00  0.00    -0.241 OA
ENDBRANCH   3  22
TORSDOF 7
ENDMDL
MODEL 3
REMARK VINA RESULT:      -5.7      2.182      5.319
REMARK  7 active torsions:
REMARK  status: ('A' for Active; 'I' for Inactive)
REMARK    1  A    between atoms: C_2  and  C_3 
REMARK    2  A    between atoms: C_3  and  O_6 
REMARK    3  A    between atoms: C_3  and  C_4 
REMARK    4  A    between atoms: C_7  and  O_6 
REMARK    5  A    between atoms: C_9  and  C_10 
REMARK    6  A    between atoms: N_15  and  C_14 
REMARK    7  A    between atoms: N_20  and  C_19 
REMARK       I    between atoms: C_22  and  N_20 
ROOT
ATOM      1  C   LIG d   1      -6.577  76.322 116.543  0.00  0.00     0.161 C 
ATOM      2  C   LIG d   1      -7.524  75.286 116.491  0.00  0.00     0.016 C 
ATOM      3  C   LIG d   1      -7.189  73.938 116.222  0.00  0.00     0.038 C 
ATOM      4  C   LIG d   1      -5.857  73.508 116.137  0.00  0.00     0.028 C 
ATOM      5  C   LIG d   1      -4.895  74.601 115.682  0.00  0.00    -0.047 C 
ATOM      6  C   LIG d   1      -5.106  75.854 116.563  0.00  0.00     0.091 C 
ENDROOT
BRANCH   1   7
ATOM      7  O   LIG d   1      -6.846  77.174 117.674  0.00  0.00    -0.368 OA
BRANCH   7   8
ATOM      8  C   LIG d   1      -7.253  78.530 117.368  0.00  0.00     0.119 C 
BRANCH   8   9
ATOM      9  C   LIG d   1      -6.464  79.471 118.299  0.00  0.00     0.028 C 
ATOM     10  C   LIG d   1      -5.565  80.447 117.522  0.00  0.00     0.006 C 
ENDBRANCH   8   9
BRANCH   8  11
ATOM     11  C   LIG d   1      -8.727  78.761 117.712  0.00  0.00     0.028 C 
ATOM     12  C   LIG d   1      -9.129  80.243 117.647  0.00  0.00     0.006 C 
ENDBRANCH   8  11
ENDBRANCH   7   8
ENDBRANCH   1   7
BRANCH   6  13
ATOM     13  N   LIG d   1      -4.264  76.999 116.131  0.00  0.00    -0.311 N 
ATOM     14  C   LIG d   1      -3.320  77.544 116.896  0.00  0.00     0.210 C 
ATOM     15  C   LIG d   1      -2.581  78.729 116.265  0.00  0.00     0.109 C 
ATOM     16  O   LIG d   1      -3.002  77.139 118.024  0.00  0.00    -0.276 OA
ATOM     17  H   LIG d   1      -4.433  77.371 115.217  0.00  0.00     0.149 HD
ENDBRANCH   6  13
BRANCH   5  18
ATOM     18  N   LIG d   1      -3.527  74.056 115.770  0.00  0.00     0.381 N 
ATOM     19  H   LIG d   1      -2.865  74.762 115.518  0.00  0.00    -0.090 HD
ATOM     20  H   LIG d   1      -3.439  73.294 115.122  0.00  0.00    -0.090 HD
ATOM     21  H   LIG d   1      -3.347  73.736 116.696  0.00  0.00    -0.090 HD
ENDBRANCH   5  18
BRANCH   3  22
ATOM     22  C   LIG d   1      -8.196  73.012 115.997  0.00  0.00     0.382 C 
ATOM     23  O   LIG d   1      -7.920  71.790 115.929  0.00  0.00    -0.241 OA
ATOM     24  O   LIG d   1      -9.370  73.387 115.815  0.00  0.00    -0.241 OA
ENDBRANCH   3  22
TORSDOF 7
ENDMDL
MODEL 4
REMARK VINA RESULT:      -5.6      1.910      2.419
REMARK  7 active torsions:
REMARK  status: ('A' for Active; 'I' for Inactive)
REMARK    1  A    between atoms: C_2  and  C_3 
REMARK    2  A    between atoms: C_3  and  O_6 
REMARK    3  A    between atoms: C_3  and  C_4 
REMARK    4  A    between atoms: C_7  and  O_6 
REMARK    5  A    between atoms: C_9  and  C_10 
REMARK    6  A    between atoms: N_15  and  C_14 
REMARK    7  A    between atoms: N_20  and  C_19 
REMARK       I    between atoms: C_22  and  N_20 
ROOT
ATOM      1  C   LIG d   1      -5.564  77.094 117.071  0.00  0.00     0.161 C 
ATOM      2  C   LIG d   1      -6.401  78.197 117.309  0.00  0.00     0.016 C 
ATOM      3  C   LIG d   1      -5.937  79.532 117.348  0.00  0.00     0.038 C 
ATOM      4  C   LIG d   1      -4.622  79.870 116.998  0.00  0.00     0.028 C 
ATOM      5  C   LIG d   1      -3.622  78.745 117.243  0.00  0.00    -0.047 C 
ATOM      6  C   LIG d   1      -4.147  77.453 116.577  0.00  0.00     0.091 C 
ENDROOT
BRANCH   1   7
ATOM      7  O   LIG d   1      -6.201  76.187 116.149  0.00  0.00    -0.368 OA
BRANCH   7   8
ATOM      8  C   LIG d   1      -7.179  75.283 116.718  0.00  0.00     0.119 C 
BRANCH   8   9
ATOM      9  C   LIG d   1      -6.621  73.853 116.585  0.00  0.00     0.028 C 
ATOM     10  C   LIG d   1      -5.633  73.715 115.414  0.00  0.00     0.006 C 
ENDBRANCH   8   9
BRANCH   8  11
ATOM     11  C   LIG d   1      -8.480  75.287 115.909  0.00  0.00     0.028 C 
ATOM     12  C   LIG d   1      -9.201  73.930 115.932  0.00  0.00     0.006 C 
ENDBRANCH   8  11
ENDBRANCH   7   8
ENDBRANCH   1   7
BRANCH   6  13
ATOM     13  N   LIG d   1      -3.269  76.283 116.840  0.00  0.00    -0.311 N 
ATOM     14  C   LIG d   1      -2.623  75.621 115.882  0.00  0.00     0.210 C 
ATOM     15  C   LIG d   1      -1.787  74.432 116.368  0.00  0.00     0.109 C 
ATOM     16  O   LIG d   1      -2.636  75.925 114.680  0.00  0.00    -0.276 OA
ATOM     17  H   LIG d   1      -3.176  75.987 117.792  0.00  0.00     0.149 HD
ENDBRANCH   6  13
BRANCH   5  18
ATOM     18  N   LIG d   1      -2.319  79.183 116.707  0.00  0.00     0.381 N 
ATOM     19  H   LIG d   1      -1.625  78.486 116.891  0.00  0.00    -0.090 HD
ATOM     20  H   LIG d   1      -2.045  80.031 117.172  0.00  0.00    -0.090 HD
ATOM     21  H   LIG d   1      -2.389  79.341 115.726  0.00  0.00    -0.090 HD
ENDBRANCH   5  18
BRANCH   3  22
ATOM     22  C   LIG d   1      -6.785  80.541 117.778  0.00  0.00     0.382 C 
ATOM     23  O   LIG d   1      -7.674  80.984 117.011  0.00  0.00    -0.241 OA
ATOM     24  O   LIG d   1      -6.643  81.046 118.908  0.00  0.00    -0.241 OA
ENDBRANCH   3  22
TORSDOF 7
ENDMDL
MODEL 5
REMARK VINA RESULT:      -5.0      3.749      5.651
REMARK  7 active torsions:
REMARK  status: ('A' for Active; 'I' for Inactive)
REMARK    1  A    between atoms: C_2  and  C_3 
REMARK    2  A    between atoms: C_3  and  O_6 
REMARK    3  A    between atoms: C_3  and  C_4 
REMARK    4  A    between atoms: C_7  and  O_6 
REMARK    5  A    between atoms: C_9  and  C_10 
REMARK    6  A    between atoms: N_15  and  C_14 
REMARK    7  A    between atoms: N_20  and  C_19 
REMARK       I    between atoms: C_22  and  N_20 
ROOT
ATOM      1  C   LIG d   1      -2.920  77.630 116.915  0.00  0.00     0.161 C 
ATOM      2  C   LIG d   1      -3.188  78.743 116.101  0.00  0.00     0.016 C 
ATOM      3  C   LIG d   1      -2.419  79.078 114.963  0.00  0.00     0.038 C 
ATOM      4  C   LIG d   1      -1.414  78.232 114.472  0.00  0.00     0.028 C 
ATOM      5  C   LIG d   1      -0.778  77.359 115.549  0.00  0.00    -0.047 C 
ATOM      6  C   LIG d   1      -1.896  76.634 116.332  0.00  0.00     0.091 C 
ENDROOT
BRANCH   1   7
ATOM      7  O   LIG d   1      -4.150  76.952 117.238  0.00  0.00    -0.368 OA
BRANCH   7   8
ATOM      8  C   LIG d   1      -4.911  76.444 116.115  0.00  0.00     0.119 C 
BRANCH   8   9
ATOM      9  C   LIG d   1      -6.375  76.883 116.311  0.00  0.00     0.028 C 
ATOM     10  C   LIG d   1      -7.233  75.790 116.970  0.00  0.00     0.006 C 
ENDBRANCH   8   9
BRANCH   8  11
ATOM     11  C   LIG d   1      -4.944  74.912 116.112  0.00  0.00     0.028 C 
ATOM     12  C   LIG d   1      -4.521  74.310 114.763  0.00  0.00     0.006 C 
ENDBRANCH   8  11
ENDBRANCH   7   8
ENDBRANCH   1   7
BRANCH   6  13
ATOM     13  N   LIG d   1      -1.365  75.823 117.458  0.00  0.00    -0.311 N 
ATOM     14  C   LIG d   1      -1.122  74.516 117.371  0.00  0.00     0.210 C 
ATOM     15  C   LIG d   1      -0.596  73.869 118.655  0.00  0.00     0.109 C 
ATOM     16  O   LIG d   1      -1.263  73.838 116.342  0.00  0.00    -0.276 OA
ATOM     17  H   LIG d   1      -1.192  76.300 118.322  0.00  0.00     0.149 HD
ENDBRANCH   6  13
BRANCH   5  18
ATOM     18  N   LIG d   1       0.153  76.432 114.878  0.00  0.00     0.381 N 
ATOM     19  H   LIG d   1       0.652  76.915 114.157  0.00  0.00    -0.090 HD
ATOM     20  H   LIG d   1      -0.376  75.691 114.453  0.00  0.00    -0.090 HD
ATOM     21  H   LIG d   1       0.795  76.054 115.540  0.00  0.00    -0.090 HD
ENDBRANCH   5  18
BRANCH   3  22
ATOM     22  C   LIG d   1      -2.627  80.293 114.327  0.00  0.00     0.382 C 
ATOM     23  O   LIG d   1      -3.279  80.336 113.256  0.00  0.00    -0.241 OA
ATOM     24  O   LIG d   1      -2.133  81.340 114.787  0.00  0.00    -0.241 OA
ENDBRANCH   3  22
TORSDOF 7
ENDMDL
MODEL 6
REMARK VINA RESULT:      -4.9      3.125      5.208
REMARK  7 active torsions:
REMARK  status: ('A' for Active; 'I' for Inactive)
REMARK    1  A    between atoms: C_2  and  C_3 
REMARK    2  A    between atoms: C_3  and  O_6 
REMARK    3  A    between atoms: C_3  and  C_4 
REMARK    4  A    between atoms: C_7  and  O_6 
REMARK    5  A    between atoms: C_9  and  C_10 
REMARK    6  A    between atoms: N_15  and  C_14 
REMARK    7  A    between atoms: N_20  and  C_19 
REMARK       I    between atoms: C_22  and  N_20 
ROOT
ATOM      1  C   LIG d   1      -3.852  78.993 116.541  0.00  0.00     0.161 C 
ATOM      2  C   LIG d   1      -3.847  80.394 116.438  0.00  0.00     0.016 C 
ATOM      3  C   LIG d   1      -3.010  81.106 115.548  0.00  0.00     0.038 C 
ATOM      4  C   LIG d   1      -2.224  80.452 114.587  0.00  0.00     0.028 C 
ATOM      5  C   LIG d   1      -1.819  79.040 114.995  0.00  0.00    -0.047 C 
ATOM      6  C   LIG d   1      -3.082  78.260 115.424  0.00  0.00     0.091 C 
ENDROOT
BRANCH   1   7
ATOM      7  O   LIG d   1      -5.210  78.514 116.613  0.00  0.00    -0.368 OA
BRANCH   7   8
ATOM      8  C   LIG d   1      -5.629  77.976 117.891  0.00  0.00     0.119 C 
BRANCH   8   9
ATOM      9  C   LIG d   1      -6.467  76.714 117.610  0.00  0.00     0.028 C 
ATOM     10  C   LIG d   1      -6.703  76.488 116.107  0.00  0.00     0.006 C 
ENDBRANCH   8   9
BRANCH   8  11
ATOM     11  C   LIG d   1      -6.576  78.937 118.616  0.00  0.00     0.028 C 
ATOM     12  C   LIG d   1      -7.412  79.792 117.650  0.00  0.00     0.006 C 
ENDBRANCH   8  11
ENDBRANCH   7   8
ENDBRANCH   1   7
BRANCH   6  13
ATOM     13  N   LIG d   1      -2.765  76.894 115.918  0.00  0.00    -0.311 N 
ATOM     14  C   LIG d   1      -3.168  75.781 115.308  0.00  0.00     0.210 C 
ATOM     15  C   LIG d   1      -2.748  74.478 115.995  0.00  0.00     0.109 C 
ATOM     16  O   LIG d   1      -3.806  75.749 114.244  0.00  0.00    -0.276 OA
ATOM     17  H   LIG d   1      -2.224  76.828 116.758  0.00  0.00     0.149 HD
ENDBRANCH   6  13
BRANCH   5  18
ATOM     18  N   LIG d   1      -1.122  78.428 113.849  0.00  0.00     0.381 N 
ATOM     19  H   LIG d   1      -1.790  78.124 113.169  0.00  0.00    -0.090 HD
ATOM     20  H   LIG d   1      -0.611  77.624 114.170  0.00  0.00    -0.090 HD
ATOM     21  H   LIG d   1      -0.496  79.086 113.439  0.00  0.00    -0.090 HD
ENDBRANCH   5  18
BRANCH   3  22
ATOM     22  C   LIG d   1      -2.924  82.487 115.641  0.00  0.00     0.382 C 
ATOM     23  O   LIG d   1      -3.748  83.209 115.029  0.00  0.00    -0.241 OA
ATOM     24  O   LIG d   1      -2.007  83.020 116.293  0.00  0.00    -0.241 OA
ENDBRANCH   3  22
TORSDOF 7
ENDMDL
MODEL 7
REMARK VINA RESULT:      -4.8      2.633      6.080
REMARK  7 active torsions:
REMARK  status: ('A' for Active; 'I' for Inactive)
REMARK    1  A    between atoms: C_2  and  C_3 
REMARK    2  A    between atoms: C_3  and  O_6 
REMARK    3  A    between atoms: C_3  and  C_4 
REMARK    4  A    between atoms: C_7  and  O_6 
REMARK    5  A    between atoms: C_9  and  C_10 
REMARK    6  A    between atoms: N_15  and  C_14 
REMARK    7  A    between atoms: N_20  and  C_19 
REMARK       I    between atoms: C_22  and  N_20 
ROOT
ATOM      1  C   LIG d   1      -5.835  76.114 116.864  0.00  0.00     0.161 C 
ATOM      2  C   LIG d   1      -4.449  76.339 116.815  0.00  0.00     0.016 C 
ATOM      3  C   LIG d   1      -3.715  76.415 115.610  0.00  0.00     0.038 C 
ATOM      4  C   LIG d   1      -4.345  76.421 114.357  0.00  0.00     0.028 C 
ATOM      5  C   LIG d   1      -5.683  75.690 114.348  0.00  0.00    -0.047 C 
ATOM      6  C   LIG d   1      -6.557  76.229 115.504  0.00  0.00     0.091 C 
ENDROOT
BRANCH   1   7
ATOM      7  O   LIG d   1      -6.441  76.996 117.829  0.00  0.00    -0.368 OA
BRANCH   7   8
ATOM      8  C   LIG d   1      -6.824  78.306 117.342  0.00  0.00     0.119 C 
BRANCH   8   9
ATOM      9  C   LIG d   1      -6.002  79.349 118.124  0.00  0.00     0.028 C 
ATOM     10  C   LIG d   1      -4.906  79.999 117.263  0.00  0.00     0.006 C 
ENDBRANCH   8   9
BRANCH   8  11
ATOM     11  C   LIG d   1      -8.288  78.616 117.668  0.00  0.00     0.028 C 
ATOM     12  C   LIG d   1      -8.603  80.119 117.624  0.00  0.00     0.006 C 
ENDBRANCH   8  11
ENDBRANCH   7   8
ENDBRANCH   1   7
BRANCH   6  13
ATOM     13  N   LIG d   1      -7.851  75.509 115.620  0.00  0.00    -0.311 N 
ATOM     14  C   LIG d   1      -7.944  74.192 115.796  0.00  0.00     0.210 C 
ATOM     15  C   LIG d   1      -9.375  73.649 115.870  0.00  0.00     0.109 C 
ATOM     16  O   LIG d   1      -6.978  73.426 115.931  0.00  0.00    -0.276 OA
ATOM     17  H   LIG d   1      -8.686  76.057 115.553  0.00  0.00     0.149 HD
ENDBRANCH   6  13
BRANCH   5  18
ATOM     18  N   LIG d   1      -6.293  75.893 113.020  0.00  0.00     0.381 N 
ATOM     19  H   LIG d   1      -5.750  76.548 112.495  0.00  0.00    -0.090 HD
ATOM     20  H   LIG d   1      -7.216  76.272 113.141  0.00  0.00    -0.090 HD
ATOM     21  H   LIG d   1      -6.344  75.026 112.533  0.00  0.00    -0.090 HD
ENDBRANCH   5  18
BRANCH   3  22
ATOM     22  C   LIG d   1      -2.329  76.446 115.650  0.00  0.00     0.382 C 
ATOM     23  O   LIG d   1      -1.666  76.221 114.609  0.00  0.00    -0.241 OA
ATOM     24  O   LIG d   1      -1.733  76.652 116.724  0.00  0.00    -0.241 OA
ENDBRANCH   3  22
TORSDOF 7
ENDMDL
MODEL 8
REMARK VINA RESULT:      -4.7      3.070      4.162
REMARK  7 active torsions:
REMARK  status: ('A' for Active; 'I' for Inactive)
REMARK    1  A    between atoms: C_2  and  C_3 
REMARK    2  A    between atoms: C_3  and  O_6 
REMARK    3  A    between atoms: C_3  and  C_4 
REMARK    4  A    between atoms: C_7  and  O_6 
REMARK    5  A    between atoms: C_9  and  C_10 
REMARK    6  A    between atoms: N_15  and  C_14 
REMARK    7  A    between atoms: N_20  and  C_19 
REMARK       I    between atoms: C_22  and  N_20 
ROOT
ATOM      1  C   LIG d   1      -4.186  77.063 117.324  0.00  0.00     0.161 C 
ATOM      2  C   LIG d   1      -4.467  78.312 117.902  0.00  0.00     0.016 C 
ATOM      3  C   LIG d   1      -3.483  79.299 118.139  0.00  0.00     0.038 C 
ATOM      4  C   LIG d   1      -2.167  79.161 117.674  0.00  0.00     0.028 C 
ATOM      5  C   LIG d   1      -1.723  77.708 117.536  0.00  0.00    -0.047 C 
ATOM      6  C   LIG d   1      -2.777  76.938 116.709  0.00  0.00     0.091 C 
ENDROOT
BRANCH   1   7
ATOM      7  O   LIG d   1      -5.192  76.740 116.344  0.00  0.00    -0.368 OA
BRANCH   7   8
ATOM      8  C   LIG d   1      -6.111  75.678 116.699  0.00  0.00     0.119 C 
BRANCH   8   9
ATOM      9  C   LIG d   1      -6.050  74.620 115.580  0.00  0.00     0.028 C 
ATOM     10  C   LIG d   1      -5.278  75.115 114.346  0.00  0.00     0.006 C 
ENDBRANCH   8   9
BRANCH   8  11
ATOM     11  C   LIG d   1      -7.560  76.175 116.708  0.00  0.00     0.028 C 
ATOM     12  C   LIG d   1      -8.534  75.184 116.053  0.00  0.00     0.006 C 
ENDBRANCH   8  11
ENDBRANCH   7   8
ENDBRANCH   1   7
BRANCH   6  13
ATOM     13  N   LIG d   1      -2.462  75.489 116.597  0.00  0.00    -0.311 N 
ATOM     14  C   LIG d   1      -1.747  74.969 115.601  0.00  0.00     0.210 C 
ATOM     15  C   LIG d   1      -1.556  73.450 115.667  0.00  0.00     0.109 C 
ATOM     16  O   LIG d   1      -1.227  75.625 114.686  0.00  0.00    -0.276 OA
ATOM     17  H   LIG d   1      -2.819  74.888 117.314  0.00  0.00     0.149 HD
ENDBRANCH   6  13
BRANCH   5  18
ATOM     18  N   LIG d   1      -0.386  77.708 116.913  0.00  0.00     0.381 N 
ATOM     19  H   LIG d   1       0.052  76.819 117.051  0.00  0.00    -0.090 HD
ATOM     20  H   LIG d   1       0.180  78.411 117.356  0.00  0.00    -0.090 HD
ATOM     21  H   LIG d   1      -0.464  77.901 115.938  0.00  0.00    -0.090 HD
ENDBRANCH   5  18
BRANCH   3  22
ATOM     22  C   LIG d   1      -3.803  80.423 118.885  0.00  0.00     0.382 C 
ATOM     23  O   LIG d   1      -5.004  80.740 119.059  0.00  0.00    -0.241 OA
ATOM     24  O   LIG d   1      -2.904  81.150 119.350  0.00  0.00    -0.241 OA
ENDBRANCH   3  22
TORSDOF 7
ENDMDL
MODEL 9
REMARK VINA RESULT:      -4.7      2.166      4.503
REMARK  7 active torsions:
REMARK  status: ('A' for Active; 'I' for Inactive)
REMARK    1  A    between atoms: C_2  and  C_3 
REMARK    2  A    between atoms: C_3  and  O_6 
REMARK    3  A    between atoms: C_3  and  C_4 
REMARK    4  A    between atoms: C_7  and  O_6 
REMARK    5  A    between atoms: C_9  and  C_10 
REMARK    6  A    between atoms: N_15  and  C_14 
REMARK    7  A    between atoms: N_20  and  C_19 
REMARK       I    between atoms: C_22  and  N_20 
ROOT
ATOM      1  C   LIG d   1      -5.711  77.938 117.161  0.00  0.00     0.161 C 
ATOM      2  C   LIG d   1      -6.723  78.807 117.603  0.00  0.00     0.016 C 
ATOM      3  C   LIG d   1      -8.099  78.485 117.560  0.00  0.00     0.038 C 
ATOM      4  C   LIG d   1      -8.550  77.203 117.210  0.00  0.00     0.028 C 
ATOM      5  C   LIG d   1      -7.599  76.460 116.278  0.00  0.00    -0.047 C 
ATOM      6  C   LIG d   1      -6.176  76.494 116.881  0.00  0.00     0.091 C 
ENDROOT
BRANCH   1   7
ATOM      7  O   LIG d   1      -4.621  77.939 118.104  0.00  0.00    -0.368 OA
BRANCH   7   8
ATOM      8  C   LIG d   1      -3.419  78.635 117.688  0.00  0.00     0.119 C 
BRANCH   8   9
ATOM      9  C   LIG d   1      -2.215  77.855 118.250  0.00  0.00     0.028 C 
ATOM     10  C   LIG d   1      -2.025  76.493 117.562  0.00  0.00     0.006 C 
ENDBRANCH   8   9
BRANCH   8  11
ATOM     11  C   LIG d   1      -3.333  80.026 118.321  0.00  0.00     0.028 C 
ATOM     12  C   LIG d   1      -3.601  81.157 117.315  0.00  0.00     0.006 C 
ENDBRANCH   8  11
ENDBRANCH   7   8
ENDBRANCH   1   7
BRANCH   6  13
ATOM     13  N   LIG d   1      -5.168  75.862 115.990  0.00  0.00    -0.311 N 
ATOM     14  C   LIG d   1      -4.955  74.548 115.939  0.00  0.00     0.210 C 
ATOM     15  C   LIG d   1      -3.856  74.108 114.968  0.00  0.00     0.109 C 
ATOM     16  O   LIG d   1      -5.595  73.703 116.583  0.00  0.00    -0.276 OA
ATOM     17  H   LIG d   1      -4.626  76.472 115.410  0.00  0.00     0.149 HD
ENDBRANCH   6  13
BRANCH   5  18
ATOM     18  N   LIG d   1      -8.122  75.092 116.106  0.00  0.00     0.381 N 
ATOM     19  H   LIG d   1      -7.793  74.709 115.242  0.00  0.00    -0.090 HD
ATOM     20  H   LIG d   1      -9.126  75.129 116.072  0.00  0.00    -0.090 HD
ATOM     21  H   LIG d   1      -7.830  74.517 116.866  0.00  0.00    -0.090 HD
ENDBRANCH   5  18
BRANCH   3  22
ATOM     22  C   LIG d   1      -9.043  79.464 117.831  0.00  0.00     0.382 C 
ATOM     23  O   LIG d   1     -10.216  79.137 118.134  0.00  0.00    -0.241 OA
ATOM     24  O   LIG d   1      -8.748  80.670 117.734  0.00  0.00    -0.241 OA
ENDBRANCH   3  22
TORSDOF 7
ENDMDL
