MODEL 1
REMARK VINA RESULT:      -5.9      0.000      0.000
REMARK  7 active torsions:
REMARK  status: ('A' for Active; 'I' for Inactive)
REMARK    1  A    between atoms: C_2  and  C_3 
REMARK    2  A    between atoms: C_3  and  O_6 
REMARK    3  A    between atoms: C_3  and  C_4 
REMARK    4  A    between atoms: C_7  and  O_6 
REMARK    5  A    between atoms: C_9  and  C_10 
REMARK    6  A    between atoms: N_15  and  C_14 
REMARK    7  A    between atoms: N_20  and  C_19 
REMARK       I    between atoms: C_22  and  N_20 
ROOT
ATOM      1  C   LIG d   1      -8.004  75.803 117.932  0.00  0.00     0.161 C 
ATOM      2  C   LIG d   1      -9.062  76.663 118.269  0.00  0.00     0.016 C 
ATOM      3  C   LIG d   1      -8.938  78.071 118.308  0.00  0.00     0.038 C 
ATOM      4  C   LIG d   1      -7.780  78.726 117.862  0.00  0.00     0.028 C 
ATOM      5  C   LIG d   1      -6.518  77.880 117.993  0.00  0.00    -0.047 C 
ATOM      6  C   LIG d   1      -6.766  76.503 117.336  0.00  0.00     0.091 C 
ENDROOT
BRANCH   1   7
ATOM      7  O   LIG d   1      -8.476  74.774 117.040  0.00  0.00    -0.368 OA
BRANCH   7   8
ATOM      8  C   LIG d   1      -8.631  73.453 117.615  0.00  0.00     0.119 C 
BRANCH   8   9
ATOM      9  C   LIG d   1      -7.569  72.541 116.969  0.00  0.00     0.028 C 
ATOM     10  C   LIG d   1      -8.134  71.162 116.588  0.00  0.00     0.006 C 
ENDBRANCH   8   9
BRANCH   8  11
ATOM     11  C   LIG d   1      -9.980  72.835 117.237  0.00  0.00     0.028 C 
ATOM     12  C   LIG d   1     -10.888  73.810 116.471  0.00  0.00     0.006 C 
ENDBRANCH   8  11
ENDBRANCH   7   8
ENDBRANCH   1   7
BRANCH   6  13
ATOM     13  N   LIG d   1      -5.609  75.584 117.493  0.00  0.00    -0.311 N 
ATOM     14  C   LIG d   1      -4.673  75.416 116.561  0.00  0.00     0.210 C 
ATOM     15  C   LIG d   1      -3.578  74.405 116.917  0.00  0.00     0.109 C 
ATOM     16  O   LIG d   1      -4.628  76.033 115.486  0.00  0.00    -0.276 OA
ATOM     17  H   LIG d   1      -5.551  75.067 118.349  0.00  0.00     0.149 HD
ENDBRANCH   6  13
BRANCH   5  18
ATOM     18  N   LIG d   1      -5.413  78.630 117.367  0.00  0.00     0.381 N 
ATOM     19  H   LIG d   1      -4.536  78.287 117.706  0.00  0.00    -0.090 HD
ATOM     20  H   LIG d   1      -5.492  79.599 117.620  0.00  0.00    -0.090 HD
ATOM     21  H   LIG d   1      -5.454  78.533 116.376  0.00  0.00    -0.090 HD
ENDBRANCH   5  18
BRANCH   3  22
ATOM     22  C   LIG d   1      -9.967  78.838 118.834  0.00  0.00     0.382 C 
ATOM     23  O   LIG d   1     -11.147  78.414 118.796  0.00  0.00    -0.241 OA
ATOM     24  O   LIG d   1      -9.735  79.966 119.307  0.00  0.00    -0.241 OA
ENDBRANCH   3  22
TORSDOF 7
ENDMDL
MODEL 2
REMARK VINA RESULT:      -5.5      2.168      3.224
REMARK  7 active torsions:
REMARK  status: ('A' for Active; 'I' for Inactive)
REMARK    1  A    between atoms: C_2  and  C_3 
REMARK    2  A    between atoms: C_3  and  O_6 
REMARK    3  A    between atoms: C_3  and  C_4 
REMARK    4  A    between atoms: C_7  and  O_6 
REMARK    5  A    between atoms: C_9  and  C_10 
REMARK    6  A    between atoms: N_15  and  C_14 
REMARK    7  A    between atoms: N_20  and  C_19 
REMARK       I    between atoms: C_22  and  N_20 
ROOT
ATOM      1  C   LIG d   1      -6.838  78.000 117.972  0.00  0.00     0.161 C 
ATOM      2  C   LIG d   1      -8.226  77.931 118.180  0.00  0.00     0.016 C 
ATOM      3  C   LIG d   1      -9.045  79.070 118.353  0.00  0.00     0.038 C 
ATOM      4  C   LIG d   1      -8.551  80.371 118.178  0.00  0.00     0.028 C 
ATOM      5  C   LIG d   1      -7.059  80.497 118.467  0.00  0.00    -0.047 C 
ATOM      6  C   LIG d   1      -6.300  79.414 117.668  0.00  0.00     0.091 C 
ENDROOT
BRANCH   1   7
ATOM      7  O   LIG d   1      -6.453  77.082 116.930  0.00  0.00    -0.368 OA
BRANCH   7   8
ATOM      8  C   LIG d   1      -7.417  76.051 116.601  0.00  0.00     0.119 C 
BRANCH   8   9
ATOM      9  C   LIG d   1      -7.065  74.805 117.437  0.00  0.00     0.028 C 
ATOM     10  C   LIG d   1      -8.309  73.984 117.817  0.00  0.00     0.006 C 
ENDBRANCH   8   9
BRANCH   8  11
ATOM     11  C   LIG d   1      -7.284  75.610 115.140  0.00  0.00     0.028 C 
ATOM     12  C   LIG d   1      -6.049  74.728 114.894  0.00  0.00     0.006 C 
ENDBRANCH   8  11
ENDBRANCH   7   8
ENDBRANCH   1   7
BRANCH   6  13
ATOM     13  N   LIG d   1      -4.842  79.412 117.958  0.00  0.00    -0.311 N 
ATOM     14  C   LIG d   1      -3.909  79.612 117.029  0.00  0.00     0.210 C 
ATOM     15  C   LIG d   1      -2.466  79.550 117.538  0.00  0.00     0.109 C 
ATOM     16  O   LIG d   1      -4.141  79.867 115.838  0.00  0.00    -0.276 OA
ATOM     17  H   LIG d   1      -4.566  79.244 118.906  0.00  0.00     0.149 HD
ENDBRANCH   6  13
BRANCH   5  18
ATOM     18  N   LIG d   1      -6.650  81.870 118.113  0.00  0.00     0.381 N 
ATOM     19  H   LIG d   1      -5.693  82.014 118.366  0.00  0.00    -0.090 HD
ATOM     20  H   LIG d   1      -7.215  82.520 118.630  0.00  0.00    -0.090 HD
ATOM     21  H   LIG d   1      -6.769  82.019 117.136  0.00  0.00    -0.090 HD
ENDBRANCH   5  18
BRANCH   3  22
ATOM     22  C   LIG d   1     -10.366  78.914 118.744  0.00  0.00     0.382 C 
ATOM     23  O   LIG d   1     -10.917  79.788 119.455  0.00  0.00    -0.241 OA
ATOM     24  O   LIG d   1     -11.000  77.888 118.431  0.00  0.00    -0.241 OA
ENDBRANCH   3  22
TORSDOF 7
ENDMDL
MODEL 3
REMARK VINA RESULT:      -5.2     12.136     14.902
REMARK  7 active torsions:
REMARK  status: ('A' for Active; 'I' for Inactive)
REMARK    1  A    between atoms: C_2  and  C_3 
REMARK    2  A    between atoms: C_3  and  O_6 
REMARK    3  A    between atoms: C_3  and  C_4 
REMARK    4  A    between atoms: C_7  and  O_6 
REMARK    5  A    between atoms: C_9  and  C_10 
REMARK    6  A    between atoms: N_15  and  C_14 
REMARK    7  A    between atoms: N_20  and  C_19 
REMARK       I    between atoms: C_22  and  N_20 
ROOT
ATOM      1  C   LIG d   1     -16.836  64.504 116.013  0.00  0.00     0.161 C 
ATOM      2  C   LIG d   1     -16.800  65.835 115.567  0.00  0.00     0.016 C 
ATOM      3  C   LIG d   1     -16.127  66.870 116.257  0.00  0.00     0.038 C 
ATOM      4  C   LIG d   1     -15.313  66.611 117.370  0.00  0.00     0.028 C 
ATOM      5  C   LIG d   1     -15.728  65.367 118.148  0.00  0.00    -0.047 C 
ATOM      6  C   LIG d   1     -15.861  64.181 117.165  0.00  0.00     0.091 C 
ENDROOT
BRANCH   1   7
ATOM      7  O   LIG d   1     -16.614  63.610 114.904  0.00  0.00    -0.368 OA
BRANCH   7   8
ATOM      8  C   LIG d   1     -17.750  62.812 114.492  0.00  0.00     0.119 C 
BRANCH   8   9
ATOM      9  C   LIG d   1     -17.278  61.348 114.397  0.00  0.00     0.028 C 
ATOM     10  C   LIG d   1     -18.336  60.429 113.764  0.00  0.00     0.006 C 
ENDBRANCH   8   9
BRANCH   8  11
ATOM     11  C   LIG d   1     -18.208  63.182 113.078  0.00  0.00     0.028 C 
ATOM     12  C   LIG d   1     -19.350  64.211 113.072  0.00  0.00     0.006 C 
ENDBRANCH   8  11
ENDBRANCH   7   8
ENDBRANCH   1   7
BRANCH   6  13
ATOM     13  N   LIG d   1     -16.345  62.944 117.831  0.00  0.00    -0.311 N 
ATOM     14  C   LIG d   1     -15.545  61.939 118.183  0.00  0.00     0.210 C 
ATOM     15  C   LIG d   1     -16.252  60.749 118.839  0.00  0.00     0.109 C 
ATOM     16  O   LIG d   1     -14.313  61.934 118.042  0.00  0.00    -0.276 OA
ATOM     17  H   LIG d   1     -17.328  62.878 118.011  0.00  0.00     0.149 HD
ENDBRANCH   6  13
BRANCH   5  18
ATOM     18  N   LIG d   1     -14.716  65.138 119.196  0.00  0.00     0.381 N 
ATOM     19  H   LIG d   1     -15.013  65.561 120.053  0.00  0.00    -0.090 HD
ATOM     20  H   LIG d   1     -13.853  65.570 118.915  0.00  0.00    -0.090 HD
ATOM     21  H   LIG d   1     -14.578  64.161 119.330  0.00  0.00    -0.090 HD
ENDBRANCH   5  18
BRANCH   3  22
ATOM     22  C   LIG d   1     -16.299  68.187 115.859  0.00  0.00     0.382 C 
ATOM     23  O   LIG d   1     -16.601  69.063 116.704  0.00  0.00    -0.241 OA
ATOM     24  O   LIG d   1     -16.199  68.501 114.657  0.00  0.00    -0.241 OA
ENDBRANCH   3  22
TORSDOF 7
ENDMDL
MODEL 4
REMARK VINA RESULT:      -4.9      2.433      3.291
REMARK  7 active torsions:
REMARK  status: ('A' for Active; 'I' for Inactive)
REMARK    1  A    between atoms: C_2  and  C_3 
REMARK    2  A    between atoms: C_3  and  O_6 
REMARK    3  A    between atoms: C_3  and  C_4 
REMARK    4  A    between atoms: C_7  and  O_6 
REMARK    5  A    between atoms: C_9  and  C_10 
REMARK    6  A    between atoms: N_15  and  C_14 
REMARK    7  A    between atoms: N_20  and  C_19 
REMARK       I    between atoms: C_22  and  N_20 
ROOT
ATOM      1  C   LIG d   1      -5.435  76.526 117.825  0.00  0.00     0.161 C 
ATOM      2  C   LIG d   1      -6.232  77.669 118.010  0.00  0.00     0.016 C 
ATOM      3  C   LIG d   1      -5.810  78.975 117.671  0.00  0.00     0.038 C 
ATOM      4  C   LIG d   1      -4.613  79.211 116.978  0.00  0.00     0.028 C 
ATOM      5  C   LIG d   1      -3.551  78.144 117.223  0.00  0.00    -0.047 C 
ATOM      6  C   LIG d   1      -4.171  76.751 116.969  0.00  0.00     0.091 C 
ENDROOT
BRANCH   1   7
ATOM      7  O   LIG d   1      -6.232  75.460 117.271  0.00  0.00    -0.368 OA
BRANCH   7   8
ATOM      8  C   LIG d   1      -7.231  75.850 116.298  0.00  0.00     0.119 C 
BRANCH   8   9
ATOM      9  C   LIG d   1      -8.529  75.091 116.638  0.00  0.00     0.028 C 
ATOM     10  C   LIG d   1      -8.333  74.072 117.773  0.00  0.00     0.006 C 
ENDBRANCH   8   9
BRANCH   8  11
ATOM     11  C   LIG d   1      -6.848  75.387 114.889  0.00  0.00     0.028 C 
ATOM     12  C   LIG d   1      -5.862  74.208 114.897  0.00  0.00     0.006 C 
ENDBRANCH   8  11
ENDBRANCH   7   8
ENDBRANCH   1   7
BRANCH   6  13
ATOM     13  N   LIG d   1      -3.224  75.646 117.267  0.00  0.00    -0.311 N 
ATOM     14  C   LIG d   1      -2.473  75.054 116.339  0.00  0.00     0.210 C 
ATOM     15  C   LIG d   1      -1.579  73.923 116.857  0.00  0.00     0.109 C 
ATOM     16  O   LIG d   1      -2.439  75.379 115.143  0.00  0.00    -0.276 OA
ATOM     17  H   LIG d   1      -3.164  75.340 118.218  0.00  0.00     0.149 HD
ENDBRANCH   6  13
BRANCH   5  18
ATOM     18  N   LIG d   1      -2.410  78.440 116.336  0.00  0.00     0.381 N 
ATOM     19  H   LIG d   1      -2.744  78.765 115.451  0.00  0.00    -0.090 HD
ATOM     20  H   LIG d   1      -1.888  77.595 116.185  0.00  0.00    -0.090 HD
ATOM     21  H   LIG d   1      -1.825  79.130 116.752  0.00  0.00    -0.090 HD
ENDBRANCH   5  18
BRANCH   3  22
ATOM     22  C   LIG d   1      -6.572  80.066 118.061  0.00  0.00     0.382 C 
ATOM     23  O   LIG d   1      -6.769  81.011 117.259  0.00  0.00    -0.241 OA
ATOM     24  O   LIG d   1      -7.027  80.137 119.218  0.00  0.00    -0.241 OA
ENDBRANCH   3  22
TORSDOF 7
ENDMDL
MODEL 5
REMARK VINA RESULT:      -4.7     15.911     18.025
REMARK  7 active torsions:
REMARK  status: ('A' for Active; 'I' for Inactive)
REMARK    1  A    between atoms: C_2  and  C_3 
REMARK    2  A    between atoms: C_3  and  O_6 
REMARK    3  A    between atoms: C_3  and  C_4 
REMARK    4  A    between atoms: C_7  and  O_6 
REMARK    5  A    between atoms: C_9  and  C_10 
REMARK    6  A    between atoms: N_15  and  C_14 
REMARK    7  A    between atoms: N_20  and  C_19 
REMARK       I    between atoms: C_22  and  N_20 
ROOT
ATOM      1  C   LIG d   1       3.197  89.255 116.092  0.00  0.00     0.161 C 
ATOM      2  C   LIG d   1       2.285  88.521 115.316  0.00  0.00     0.016 C 
ATOM      3  C   LIG d   1       2.526  88.152 113.973  0.00  0.00     0.038 C 
ATOM      4  C   LIG d   1       3.769  88.363 113.358  0.00  0.00     0.028 C 
ATOM      5  C   LIG d   1       4.538  89.547 113.937  0.00  0.00    -0.047 C 
ATOM      6  C   LIG d   1       4.603  89.399 115.474  0.00  0.00     0.091 C 
ENDROOT
BRANCH   1   7
ATOM      7  O   LIG d   1       3.286  88.684 117.413  0.00  0.00    -0.368 OA
BRANCH   7   8
ATOM      8  C   LIG d   1       2.761  89.494 118.494  0.00  0.00     0.119 C 
BRANCH   8   9
ATOM      9  C   LIG d   1       1.616  88.700 119.152  0.00  0.00     0.028 C 
ATOM     10  C   LIG d   1       0.267  88.925 118.449  0.00  0.00     0.006 C 
ENDBRANCH   8   9
BRANCH   8  11
ATOM     11  C   LIG d   1       2.114  90.777 117.966  0.00  0.00     0.028 C 
ATOM     12  C   LIG d   1       2.829  92.048 118.451  0.00  0.00     0.006 C 
ENDBRANCH   8  11
ENDBRANCH   7   8
ENDBRANCH   1   7
BRANCH   6  13
ATOM     13  N   LIG d   1       5.266  90.558 116.127  0.00  0.00    -0.311 N 
ATOM     14  C   LIG d   1       6.181  90.434 117.086  0.00  0.00     0.210 C 
ATOM     15  C   LIG d   1       6.723  91.757 117.638  0.00  0.00     0.109 C 
ATOM     16  O   LIG d   1       6.619  89.354 117.511  0.00  0.00    -0.276 OA
ATOM     17  H   LIG d   1       4.993  91.471 115.821  0.00  0.00     0.149 HD
ENDBRANCH   6  13
BRANCH   5  18
ATOM     18  N   LIG d   1       5.868  89.568 113.300  0.00  0.00     0.381 N 
ATOM     19  H   LIG d   1       6.403  90.333 113.659  0.00  0.00    -0.090 HD
ATOM     20  H   LIG d   1       5.754  89.699 112.311  0.00  0.00    -0.090 HD
ATOM     21  H   LIG d   1       6.344  88.710 113.476  0.00  0.00    -0.090 HD
ENDBRANCH   5  18
BRANCH   3  22
ATOM     22  C   LIG d   1       1.503  87.599 113.218  0.00  0.00     0.382 C 
ATOM     23  O   LIG d   1       0.466  88.266 112.984  0.00  0.00    -0.241 OA
ATOM     24  O   LIG d   1       1.585  86.427 112.805  0.00  0.00    -0.241 OA
ENDBRANCH   3  22
TORSDOF 7
ENDMDL
MODEL 6
REMARK VINA RESULT:      -4.7     15.509     17.412
REMARK  7 active torsions:
REMARK  status: ('A' for Active; 'I' for Inactive)
REMARK    1  A    between atoms: C_2  and  C_3 
REMARK    2  A    between atoms: C_3  and  O_6 
REMARK    3  A    between atoms: C_3  and  C_4 
REMARK    4  A    between atoms: C_7  and  O_6 
REMARK    5  A    between atoms: C_9  and  C_10 
REMARK    6  A    between atoms: N_15  and  C_14 
REMARK    7  A    between atoms: N_20  and  C_19 
REMARK       I    between atoms: C_22  and  N_20 
ROOT
ATOM      1  C   LIG d   1       3.303  88.987 116.164  0.00  0.00     0.161 C 
ATOM      2  C   LIG d   1       2.346  88.317 115.383  0.00  0.00     0.016 C 
ATOM      3  C   LIG d   1       2.499  88.081 113.998  0.00  0.00     0.038 C 
ATOM      4  C   LIG d   1       3.696  88.367 113.325  0.00  0.00     0.028 C 
ATOM      5  C   LIG d   1       4.493  89.500 113.962  0.00  0.00    -0.047 C 
ATOM      6  C   LIG d   1       4.663  89.208 115.470  0.00  0.00     0.091 C 
ENDROOT
BRANCH   1   7
ATOM      7  O   LIG d   1       3.485  88.294 117.415  0.00  0.00    -0.368 OA
BRANCH   7   8
ATOM      8  C   LIG d   1       3.100  86.898 117.431  0.00  0.00     0.119 C 
BRANCH   8   9
ATOM      9  C   LIG d   1       2.337  86.644 118.746  0.00  0.00     0.028 C 
ATOM     10  C   LIG d   1       1.143  87.596 118.924  0.00  0.00     0.006 C 
ENDBRANCH   8   9
BRANCH   8  11
ATOM     11  C   LIG d   1       4.327  85.982 117.492  0.00  0.00     0.028 C 
ATOM     12  C   LIG d   1       4.680  85.369 116.127  0.00  0.00     0.006 C 
ENDBRANCH   8  11
ENDBRANCH   7   8
ENDBRANCH   1   7
BRANCH   6  13
ATOM     13  N   LIG d   1       5.360  90.309 116.186  0.00  0.00    -0.311 N 
ATOM     14  C   LIG d   1       6.459  90.128 116.916  0.00  0.00     0.210 C 
ATOM     15  C   LIG d   1       7.005  91.393 117.586  0.00  0.00     0.109 C 
ATOM     16  O   LIG d   1       7.051  89.047 117.048  0.00  0.00    -0.276 OA
ATOM     17  H   LIG d   1       4.964  91.225 116.108  0.00  0.00     0.149 HD
ENDBRANCH   6  13
BRANCH   5  18
ATOM     18  N   LIG d   1       5.778  89.600 113.243  0.00  0.00     0.381 N 
ATOM     19  H   LIG d   1       6.081  90.553 113.222  0.00  0.00    -0.090 HD
ATOM     20  H   LIG d   1       5.646  89.290 112.297  0.00  0.00    -0.090 HD
ATOM     21  H   LIG d   1       6.464  89.035 113.693  0.00  0.00    -0.090 HD
ENDBRANCH   5  18
BRANCH   3  22
ATOM     22  C   LIG d   1       1.431  87.588 113.263  0.00  0.00     0.382 C 
ATOM     23  O   LIG d   1       0.408  88.294 113.093  0.00  0.00    -0.241 OA
ATOM     24  O   LIG d   1       1.460  86.430 112.805  0.00  0.00    -0.241 OA
ENDBRANCH   3  22
TORSDOF 7
ENDMDL
MODEL 7
REMARK VINA RESULT:      -4.5     14.862     17.019
REMARK  7 active torsions:
REMARK  status: ('A' for Active; 'I' for Inactive)
REMARK    1  A    between atoms: C_2  and  C_3 
REMARK    2  A    between atoms: C_3  and  O_6 
REMARK    3  A    between atoms: C_3  and  C_4 
REMARK    4  A    between atoms: C_7  and  O_6 
REMARK    5  A    between atoms: C_9  and  C_10 
REMARK    6  A    between atoms: N_15  and  C_14 
REMARK    7  A    between atoms: N_20  and  C_19 
REMARK       I    between atoms: C_22  and  N_20 
ROOT
ATOM      1  C   LIG d   1       1.688  89.095 116.608  0.00  0.00     0.161 C 
ATOM      2  C   LIG d   1       0.345  88.725 116.786  0.00  0.00     0.016 C 
ATOM      3  C   LIG d   1      -0.543  89.410 117.647  0.00  0.00     0.038 C 
ATOM      4  C   LIG d   1      -0.186  90.612 118.277  0.00  0.00     0.028 C 
ATOM      5  C   LIG d   1       1.313  90.744 118.523  0.00  0.00    -0.047 C 
ATOM      6  C   LIG d   1       2.065  90.469 117.201  0.00  0.00     0.091 C 
ENDROOT
BRANCH   1   7
ATOM      7  O   LIG d   1       2.028  89.043 115.208  0.00  0.00    -0.368 OA
BRANCH   7   8
ATOM      8  C   LIG d   1       2.885  87.949 114.799  0.00  0.00     0.119 C 
BRANCH   8   9
ATOM      9  C   LIG d   1       4.319  88.502 114.687  0.00  0.00     0.028 C 
ATOM     10  C   LIG d   1       4.705  88.844 113.238  0.00  0.00     0.006 C 
ENDBRANCH   8   9
BRANCH   8  11
ATOM     11  C   LIG d   1       2.529  87.457 113.393  0.00  0.00     0.028 C 
ATOM     12  C   LIG d   1       1.054  87.698 113.033  0.00  0.00     0.006 C 
ENDBRANCH   8  11
ENDBRANCH   7   8
ENDBRANCH   1   7
BRANCH   6  13
ATOM     13  N   LIG d   1       3.541  90.495 117.372  0.00  0.00    -0.311 N 
ATOM     14  C   LIG d   1       4.275  91.598 117.235  0.00  0.00     0.210 C 
ATOM     15  C   LIG d   1       5.781  91.401 117.435  0.00  0.00     0.109 C 
ATOM     16  O   LIG d   1       3.819  92.727 116.999  0.00  0.00    -0.276 OA
ATOM     17  H   LIG d   1       3.990  89.628 117.596  0.00  0.00     0.149 HD
ENDBRANCH   6  13
BRANCH   5  18
ATOM     18  N   LIG d   1       1.559  92.097 119.057  0.00  0.00     0.381 N 
ATOM     19  H   LIG d   1       1.404  92.104 120.045  0.00  0.00    -0.090 HD
ATOM     20  H   LIG d   1       0.912  92.737 118.631  0.00  0.00    -0.090 HD
ATOM     21  H   LIG d   1       2.494  92.377 118.858  0.00  0.00    -0.090 HD
ENDBRANCH   5  18
BRANCH   3  22
ATOM     22  C   LIG d   1      -1.792  88.871 117.916  0.00  0.00     0.382 C 
ATOM     23  O   LIG d   1      -2.125  88.621 119.099  0.00  0.00    -0.241 OA
ATOM     24  O   LIG d   1      -2.573  88.591 116.986  0.00  0.00    -0.241 OA
ENDBRANCH   3  22
TORSDOF 7
ENDMDL
MODEL 8
REMARK VINA RESULT:      -4.4     15.321     17.750
REMARK  7 active torsions:
REMARK  status: ('A' for Active; 'I' for Inactive)
REMARK    1  A    between atoms: C_2  and  C_3 
REMARK    2  A    between atoms: C_3  and  O_6 
REMARK    3  A    between atoms: C_3  and  C_4 
REMARK    4  A    between atoms: C_7  and  O_6 
REMARK    5  A    between atoms: C_9  and  C_10 
REMARK    6  A    between atoms: N_15  and  C_14 
REMARK    7  A    between atoms: N_20  and  C_19 
REMARK       I    between atoms: C_22  and  N_20 
ROOT
ATOM      1  C   LIG d   1       3.865  87.483 116.639  0.00  0.00     0.161 C 
ATOM      2  C   LIG d   1       4.278  86.299 116.005  0.00  0.00     0.016 C 
ATOM      3  C   LIG d   1       3.718  85.828 114.795  0.00  0.00     0.038 C 
ATOM      4  C   LIG d   1       2.806  86.593 114.053  0.00  0.00     0.028 C 
ATOM      5  C   LIG d   1       1.988  87.556 114.907  0.00  0.00    -0.047 C 
ATOM      6  C   LIG d   1       2.949  88.387 115.787  0.00  0.00     0.091 C 
ENDROOT
BRANCH   1   7
ATOM      7  O   LIG d   1       5.016  88.221 117.093  0.00  0.00    -0.368 OA
BRANCH   7   8
ATOM      8  C   LIG d   1       6.166  88.214 116.211  0.00  0.00     0.119 C 
BRANCH   8   9
ATOM      9  C   LIG d   1       7.421  88.040 117.089  0.00  0.00     0.028 C 
ATOM     10  C   LIG d   1       7.249  86.937 118.147  0.00  0.00     0.006 C 
ENDBRANCH   8   9
BRANCH   8  11
ATOM     11  C   LIG d   1       6.343  89.566 115.514  0.00  0.00     0.028 C 
ATOM     12  C   LIG d   1       5.956  89.525 114.027  0.00  0.00     0.006 C 
ENDBRANCH   8  11
ENDBRANCH   7   8
ENDBRANCH   1   7
BRANCH   6  13
ATOM     13  N   LIG d   1       2.226  89.296 116.714  0.00  0.00    -0.311 N 
ATOM     14  C   LIG d   1       2.581  90.562 116.925  0.00  0.00     0.210 C 
ATOM     15  C   LIG d   1       1.712  91.318 117.935  0.00  0.00     0.109 C 
ATOM     16  O   LIG d   1       3.512  91.141 116.346  0.00  0.00    -0.276 OA
ATOM     17  H   LIG d   1       1.438  88.917 117.202  0.00  0.00     0.149 HD
ENDBRANCH   6  13
BRANCH   5  18
ATOM     18  N   LIG d   1       1.179  88.385 113.993  0.00  0.00     0.381 N 
ATOM     19  H   LIG d   1       1.396  88.153 113.044  0.00  0.00    -0.090 HD
ATOM     20  H   LIG d   1       1.409  89.351 114.141  0.00  0.00    -0.090 HD
ATOM     21  H   LIG d   1       0.209  88.236 114.165  0.00  0.00    -0.090 HD
ENDBRANCH   5  18
BRANCH   3  22
ATOM     22  C   LIG d   1       4.041  84.560 114.336  0.00  0.00     0.382 C 
ATOM     23  O   LIG d   1       4.460  83.691 115.138  0.00  0.00    -0.241 OA
ATOM     24  O   LIG d   1       3.961  84.288 113.124  0.00  0.00    -0.241 OA
ENDBRANCH   3  22
TORSDOF 7
ENDMDL
MODEL 9
REMARK VINA RESULT:      -4.4     12.607     15.743
REMARK  7 active torsions:
REMARK  status: ('A' for Active; 'I' for Inactive)
REMARK    1  A    between atoms: C_2  and  C_3 
REMARK    2  A    between atoms: C_3  and  O_6 
REMARK    3  A    between atoms: C_3  and  C_4 
REMARK    4  A    between atoms: C_7  and  O_6 
REMARK    5  A    between atoms: C_9  and  C_10 
REMARK    6  A    between atoms: N_15  and  C_14 
REMARK    7  A    between atoms: N_20  and  C_19 
REMARK       I    between atoms: C_22  and  N_20 
ROOT
ATOM      1  C   LIG d   1     -18.455  64.607 116.009  0.00  0.00     0.161 C 
ATOM      2  C   LIG d   1     -18.722  63.375 115.389  0.00  0.00     0.016 C 
ATOM      3  C   LIG d   1     -18.181  63.001 114.137  0.00  0.00     0.038 C 
ATOM      4  C   LIG d   1     -17.209  63.776 113.488  0.00  0.00     0.028 C 
ATOM      5  C   LIG d   1     -17.290  65.260 113.831  0.00  0.00    -0.047 C 
ATOM      6  C   LIG d   1     -17.310  65.419 115.368  0.00  0.00     0.091 C 
ENDROOT
BRANCH   1   7
ATOM      7  O   LIG d   1     -18.198  64.402 117.413  0.00  0.00    -0.368 OA
BRANCH   7   8
ATOM      8  C   LIG d   1     -16.812  64.212 117.787  0.00  0.00     0.119 C 
BRANCH   8   9
ATOM      9  C   LIG d   1     -16.658  62.759 118.274  0.00  0.00     0.028 C 
ATOM     10  C   LIG d   1     -15.773  61.917 117.339  0.00  0.00     0.006 C 
ENDBRANCH   8   9
BRANCH   8  11
ATOM     11  C   LIG d   1     -16.434  65.085 118.988  0.00  0.00     0.028 C 
ATOM     12  C   LIG d   1     -17.536  66.086 119.367  0.00  0.00     0.006 C 
ENDBRANCH   8  11
ENDBRANCH   7   8
ENDBRANCH   1   7
BRANCH   6  13
ATOM     13  N   LIG d   1     -17.472  66.835 115.790  0.00  0.00    -0.311 N 
ATOM     14  C   LIG d   1     -16.456  67.607 116.172  0.00  0.00     0.210 C 
ATOM     15  C   LIG d   1     -16.845  69.030 116.586  0.00  0.00     0.109 C 
ATOM     16  O   LIG d   1     -15.266  67.258 116.178  0.00  0.00    -0.276 OA
ATOM     17  H   LIG d   1     -18.401  67.209 115.785  0.00  0.00     0.149 HD
ENDBRANCH   6  13
BRANCH   5  18
ATOM     18  N   LIG d   1     -16.138  65.927 113.195  0.00  0.00     0.381 N 
ATOM     19  H   LIG d   1     -15.846  66.704 113.754  0.00  0.00    -0.090 HD
ATOM     20  H   LIG d   1     -16.419  66.274 112.295  0.00  0.00    -0.090 HD
ATOM     21  H   LIG d   1     -15.385  65.283 113.091  0.00  0.00    -0.090 HD
ENDBRANCH   5  18
BRANCH   3  22
ATOM     22  C   LIG d   1     -18.642  61.857 113.504  0.00  0.00     0.382 C 
ATOM     23  O   LIG d   1     -19.684  61.904 112.806  0.00  0.00    -0.241 OA
ATOM     24  O   LIG d   1     -18.055  60.769 113.658  0.00  0.00    -0.241 OA
ENDBRANCH   3  22
TORSDOF 7
ENDMDL
