MODEL 1
REMARK VINA RESULT:      -5.7      0.000      0.000
REMARK  7 active torsions:
REMARK  status: ('A' for Active; 'I' for Inactive)
REMARK    1  A    between atoms: C_2  and  C_3 
REMARK    2  A    between atoms: C_3  and  O_6 
REMARK    3  A    between atoms: C_3  and  C_4 
REMARK    4  A    between atoms: C_7  and  O_6 
REMARK    5  A    between atoms: C_9  and  C_10 
REMARK    6  A    between atoms: N_15  and  C_14 
REMARK    7  A    between atoms: N_20  and  C_19 
REMARK       I    between atoms: C_22  and  N_20 
ROOT
ATOM      1  C   LIG d   1      -5.784  76.065 116.975  0.00  0.00     0.161 C 
ATOM      2  C   LIG d   1      -6.098  74.792 116.470  0.00  0.00     0.016 C 
ATOM      3  C   LIG d   1      -7.408  74.261 116.458  0.00  0.00     0.038 C 
ATOM      4  C   LIG d   1      -8.524  75.032 116.815  0.00  0.00     0.028 C 
ATOM      5  C   LIG d   1      -8.199  76.145 117.806  0.00  0.00    -0.047 C 
ATOM      6  C   LIG d   1      -7.004  76.964 117.267  0.00  0.00     0.091 C 
ENDROOT
BRANCH   1   7
ATOM      7  O   LIG d   1      -4.871  76.734 116.083  0.00  0.00    -0.368 OA
BRANCH   7   8
ATOM      8  C   LIG d   1      -3.685  75.990 115.709  0.00  0.00     0.119 C 
BRANCH   8   9
ATOM      9  C   LIG d   1      -2.643  76.187 116.827  0.00  0.00     0.028 C 
ATOM     10  C   LIG d   1      -2.340  74.883 117.584  0.00  0.00     0.006 C 
ENDBRANCH   8   9
BRANCH   8  11
ATOM     11  C   LIG d   1      -3.039  76.568 114.447  0.00  0.00     0.028 C 
ATOM     12  C   LIG d   1      -1.510  76.413 114.435  0.00  0.00     0.006 C 
ENDBRANCH   8  11
ENDBRANCH   7   8
ENDBRANCH   1   7
BRANCH   6  13
ATOM     13  N   LIG d   1      -6.567  78.021 118.216  0.00  0.00    -0.311 N 
ATOM     14  C   LIG d   1      -7.040  79.266 118.195  0.00  0.00     0.210 C 
ATOM     15  C   LIG d   1      -6.441  80.203 119.248  0.00  0.00     0.109 C 
ATOM     16  O   LIG d   1      -7.922  79.674 117.425  0.00  0.00    -0.276 OA
ATOM     17  H   LIG d   1      -5.876  77.767 118.895  0.00  0.00     0.149 HD
ENDBRANCH   6  13
BRANCH   5  18
ATOM     18  N   LIG d   1      -9.420  76.953 117.984  0.00  0.00     0.381 N 
ATOM     19  H   LIG d   1      -9.490  77.256 118.935  0.00  0.00    -0.090 HD
ATOM     20  H   LIG d   1     -10.221  76.383 117.776  0.00  0.00    -0.090 HD
ATOM     21  H   LIG d   1      -9.398  77.743 117.377  0.00  0.00    -0.090 HD
ENDBRANCH   5  18
BRANCH   3  22
ATOM     22  C   LIG d   1      -7.607  72.930 116.122  0.00  0.00     0.382 C 
ATOM     23  O   LIG d   1      -6.738  72.314 115.460  0.00  0.00    -0.241 OA
ATOM     24  O   LIG d   1      -8.664  72.351 116.436  0.00  0.00    -0.241 OA
ENDBRANCH   3  22
TORSDOF 7
ENDMDL
MODEL 2
REMARK VINA RESULT:      -5.4      1.799      4.747
REMARK  7 active torsions:
REMARK  status: ('A' for Active; 'I' for Inactive)
REMARK    1  A    between atoms: C_2  and  C_3 
REMARK    2  A    between atoms: C_3  and  O_6 
REMARK    3  A    between atoms: C_3  and  C_4 
REMARK    4  A    between atoms: C_7  and  O_6 
REMARK    5  A    between atoms: C_9  and  C_10 
REMARK    6  A    between atoms: N_15  and  C_14 
REMARK    7  A    between atoms: N_20  and  C_19 
REMARK       I    between atoms: C_22  and  N_20 
ROOT
ATOM      1  C   LIG d   1      -6.579  76.503 117.246  0.00  0.00     0.161 C 
ATOM      2  C   LIG d   1      -6.451  77.876 117.515  0.00  0.00     0.016 C 
ATOM      3  C   LIG d   1      -7.514  78.677 117.991  0.00  0.00     0.038 C 
ATOM      4  C   LIG d   1      -8.745  78.125 118.377  0.00  0.00     0.028 C 
ATOM      5  C   LIG d   1      -9.081  76.828 117.647  0.00  0.00    -0.047 C 
ATOM      6  C   LIG d   1      -7.882  75.860 117.765  0.00  0.00     0.091 C 
ENDROOT
BRANCH   1   7
ATOM      7  O   LIG d   1      -5.432  75.796 117.758  0.00  0.00    -0.368 OA
BRANCH   7   8
ATOM      8  C   LIG d   1      -4.597  75.138 116.774  0.00  0.00     0.119 C 
BRANCH   8   9
ATOM      9  C   LIG d   1      -3.185  75.744 116.887  0.00  0.00     0.028 C 
ATOM     10  C   LIG d   1      -2.206  74.818 117.628  0.00  0.00     0.006 C 
ENDBRANCH   8   9
BRANCH   8  11
ATOM     11  C   LIG d   1      -5.061  75.453 115.349  0.00  0.00     0.028 C 
ATOM     12  C   LIG d   1      -3.902  75.842 114.417  0.00  0.00     0.006 C 
ENDBRANCH   8  11
ENDBRANCH   7   8
ENDBRANCH   1   7
BRANCH   6  13
ATOM     13  N   LIG d   1      -8.095  74.600 117.007  0.00  0.00    -0.311 N 
ATOM     14  C   LIG d   1      -8.043  73.391 117.566  0.00  0.00     0.210 C 
ATOM     15  C   LIG d   1      -8.272  72.223 116.601  0.00  0.00     0.109 C 
ATOM     16  O   LIG d   1      -7.862  73.177 118.774  0.00  0.00    -0.276 OA
ATOM     17  H   LIG d   1      -8.279  74.682 116.027  0.00  0.00     0.149 HD
ENDBRANCH   6  13
BRANCH   5  18
ATOM     18  N   LIG d   1     -10.319  76.291 118.243  0.00  0.00     0.381 N 
ATOM     19  H   LIG d   1     -10.550  75.417 117.813  0.00  0.00    -0.090 HD
ATOM     20  H   LIG d   1     -11.070  76.935 118.069  0.00  0.00    -0.090 HD
ATOM     21  H   LIG d   1     -10.199  76.165 119.224  0.00  0.00    -0.090 HD
ENDBRANCH   5  18
BRANCH   3  22
ATOM     22  C   LIG d   1      -7.364  80.055 118.049  0.00  0.00     0.382 C 
ATOM     23  O   LIG d   1      -7.721  80.682 119.074  0.00  0.00    -0.241 OA
ATOM     24  O   LIG d   1      -6.917  80.683 117.070  0.00  0.00    -0.241 OA
ENDBRANCH   3  22
TORSDOF 7
ENDMDL
MODEL 3
REMARK VINA RESULT:      -4.9      1.985      4.887
REMARK  7 active torsions:
REMARK  status: ('A' for Active; 'I' for Inactive)
REMARK    1  A    between atoms: C_2  and  C_3 
REMARK    2  A    between atoms: C_3  and  O_6 
REMARK    3  A    between atoms: C_3  and  C_4 
REMARK    4  A    between atoms: C_7  and  O_6 
REMARK    5  A    between atoms: C_9  and  C_10 
REMARK    6  A    between atoms: N_15  and  C_14 
REMARK    7  A    between atoms: N_20  and  C_19 
REMARK       I    between atoms: C_22  and  N_20 
ROOT
ATOM      1  C   LIG d   1      -6.982  76.829 117.844  0.00  0.00     0.161 C 
ATOM      2  C   LIG d   1      -7.027  78.233 117.866  0.00  0.00     0.016 C 
ATOM      3  C   LIG d   1      -8.203  78.970 118.138  0.00  0.00     0.038 C 
ATOM      4  C   LIG d   1      -9.387  78.347 118.558  0.00  0.00     0.028 C 
ATOM      5  C   LIG d   1      -9.527  76.912 118.061  0.00  0.00    -0.047 C 
ATOM      6  C   LIG d   1      -8.238  76.133 118.409  0.00  0.00     0.091 C 
ENDROOT
BRANCH   1   7
ATOM      7  O   LIG d   1      -5.802  76.367 118.530  0.00  0.00    -0.368 OA
BRANCH   7   8
ATOM      8  C   LIG d   1      -4.538  76.634 117.874  0.00  0.00     0.119 C 
BRANCH   8   9
ATOM      9  C   LIG d   1      -4.218  75.425 116.974  0.00  0.00     0.028 C 
ATOM     10  C   LIG d   1      -4.366  75.751 115.479  0.00  0.00     0.006 C 
ENDBRANCH   8   9
BRANCH   8  11
ATOM     11  C   LIG d   1      -3.389  76.702 118.885  0.00  0.00     0.028 C 
ATOM     12  C   LIG d   1      -2.254  75.717 118.564  0.00  0.00     0.006 C 
ENDBRANCH   8  11
ENDBRANCH   7   8
ENDBRANCH   1   7
BRANCH   6  13
ATOM     13  N   LIG d   1      -8.256  74.743 117.883  0.00  0.00    -0.311 N 
ATOM     14  C   LIG d   1      -8.087  74.443 116.597  0.00  0.00     0.210 C 
ATOM     15  C   LIG d   1      -8.162  72.950 116.265  0.00  0.00     0.109 C 
ATOM     16  O   LIG d   1      -7.849  75.270 115.703  0.00  0.00    -0.276 OA
ATOM     17  H   LIG d   1      -8.412  74.007 118.544  0.00  0.00     0.149 HD
ENDBRANCH   6  13
BRANCH   5  18
ATOM     18  N   LIG d   1     -10.735  76.339 118.684  0.00  0.00     0.381 N 
ATOM     19  H   LIG d   1     -11.080  75.586 118.124  0.00  0.00    -0.090 HD
ATOM     20  H   LIG d   1     -11.444  77.049 118.731  0.00  0.00    -0.090 HD
ATOM     21  H   LIG d   1     -10.522  76.011 119.601  0.00  0.00    -0.090 HD
ENDBRANCH   5  18
BRANCH   3  22
ATOM     22  C   LIG d   1      -8.211  80.343 117.952  0.00  0.00     0.382 C 
ATOM     23  O   LIG d   1      -8.814  80.839 116.970  0.00  0.00    -0.241 OA
ATOM     24  O   LIG d   1      -7.586  81.090 118.729  0.00  0.00    -0.241 OA
ENDBRANCH   3  22
TORSDOF 7
ENDMDL
MODEL 4
REMARK VINA RESULT:      -4.9     14.317     17.857
REMARK  7 active torsions:
REMARK  status: ('A' for Active; 'I' for Inactive)
REMARK    1  A    between atoms: C_2  and  C_3 
REMARK    2  A    between atoms: C_3  and  O_6 
REMARK    3  A    between atoms: C_3  and  C_4 
REMARK    4  A    between atoms: C_7  and  O_6 
REMARK    5  A    between atoms: C_9  and  C_10 
REMARK    6  A    between atoms: N_15  and  C_14 
REMARK    7  A    between atoms: N_20  and  C_19 
REMARK       I    between atoms: C_22  and  N_20 
ROOT
ATOM      1  C   LIG d   1      10.725  78.737 114.628  0.00  0.00     0.161 C 
ATOM      2  C   LIG d   1       9.380  78.963 114.966  0.00  0.00     0.016 C 
ATOM      3  C   LIG d   1       8.499  77.936 115.377  0.00  0.00     0.038 C 
ATOM      4  C   LIG d   1       8.946  76.630 115.623  0.00  0.00     0.028 C 
ATOM      5  C   LIG d   1      10.179  76.248 114.811  0.00  0.00    -0.047 C 
ATOM      6  C   LIG d   1      11.259  77.338 114.997  0.00  0.00     0.091 C 
ENDROOT
BRANCH   1   7
ATOM      7  O   LIG d   1      11.554  79.761 115.213  0.00  0.00    -0.368 OA
BRANCH   7   8
ATOM      8  C   LIG d   1      12.250  80.627 114.283  0.00  0.00     0.119 C 
BRANCH   8   9
ATOM      9  C   LIG d   1      13.665  80.867 114.843  0.00  0.00     0.028 C 
ATOM     10  C   LIG d   1      14.610  81.491 113.802  0.00  0.00     0.006 C 
ENDBRANCH   8   9
BRANCH   8  11
ATOM     11  C   LIG d   1      11.599  82.012 114.217  0.00  0.00     0.028 C 
ATOM     12  C   LIG d   1      10.586  82.141 113.069  0.00  0.00     0.006 C 
ENDBRANCH   8  11
ENDBRANCH   7   8
ENDBRANCH   1   7
BRANCH   6  13
ATOM     13  N   LIG d   1      12.468  77.085 114.170  0.00  0.00    -0.311 N 
ATOM     14  C   LIG d   1      13.709  77.140 114.649  0.00  0.00     0.210 C 
ATOM     15  C   LIG d   1      14.812  76.866 113.622  0.00  0.00     0.109 C 
ATOM     16  O   LIG d   1      14.000  77.359 115.835  0.00  0.00    -0.276 OA
ATOM     17  H   LIG d   1      12.322  76.869 113.203  0.00  0.00     0.149 HD
ENDBRANCH   6  13
BRANCH   5  18
ATOM     18  N   LIG d   1      10.618  74.915 115.267  0.00  0.00     0.381 N 
ATOM     19  H   LIG d   1      10.733  74.309 114.479  0.00  0.00    -0.090 HD
ATOM     20  H   LIG d   1       9.908  74.526 115.862  0.00  0.00    -0.090 HD
ATOM     21  H   LIG d   1      11.476  74.991 115.766  0.00  0.00    -0.090 HD
ENDBRANCH   5  18
BRANCH   3  22
ATOM     22  C   LIG d   1       7.145  78.205 115.507  0.00  0.00     0.382 C 
ATOM     23  O   LIG d   1       6.743  78.982 116.405  0.00  0.00    -0.241 OA
ATOM     24  O   LIG d   1       6.316  77.644 114.765  0.00  0.00    -0.241 OA
ENDBRANCH   3  22
TORSDOF 7
ENDMDL
MODEL 5
REMARK VINA RESULT:      -4.9     14.241     17.394
REMARK  7 active torsions:
REMARK  status: ('A' for Active; 'I' for Inactive)
REMARK    1  A    between atoms: C_2  and  C_3 
REMARK    2  A    between atoms: C_3  and  O_6 
REMARK    3  A    between atoms: C_3  and  C_4 
REMARK    4  A    between atoms: C_7  and  O_6 
REMARK    5  A    between atoms: C_9  and  C_10 
REMARK    6  A    between atoms: N_15  and  C_14 
REMARK    7  A    between atoms: N_20  and  C_19 
REMARK       I    between atoms: C_22  and  N_20 
ROOT
ATOM      1  C   LIG d   1      10.322  76.320 115.457  0.00  0.00     0.161 C 
ATOM      2  C   LIG d   1       8.961  76.653 115.550  0.00  0.00     0.016 C 
ATOM      3  C   LIG d   1       8.448  77.930 115.225  0.00  0.00     0.038 C 
ATOM      4  C   LIG d   1       9.247  78.922 114.636  0.00  0.00     0.028 C 
ATOM      5  C   LIG d   1      10.725  78.800 114.993  0.00  0.00    -0.047 C 
ATOM      6  C   LIG d   1      11.191  77.354 114.711  0.00  0.00     0.091 C 
ENDROOT
BRANCH   1   7
ATOM      7  O   LIG d   1      10.466  75.018 114.856  0.00  0.00    -0.368 OA
BRANCH   7   8
ATOM      8  C   LIG d   1      10.839  73.941 115.750  0.00  0.00     0.119 C 
BRANCH   8   9
ATOM      9  C   LIG d   1      11.973  73.147 115.072  0.00  0.00     0.028 C 
ATOM     10  C   LIG d   1      13.367  73.615 115.523  0.00  0.00     0.006 C 
ENDBRANCH   8   9
BRANCH   8  11
ATOM     11  C   LIG d   1       9.693  72.940 115.926  0.00  0.00     0.028 C 
ATOM     12  C   LIG d   1       9.618  72.364 117.349  0.00  0.00     0.006 C 
ENDBRANCH   8  11
ENDBRANCH   7   8
ENDBRANCH   1   7
BRANCH   6  13
ATOM     13  N   LIG d   1      12.604  77.126 115.111  0.00  0.00    -0.311 N 
ATOM     14  C   LIG d   1      13.629  77.214 114.266  0.00  0.00     0.210 C 
ATOM     15  C   LIG d   1      15.002  76.922 114.880  0.00  0.00     0.109 C 
ATOM     16  O   LIG d   1      13.536  77.539 113.073  0.00  0.00    -0.276 OA
ATOM     17  H   LIG d   1      12.774  76.888 116.069  0.00  0.00     0.149 HD
ENDBRANCH   6  13
BRANCH   5  18
ATOM     18  N   LIG d   1      11.458  79.808 114.204  0.00  0.00     0.381 N 
ATOM     19  H   LIG d   1      10.945  80.667 114.192  0.00  0.00    -0.090 HD
ATOM     20  H   LIG d   1      11.546  79.480 113.259  0.00  0.00    -0.090 HD
ATOM     21  H   LIG d   1      12.361  79.958 114.597  0.00  0.00    -0.090 HD
ENDBRANCH   5  18
BRANCH   3  22
ATOM     22  C   LIG d   1       7.130  78.239 115.526  0.00  0.00     0.382 C 
ATOM     23  O   LIG d   1       6.202  77.786 114.815  0.00  0.00    -0.241 OA
ATOM     24  O   LIG d   1       6.861  79.001 116.474  0.00  0.00    -0.241 OA
ENDBRANCH   3  22
TORSDOF 7
ENDMDL
MODEL 6
REMARK VINA RESULT:      -4.7      2.053      4.966
REMARK  7 active torsions:
REMARK  status: ('A' for Active; 'I' for Inactive)
REMARK    1  A    between atoms: C_2  and  C_3 
REMARK    2  A    between atoms: C_3  and  O_6 
REMARK    3  A    between atoms: C_3  and  C_4 
REMARK    4  A    between atoms: C_7  and  O_6 
REMARK    5  A    between atoms: C_9  and  C_10 
REMARK    6  A    between atoms: N_15  and  C_14 
REMARK    7  A    between atoms: N_20  and  C_19 
REMARK       I    between atoms: C_22  and  N_20 
ROOT
ATOM      1  C   LIG d   1      -4.748  76.155 116.406  0.00  0.00     0.161 C 
ATOM      2  C   LIG d   1      -4.272  77.460 116.614  0.00  0.00     0.016 C 
ATOM      3  C   LIG d   1      -5.033  78.476 117.236  0.00  0.00     0.038 C 
ATOM      4  C   LIG d   1      -6.275  78.212 117.833  0.00  0.00     0.028 C 
ATOM      5  C   LIG d   1      -7.011  77.034 117.205  0.00  0.00    -0.047 C 
ATOM      6  C   LIG d   1      -6.058  75.818 117.150  0.00  0.00     0.091 C 
ENDROOT
BRANCH   1   7
ATOM      7  O   LIG d   1      -3.722  75.201 116.743  0.00  0.00    -0.368 OA
BRANCH   7   8
ATOM      8  C   LIG d   1      -2.432  75.754 117.103  0.00  0.00     0.119 C 
BRANCH   8   9
ATOM      9  C   LIG d   1      -1.401  75.221 116.089  0.00  0.00     0.028 C 
ATOM     10  C   LIG d   1      -1.190  76.182 114.907  0.00  0.00     0.006 C 
ENDBRANCH   8   9
BRANCH   8  11
ATOM     11  C   LIG d   1      -1.964  75.236 118.466  0.00  0.00     0.028 C 
ATOM     12  C   LIG d   1      -1.105  76.257 119.229  0.00  0.00     0.006 C 
ENDBRANCH   8  11
ENDBRANCH   7   8
ENDBRANCH   1   7
BRANCH   6  13
ATOM     13  N   LIG d   1      -6.671  74.646 116.473  0.00  0.00    -0.311 N 
ATOM     14  C   LIG d   1      -7.376  73.715 117.114  0.00  0.00     0.210 C 
ATOM     15  C   LIG d   1      -7.904  72.581 116.229  0.00  0.00     0.109 C 
ATOM     16  O   LIG d   1      -7.642  73.738 118.325  0.00  0.00    -0.276 OA
ATOM     17  H   LIG d   1      -6.532  74.566 115.485  0.00  0.00     0.149 HD
ENDBRANCH   6  13
BRANCH   5  18
ATOM     18  N   LIG d   1      -8.221  76.784 118.010  0.00  0.00     0.381 N 
ATOM     19  H   LIG d   1      -8.320  75.802 118.178  0.00  0.00    -0.090 HD
ATOM     20  H   LIG d   1      -9.025  77.098 117.495  0.00  0.00    -0.090 HD
ATOM     21  H   LIG d   1      -8.162  77.272 118.876  0.00  0.00    -0.090 HD
ENDBRANCH   5  18
BRANCH   3  22
ATOM     22  C   LIG d   1      -4.570  79.783 117.230  0.00  0.00     0.382 C 
ATOM     23  O   LIG d   1      -4.513  80.433 118.302  0.00  0.00    -0.241 OA
ATOM     24  O   LIG d   1      -4.250  80.335 116.160  0.00  0.00    -0.241 OA
ENDBRANCH   3  22
TORSDOF 7
ENDMDL
MODEL 7
REMARK VINA RESULT:      -4.6     17.900     20.570
REMARK  7 active torsions:
REMARK  status: ('A' for Active; 'I' for Inactive)
REMARK    1  A    between atoms: C_2  and  C_3 
REMARK    2  A    between atoms: C_3  and  O_6 
REMARK    3  A    between atoms: C_3  and  C_4 
REMARK    4  A    between atoms: C_7  and  O_6 
REMARK    5  A    between atoms: C_9  and  C_10 
REMARK    6  A    between atoms: N_15  and  C_14 
REMARK    7  A    between atoms: N_20  and  C_19 
REMARK       I    between atoms: C_22  and  N_20 
ROOT
ATOM      1  C   LIG d   1     -23.580  83.612 114.181  0.00  0.00     0.161 C 
ATOM      2  C   LIG d   1     -22.596  84.604 114.328  0.00  0.00     0.016 C 
ATOM      3  C   LIG d   1     -22.876  85.989 114.287  0.00  0.00     0.038 C 
ATOM      4  C   LIG d   1     -24.189  86.479 114.248  0.00  0.00     0.028 C 
ATOM      5  C   LIG d   1     -25.175  85.519 113.592  0.00  0.00    -0.047 C 
ATOM      6  C   LIG d   1     -25.033  84.127 114.249  0.00  0.00     0.091 C 
ENDROOT
BRANCH   1   7
ATOM      7  O   LIG d   1     -23.372  82.570 115.155  0.00  0.00    -0.368 OA
BRANCH   7   8
ATOM      8  C   LIG d   1     -24.047  82.741 116.426  0.00  0.00     0.119 C 
BRANCH   8   9
ATOM      9  C   LIG d   1     -22.964  82.953 117.501  0.00  0.00     0.028 C 
ATOM     10  C   LIG d   1     -21.608  82.351 117.094  0.00  0.00     0.006 C 
ENDBRANCH   8   9
BRANCH   8  11
ATOM     11  C   LIG d   1     -24.787  81.465 116.841  0.00  0.00     0.028 C 
ATOM     12  C   LIG d   1     -24.771  80.385 115.747  0.00  0.00     0.006 C 
ENDBRANCH   8  11
ENDBRANCH   7   8
ENDBRANCH   1   7
BRANCH   6  13
ATOM     13  N   LIG d   1     -25.903  83.106 113.609  0.00  0.00    -0.311 N 
ATOM     14  C   LIG d   1     -27.106  82.773 114.072  0.00  0.00     0.210 C 
ATOM     15  C   LIG d   1     -27.828  81.683 113.274  0.00  0.00     0.109 C 
ATOM     16  O   LIG d   1     -27.657  83.299 115.051  0.00  0.00    -0.276 OA
ATOM     17  H   LIG d   1     -25.546  82.651 112.791  0.00  0.00     0.149 HD
ENDBRANCH   6  13
BRANCH   5  18
ATOM     18  N   LIG d   1     -26.525  86.094 113.742  0.00  0.00     0.381 N 
ATOM     19  H   LIG d   1     -27.170  85.379 114.014  0.00  0.00    -0.090 HD
ATOM     20  H   LIG d   1     -26.821  86.465 112.856  0.00  0.00    -0.090 HD
ATOM     21  H   LIG d   1     -26.513  86.818 114.426  0.00  0.00    -0.090 HD
ENDBRANCH   5  18
BRANCH   3  22
ATOM     22  C   LIG d   1     -21.831  86.900 114.246  0.00  0.00     0.382 C 
ATOM     23  O   LIG d   1     -20.870  86.716 113.460  0.00  0.00    -0.241 OA
ATOM     24  O   LIG d   1     -21.816  87.879 115.015  0.00  0.00    -0.241 OA
ENDBRANCH   3  22
TORSDOF 7
ENDMDL
MODEL 8
REMARK VINA RESULT:      -4.6      4.768      7.201
REMARK  7 active torsions:
REMARK  status: ('A' for Active; 'I' for Inactive)
REMARK    1  A    between atoms: C_2  and  C_3 
REMARK    2  A    between atoms: C_3  and  O_6 
REMARK    3  A    between atoms: C_3  and  C_4 
REMARK    4  A    between atoms: C_7  and  O_6 
REMARK    5  A    between atoms: C_9  and  C_10 
REMARK    6  A    between atoms: N_15  and  C_14 
REMARK    7  A    between atoms: N_20  and  C_19 
REMARK       I    between atoms: C_22  and  N_20 
ROOT
ATOM      1  C   LIG d   1      -2.086  78.830 115.394  0.00  0.00     0.161 C 
ATOM      2  C   LIG d   1      -2.355  79.740 114.358  0.00  0.00     0.016 C 
ATOM      3  C   LIG d   1      -2.216  81.140 114.496  0.00  0.00     0.038 C 
ATOM      4  C   LIG d   1      -1.649  81.719 115.641  0.00  0.00     0.028 C 
ATOM      5  C   LIG d   1      -1.834  80.879 116.900  0.00  0.00    -0.047 C 
ATOM      6  C   LIG d   1      -1.360  79.436 116.614  0.00  0.00     0.091 C 
ENDROOT
BRANCH   1   7
ATOM      7  O   LIG d   1      -1.346  77.707 114.878  0.00  0.00    -0.368 OA
BRANCH   7   8
ATOM      8  C   LIG d   1      -2.111  76.504 114.618  0.00  0.00     0.119 C 
BRANCH   8   9
ATOM      9  C   LIG d   1      -3.403  76.589 115.453  0.00  0.00     0.028 C 
ATOM     10  C   LIG d   1      -4.454  75.555 115.014  0.00  0.00     0.006 C 
ENDBRANCH   8   9
BRANCH   8  11
ATOM     11  C   LIG d   1      -1.380  75.258 115.127  0.00  0.00     0.028 C 
ATOM     12  C   LIG d   1       0.083  75.538 115.504  0.00  0.00     0.006 C 
ENDBRANCH   8  11
ENDBRANCH   7   8
ENDBRANCH   1   7
BRANCH   6  13
ATOM     13  N   LIG d   1      -1.585  78.527 117.768  0.00  0.00    -0.311 N 
ATOM     14  C   LIG d   1      -0.603  77.882 118.395  0.00  0.00     0.210 C 
ATOM     15  C   LIG d   1      -1.055  76.979 119.547  0.00  0.00     0.109 C 
ATOM     16  O   LIG d   1       0.603  77.998 118.128  0.00  0.00    -0.276 OA
ATOM     17  H   LIG d   1      -2.531  78.399 118.071  0.00  0.00     0.149 HD
ENDBRANCH   6  13
BRANCH   5  18
ATOM     18  N   LIG d   1      -1.078  81.531 117.986  0.00  0.00     0.381 N 
ATOM     19  H   LIG d   1      -1.332  81.128 118.865  0.00  0.00    -0.090 HD
ATOM     20  H   LIG d   1      -1.315  82.508 118.006  0.00  0.00    -0.090 HD
ATOM     21  H   LIG d   1      -0.099  81.423 117.833  0.00  0.00    -0.090 HD
ENDBRANCH   5  18
BRANCH   3  22
ATOM     22  C   LIG d   1      -2.684  81.979 113.496  0.00  0.00     0.382 C 
ATOM     23  O   LIG d   1      -2.141  83.094 113.308  0.00  0.00    -0.241 OA
ATOM     24  O   LIG d   1      -3.670  81.654 112.808  0.00  0.00    -0.241 OA
ENDBRANCH   3  22
TORSDOF 7
ENDMDL
MODEL 9
REMARK VINA RESULT:      -4.5      2.231      2.785
REMARK  7 active torsions:
REMARK  status: ('A' for Active; 'I' for Inactive)
REMARK    1  A    between atoms: C_2  and  C_3 
REMARK    2  A    between atoms: C_3  and  O_6 
REMARK    3  A    between atoms: C_3  and  C_4 
REMARK    4  A    between atoms: C_7  and  O_6 
REMARK    5  A    between atoms: C_9  and  C_10 
REMARK    6  A    between atoms: N_15  and  C_14 
REMARK    7  A    between atoms: N_20  and  C_19 
REMARK       I    between atoms: C_22  and  N_20 
ROOT
ATOM      1  C   LIG d   1      -3.477  76.478 117.273  0.00  0.00     0.161 C 
ATOM      2  C   LIG d   1      -4.289  75.385 116.929  0.00  0.00     0.016 C 
ATOM      3  C   LIG d   1      -5.696  75.466 116.816  0.00  0.00     0.038 C 
ATOM      4  C   LIG d   1      -6.377  76.690 116.893  0.00  0.00     0.028 C 
ATOM      5  C   LIG d   1      -5.653  77.734 117.738  0.00  0.00    -0.047 C 
ATOM      6  C   LIG d   1      -4.190  77.846 117.252  0.00  0.00     0.091 C 
ENDROOT
BRANCH   1   7
ATOM      7  O   LIG d   1      -2.312  76.508 116.425  0.00  0.00    -0.368 OA
BRANCH   7   8
ATOM      8  C   LIG d   1      -2.504  76.053 115.063  0.00  0.00     0.119 C 
BRANCH   8   9
ATOM      9  C   LIG d   1      -1.209  75.340 114.626  0.00  0.00     0.028 C 
ATOM     10  C   LIG d   1      -0.403  74.804 115.820  0.00  0.00     0.006 C 
ENDBRANCH   8   9
BRANCH   8  11
ATOM     11  C   LIG d   1      -2.662  77.233 114.099  0.00  0.00     0.028 C 
ATOM     12  C   LIG d   1      -1.739  78.412 114.444  0.00  0.00     0.006 C 
ENDBRANCH   8  11
ENDBRANCH   7   8
ENDBRANCH   1   7
BRANCH   6  13
ATOM     13  N   LIG d   1      -3.388  78.785 118.080  0.00  0.00    -0.311 N 
ATOM     14  C   LIG d   1      -3.188  80.061 117.755  0.00  0.00     0.210 C 
ATOM     15  C   LIG d   1      -2.314  80.848 118.737  0.00  0.00     0.109 C 
ATOM     16  O   LIG d   1      -3.677  80.624 116.765  0.00  0.00    -0.276 OA
ATOM     17  H   LIG d   1      -2.980  78.419 118.918  0.00  0.00     0.149 HD
ENDBRANCH   6  13
BRANCH   5  18
ATOM     18  N   LIG d   1      -6.401  79.000 117.620  0.00  0.00     0.381 N 
ATOM     19  H   LIG d   1      -7.164  78.884 116.983  0.00  0.00    -0.090 HD
ATOM     20  H   LIG d   1      -5.788  79.706 117.254  0.00  0.00    -0.090 HD
ATOM     21  H   LIG d   1      -6.744  79.278 118.513  0.00  0.00    -0.090 HD
ENDBRANCH   5  18
BRANCH   3  22
ATOM     22  C   LIG d   1      -6.441  74.307 116.664  0.00  0.00     0.382 C 
ATOM     23  O   LIG d   1      -6.423  73.689 115.572  0.00  0.00    -0.241 OA
ATOM     24  O   LIG d   1      -7.166  73.895 117.589  0.00  0.00    -0.241 OA
ENDBRANCH   3  22
TORSDOF 7
ENDMDL
