MODEL 1
REMARK VINA RESULT:      -5.5      0.000      0.000
REMARK  7 active torsions:
REMARK  status: ('A' for Active; 'I' for Inactive)
REMARK    1  A    between atoms: C_2  and  C_3 
REMARK    2  A    between atoms: C_3  and  O_6 
REMARK    3  A    between atoms: C_3  and  C_4 
REMARK    4  A    between atoms: C_7  and  O_6 
REMARK    5  A    between atoms: C_9  and  C_10 
REMARK    6  A    between atoms: N_15  and  C_14 
REMARK    7  A    between atoms: N_20  and  C_19 
REMARK       I    between atoms: C_22  and  N_20 
ROOT
ATOM      1  C   LIG d   1      -7.035  77.231 117.544  0.00  0.00     0.161 C 
ATOM      2  C   LIG d   1      -8.314  77.764 117.776  0.00  0.00     0.016 C 
ATOM      3  C   LIG d   1      -8.591  79.150 117.779  0.00  0.00     0.038 C 
ATOM      4  C   LIG d   1      -7.630  80.099 117.398  0.00  0.00     0.028 C 
ATOM      5  C   LIG d   1      -6.197  79.642 117.646  0.00  0.00    -0.047 C 
ATOM      6  C   LIG d   1      -5.999  78.245 117.016  0.00  0.00     0.091 C 
ENDROOT
BRANCH   1   7
ATOM      7  O   LIG d   1      -7.131  76.102 116.653  0.00  0.00    -0.368 OA
BRANCH   7   8
ATOM      8  C   LIG d   1      -6.700  74.828 117.190  0.00  0.00     0.119 C 
BRANCH   8   9
ATOM      9  C   LIG d   1      -5.824  74.147 116.121  0.00  0.00     0.028 C 
ATOM     10  C   LIG d   1      -5.627  75.027 114.875  0.00  0.00     0.006 C 
ENDBRANCH   8   9
BRANCH   8  11
ATOM     11  C   LIG d   1      -7.887  73.883 117.403  0.00  0.00     0.028 C 
ATOM     12  C   LIG d   1      -7.618  72.462 116.883  0.00  0.00     0.006 C 
ENDBRANCH   8  11
ENDBRANCH   7   8
ENDBRANCH   1   7
BRANCH   6  13
ATOM     13  N   LIG d   1      -4.647  77.688 117.286  0.00  0.00    -0.311 N 
ATOM     14  C   LIG d   1      -3.629  77.790 116.434  0.00  0.00     0.210 C 
ATOM     15  C   LIG d   1      -2.328  77.128 116.899  0.00  0.00     0.109 C 
ATOM     16  O   LIG d   1      -3.670  78.393 115.351  0.00  0.00    -0.276 OA
ATOM     17  H   LIG d   1      -4.517  77.209 118.156  0.00  0.00     0.149 HD
ENDBRANCH   6  13
BRANCH   5  18
ATOM     18  N   LIG d   1      -5.299  80.665 117.078  0.00  0.00     0.381 N 
ATOM     19  H   LIG d   1      -5.769  81.548 117.044  0.00  0.00    -0.090 HD
ATOM     20  H   LIG d   1      -5.057  80.400 116.139  0.00  0.00    -0.090 HD
ATOM     21  H   LIG d   1      -4.474  80.741 117.632  0.00  0.00    -0.090 HD
ENDBRANCH   5  18
BRANCH   3  22
ATOM     22  C   LIG d   1      -9.830  79.603 118.206  0.00  0.00     0.382 C 
ATOM     23  O   LIG d   1     -10.536  78.885 118.955  0.00  0.00    -0.241 OA
ATOM     24  O   LIG d   1     -10.271  80.700 117.815  0.00  0.00    -0.241 OA
ENDBRANCH   3  22
TORSDOF 7
ENDMDL
MODEL 2
REMARK VINA RESULT:      -5.1      2.131      2.935
REMARK  7 active torsions:
REMARK  status: ('A' for Active; 'I' for Inactive)
REMARK    1  A    between atoms: C_2  and  C_3 
REMARK    2  A    between atoms: C_3  and  O_6 
REMARK    3  A    between atoms: C_3  and  C_4 
REMARK    4  A    between atoms: C_7  and  O_6 
REMARK    5  A    between atoms: C_9  and  C_10 
REMARK    6  A    between atoms: N_15  and  C_14 
REMARK    7  A    between atoms: N_20  and  C_19 
REMARK       I    between atoms: C_22  and  N_20 
ROOT
ATOM      1  C   LIG d   1      -5.652  78.647 117.299  0.00  0.00     0.161 C 
ATOM      2  C   LIG d   1      -6.920  78.046 117.379  0.00  0.00     0.016 C 
ATOM      3  C   LIG d   1      -8.108  78.768 117.637  0.00  0.00     0.038 C 
ATOM      4  C   LIG d   1      -8.129  80.170 117.682  0.00  0.00     0.028 C 
ATOM      5  C   LIG d   1      -6.799  80.782 118.109  0.00  0.00    -0.047 C 
ATOM      6  C   LIG d   1      -5.670  80.188 117.236  0.00  0.00     0.091 C 
ENDROOT
BRANCH   1   7
ATOM      7  O   LIG d   1      -4.926  78.107 116.177  0.00  0.00    -0.368 OA
BRANCH   7   8
ATOM      8  C   LIG d   1      -4.874  76.662 116.086  0.00  0.00     0.119 C 
BRANCH   8   9
ATOM      9  C   LIG d   1      -3.693  76.187 116.955  0.00  0.00     0.028 C 
ATOM     10  C   LIG d   1      -3.504  74.662 116.904  0.00  0.00     0.006 C 
ENDBRANCH   8   9
BRANCH   8  11
ATOM     11  C   LIG d   1      -4.541  76.205 114.663  0.00  0.00     0.028 C 
ATOM     12  C   LIG d   1      -5.714  75.485 113.979  0.00  0.00     0.006 C 
ENDBRANCH   8  11
ENDBRANCH   7   8
ENDBRANCH   1   7
BRANCH   6  13
ATOM     13  N   LIG d   1      -4.325  80.671 117.643  0.00  0.00    -0.311 N 
ATOM     14  C   LIG d   1      -3.580  81.484 116.897  0.00  0.00     0.210 C 
ATOM     15  C   LIG d   1      -2.216  81.843 117.495  0.00  0.00     0.109 C 
ATOM     16  O   LIG d   1      -3.933  81.968 115.811  0.00  0.00    -0.276 OA
ATOM     17  H   LIG d   1      -3.974  80.352 118.525  0.00  0.00     0.149 HD
ENDBRANCH   6  13
BRANCH   5  18
ATOM     18  N   LIG d   1      -6.920  82.246 117.981  0.00  0.00     0.381 N 
ATOM     19  H   LIG d   1      -7.704  82.472 117.401  0.00  0.00    -0.090 HD
ATOM     20  H   LIG d   1      -6.090  82.604 117.542  0.00  0.00    -0.090 HD
ATOM     21  H   LIG d   1      -7.033  82.659 118.880  0.00  0.00    -0.090 HD
ENDBRANCH   5  18
BRANCH   3  22
ATOM     22  C   LIG d   1      -9.287  78.084 117.892  0.00  0.00     0.382 C 
ATOM     23  O   LIG d   1      -9.404  76.885 117.539  0.00  0.00    -0.241 OA
ATOM     24  O   LIG d   1     -10.249  78.662 118.430  0.00  0.00    -0.241 OA
ENDBRANCH   3  22
TORSDOF 7
ENDMDL
MODEL 3
REMARK VINA RESULT:      -5.0     12.776     15.354
REMARK  7 active torsions:
REMARK  status: ('A' for Active; 'I' for Inactive)
REMARK    1  A    between atoms: C_2  and  C_3 
REMARK    2  A    between atoms: C_3  and  O_6 
REMARK    3  A    between atoms: C_3  and  C_4 
REMARK    4  A    between atoms: C_7  and  O_6 
REMARK    5  A    between atoms: C_9  and  C_10 
REMARK    6  A    between atoms: N_15  and  C_14 
REMARK    7  A    between atoms: N_20  and  C_19 
REMARK       I    between atoms: C_22  and  N_20 
ROOT
ATOM      1  C   LIG d   1       3.054  88.997 115.966  0.00  0.00     0.161 C 
ATOM      2  C   LIG d   1       3.551  90.138 116.616  0.00  0.00     0.016 C 
ATOM      3  C   LIG d   1       2.727  91.083 117.269  0.00  0.00     0.038 C 
ATOM      4  C   LIG d   1       1.351  90.870 117.446  0.00  0.00     0.028 C 
ATOM      5  C   LIG d   1       0.732  89.984 116.370  0.00  0.00    -0.047 C 
ATOM      6  C   LIG d   1       1.567  88.690 116.244  0.00  0.00     0.091 C 
ENDROOT
BRANCH   1   7
ATOM      7  O   LIG d   1       3.871  87.855 116.290  0.00  0.00    -0.368 OA
BRANCH   7   8
ATOM      8  C   LIG d   1       4.933  87.544 115.355  0.00  0.00     0.119 C 
BRANCH   8   9
ATOM      9  C   LIG d   1       4.456  87.975 113.954  0.00  0.00     0.028 C 
ATOM     10  C   LIG d   1       5.519  88.790 113.198  0.00  0.00     0.006 C 
ENDBRANCH   8   9
BRANCH   8  11
ATOM     11  C   LIG d   1       5.165  86.033 115.257  0.00  0.00     0.028 C 
ATOM     12  C   LIG d   1       4.276  85.361 114.198  0.00  0.00     0.006 C 
ENDBRANCH   8  11
ENDBRANCH   7   8
ENDBRANCH   1   7
BRANCH   6  13
ATOM     13  N   LIG d   1       1.079  87.804 115.155  0.00  0.00    -0.311 N 
ATOM     14  C   LIG d   1       0.840  86.504 115.319  0.00  0.00     0.210 C 
ATOM     15  C   LIG d   1       0.361  85.772 114.062  0.00  0.00     0.109 C 
ATOM     16  O   LIG d   1       0.948  85.896 116.394  0.00  0.00    -0.276 OA
ATOM     17  H   LIG d   1       0.935  88.223 114.257  0.00  0.00     0.149 HD
ENDBRANCH   6  13
BRANCH   5  18
ATOM     18  N   LIG d   1      -0.670  89.733 116.753  0.00  0.00     0.381 N 
ATOM     19  H   LIG d   1      -0.724  89.541 117.734  0.00  0.00    -0.090 HD
ATOM     20  H   LIG d   1      -1.003  88.926 116.255  0.00  0.00    -0.090 HD
ATOM     21  H   LIG d   1      -1.232  90.525 116.531  0.00  0.00    -0.090 HD
ENDBRANCH   5  18
BRANCH   3  22
ATOM     22  C   LIG d   1       3.271  92.277 117.718  0.00  0.00     0.382 C 
ATOM     23  O   LIG d   1       3.029  92.678 118.882  0.00  0.00    -0.241 OA
ATOM     24  O   LIG d   1       3.965  92.980 116.958  0.00  0.00    -0.241 OA
ENDBRANCH   3  22
TORSDOF 7
ENDMDL
MODEL 4
REMARK VINA RESULT:      -4.9      3.099      5.487
REMARK  7 active torsions:
REMARK  status: ('A' for Active; 'I' for Inactive)
REMARK    1  A    between atoms: C_2  and  C_3 
REMARK    2  A    between atoms: C_3  and  O_6 
REMARK    3  A    between atoms: C_3  and  C_4 
REMARK    4  A    between atoms: C_7  and  O_6 
REMARK    5  A    between atoms: C_9  and  C_10 
REMARK    6  A    between atoms: N_15  and  C_14 
REMARK    7  A    between atoms: N_20  and  C_19 
REMARK       I    between atoms: C_22  and  N_20 
ROOT
ATOM      1  C   LIG d   1      -4.345  75.214 116.277  0.00  0.00     0.161 C 
ATOM      2  C   LIG d   1      -3.878  76.538 116.303  0.00  0.00     0.016 C 
ATOM      3  C   LIG d   1      -4.721  77.658 116.493  0.00  0.00     0.038 C 
ATOM      4  C   LIG d   1      -6.076  77.517 116.824  0.00  0.00     0.028 C 
ATOM      5  C   LIG d   1      -6.694  76.220 116.312  0.00  0.00    -0.047 C 
ATOM      6  C   LIG d   1      -5.804  75.034 116.748  0.00  0.00     0.091 C 
ENDROOT
BRANCH   1   7
ATOM      7  O   LIG d   1      -3.464  74.370 117.045  0.00  0.00    -0.368 OA
BRANCH   7   8
ATOM      8  C   LIG d   1      -2.077  74.786 117.107  0.00  0.00     0.119 C 
BRANCH   8   9
ATOM      9  C   LIG d   1      -1.231  73.676 116.453  0.00  0.00     0.028 C 
ATOM     10  C   LIG d   1      -1.229  73.767 114.918  0.00  0.00     0.006 C 
ENDBRANCH   8   9
BRANCH   8  11
ATOM     11  C   LIG d   1      -1.586  74.872 118.555  0.00  0.00     0.028 C 
ATOM     12  C   LIG d   1      -0.074  75.130 118.656  0.00  0.00     0.006 C 
ENDBRANCH   8  11
ENDBRANCH   7   8
ENDBRANCH   1   7
BRANCH   6  13
ATOM     13  N   LIG d   1      -6.291  73.735 116.216  0.00  0.00    -0.311 N 
ATOM     14  C   LIG d   1      -7.202  72.985 116.833  0.00  0.00     0.210 C 
ATOM     15  C   LIG d   1      -7.548  71.672 116.123  0.00  0.00     0.109 C 
ATOM     16  O   LIG d   1      -7.780  73.297 117.885  0.00  0.00    -0.276 OA
ATOM     17  H   LIG d   1      -5.897  73.420 115.351  0.00  0.00     0.149 HD
ENDBRANCH   6  13
BRANCH   5  18
ATOM     18  N   LIG d   1      -8.067  76.139 116.844  0.00  0.00     0.381 N 
ATOM     19  H   LIG d   1      -8.092  75.512 117.623  0.00  0.00    -0.090 HD
ATOM     20  H   LIG d   1      -8.673  75.778 116.128  0.00  0.00    -0.090 HD
ATOM     21  H   LIG d   1      -8.377  77.043 117.126  0.00  0.00    -0.090 HD
ENDBRANCH   5  18
BRANCH   3  22
ATOM     22  C   LIG d   1      -4.216  78.937 116.313  0.00  0.00     0.382 C 
ATOM     23  O   LIG d   1      -3.389  79.161 115.396  0.00  0.00    -0.241 OA
ATOM     24  O   LIG d   1      -4.543  79.859 117.083  0.00  0.00    -0.241 OA
ENDBRANCH   3  22
TORSDOF 7
ENDMDL
MODEL 5
REMARK VINA RESULT:      -4.9      2.425      4.706
REMARK  7 active torsions:
REMARK  status: ('A' for Active; 'I' for Inactive)
REMARK    1  A    between atoms: C_2  and  C_3 
REMARK    2  A    between atoms: C_3  and  O_6 
REMARK    3  A    between atoms: C_3  and  C_4 
REMARK    4  A    between atoms: C_7  and  O_6 
REMARK    5  A    between atoms: C_9  and  C_10 
REMARK    6  A    between atoms: N_15  and  C_14 
REMARK    7  A    between atoms: N_20  and  C_19 
REMARK       I    between atoms: C_22  and  N_20 
ROOT
ATOM      1  C   LIG d   1      -5.711  76.685 116.535  0.00  0.00     0.161 C 
ATOM      2  C   LIG d   1      -7.018  77.074 116.870  0.00  0.00     0.016 C 
ATOM      3  C   LIG d   1      -8.049  76.156 117.177  0.00  0.00     0.038 C 
ATOM      4  C   LIG d   1      -7.801  74.783 117.318  0.00  0.00     0.028 C 
ATOM      5  C   LIG d   1      -6.613  74.295 116.496  0.00  0.00    -0.047 C 
ATOM      6  C   LIG d   1      -5.393  75.197 116.792  0.00  0.00     0.091 C 
ENDROOT
BRANCH   1   7
ATOM      7  O   LIG d   1      -4.761  77.526 117.220  0.00  0.00    -0.368 OA
BRANCH   7   8
ATOM      8  C   LIG d   1      -4.228  78.637 116.457  0.00  0.00     0.119 C 
BRANCH   8   9
ATOM      9  C   LIG d   1      -2.723  78.378 116.252  0.00  0.00     0.028 C 
ATOM     10  C   LIG d   1      -2.044  77.827 117.517  0.00  0.00     0.006 C 
ENDBRANCH   8   9
BRANCH   8  11
ATOM     11  C   LIG d   1      -4.310  79.946 117.249  0.00  0.00     0.028 C 
ATOM     12  C   LIG d   1      -5.708  80.582 117.204  0.00  0.00     0.006 C 
ENDBRANCH   8  11
ENDBRANCH   7   8
ENDBRANCH   1   7
BRANCH   6  13
ATOM     13  N   LIG d   1      -4.210  74.841 115.966  0.00  0.00    -0.311 N 
ATOM     14  C   LIG d   1      -3.050  74.439 116.482  0.00  0.00     0.210 C 
ATOM     15  C   LIG d   1      -1.954  74.141 115.454  0.00  0.00     0.109 C 
ATOM     16  O   LIG d   1      -2.834  74.272 117.692  0.00  0.00    -0.276 OA
ATOM     17  H   LIG d   1      -4.308  74.918 114.973  0.00  0.00     0.149 HD
ENDBRANCH   6  13
BRANCH   5  18
ATOM     18  N   LIG d   1      -6.383  72.880 116.843  0.00  0.00     0.381 N 
ATOM     19  H   LIG d   1      -7.185  72.511 117.314  0.00  0.00    -0.090 HD
ATOM     20  H   LIG d   1      -5.597  72.821 117.466  0.00  0.00    -0.090 HD
ATOM     21  H   LIG d   1      -6.201  72.351 116.018  0.00  0.00    -0.090 HD
ENDBRANCH   5  18
BRANCH   3  22
ATOM     22  C   LIG d   1      -9.354  76.607 117.307  0.00  0.00     0.382 C 
ATOM     23  O   LIG d   1      -9.578  77.765 117.735  0.00  0.00    -0.241 OA
ATOM     24  O   LIG d   1     -10.311  75.854 117.045  0.00  0.00    -0.241 OA
ENDBRANCH   3  22
TORSDOF 7
ENDMDL
MODEL 6
REMARK VINA RESULT:      -4.8     12.249     14.304
REMARK  7 active torsions:
REMARK  status: ('A' for Active; 'I' for Inactive)
REMARK    1  A    between atoms: C_2  and  C_3 
REMARK    2  A    between atoms: C_3  and  O_6 
REMARK    3  A    between atoms: C_3  and  C_4 
REMARK    4  A    between atoms: C_7  and  O_6 
REMARK    5  A    between atoms: C_9  and  C_10 
REMARK    6  A    between atoms: N_15  and  C_14 
REMARK    7  A    between atoms: N_20  and  C_19 
REMARK       I    between atoms: C_22  and  N_20 
ROOT
ATOM      1  C   LIG d   1       1.867  88.398 115.972  0.00  0.00     0.161 C 
ATOM      2  C   LIG d   1       0.597  88.677 116.504  0.00  0.00     0.016 C 
ATOM      3  C   LIG d   1       0.307  89.837 117.259  0.00  0.00     0.038 C 
ATOM      4  C   LIG d   1       1.237  90.877 117.406  0.00  0.00     0.028 C 
ATOM      5  C   LIG d   1       2.686  90.412 117.314  0.00  0.00    -0.047 C 
ATOM      6  C   LIG d   1       2.864  89.575 116.028  0.00  0.00     0.091 C 
ENDROOT
BRANCH   1   7
ATOM      7  O   LIG d   1       1.735  87.917 114.620  0.00  0.00    -0.368 OA
BRANCH   7   8
ATOM      8  C   LIG d   1       1.888  86.488 114.435  0.00  0.00     0.119 C 
BRANCH   8   9
ATOM      9  C   LIG d   1       2.889  86.276 113.282  0.00  0.00     0.028 C 
ATOM     10  C   LIG d   1       4.126  85.475 113.719  0.00  0.00     0.006 C 
ENDBRANCH   8   9
BRANCH   8  11
ATOM     11  C   LIG d   1       0.582  85.844 113.961  0.00  0.00     0.028 C 
ATOM     12  C   LIG d   1      -0.301  85.364 115.124  0.00  0.00     0.006 C 
ENDBRANCH   8  11
ENDBRANCH   7   8
ENDBRANCH   1   7
BRANCH   6  13
ATOM     13  N   LIG d   1       4.233  89.010 115.903  0.00  0.00    -0.311 N 
ATOM     14  C   LIG d   1       4.926  89.012 114.766  0.00  0.00     0.210 C 
ATOM     15  C   LIG d   1       6.310  88.361 114.852  0.00  0.00     0.109 C 
ATOM     16  O   LIG d   1       4.539  89.519 113.703  0.00  0.00    -0.276 OA
ATOM     17  H   LIG d   1       4.636  88.606 116.726  0.00  0.00     0.149 HD
ENDBRANCH   6  13
BRANCH   5  18
ATOM     18  N   LIG d   1       3.542  91.613 117.346  0.00  0.00     0.381 N 
ATOM     19  H   LIG d   1       4.505  91.342 117.368  0.00  0.00    -0.090 HD
ATOM     20  H   LIG d   1       3.342  92.134 118.181  0.00  0.00    -0.090 HD
ATOM     21  H   LIG d   1       3.368  92.177 116.544  0.00  0.00    -0.090 HD
ENDBRANCH   5  18
BRANCH   3  22
ATOM     22  C   LIG d   1      -0.912  89.946 117.911  0.00  0.00     0.382 C 
ATOM     23  O   LIG d   1      -1.976  89.694 117.296  0.00  0.00    -0.241 OA
ATOM     24  O   LIG d   1      -0.964  90.337 119.092  0.00  0.00    -0.241 OA
ENDBRANCH   3  22
TORSDOF 7
ENDMDL
MODEL 7
REMARK VINA RESULT:      -4.7      2.655      3.804
REMARK  7 active torsions:
REMARK  status: ('A' for Active; 'I' for Inactive)
REMARK    1  A    between atoms: C_2  and  C_3 
REMARK    2  A    between atoms: C_3  and  O_6 
REMARK    3  A    between atoms: C_3  and  C_4 
REMARK    4  A    between atoms: C_7  and  O_6 
REMARK    5  A    between atoms: C_9  and  C_10 
REMARK    6  A    between atoms: N_15  and  C_14 
REMARK    7  A    between atoms: N_20  and  C_19 
REMARK       I    between atoms: C_22  and  N_20 
ROOT
ATOM      1  C   LIG d   1      -4.288  76.906 117.731  0.00  0.00     0.161 C 
ATOM      2  C   LIG d   1      -5.021  78.104 117.776  0.00  0.00     0.016 C 
ATOM      3  C   LIG d   1      -4.672  79.258 117.038  0.00  0.00     0.038 C 
ATOM      4  C   LIG d   1      -3.645  79.243 116.082  0.00  0.00     0.028 C 
ATOM      5  C   LIG d   1      -2.562  78.209 116.371  0.00  0.00    -0.047 C 
ATOM      6  C   LIG d   1      -3.231  76.836 116.610  0.00  0.00     0.091 C 
ENDROOT
BRANCH   1   7
ATOM      7  O   LIG d   1      -5.190  75.785 117.640  0.00  0.00    -0.368 OA
BRANCH   7   8
ATOM      8  C   LIG d   1      -6.216  75.873 116.621  0.00  0.00     0.119 C 
BRANCH   8   9
ATOM      9  C   LIG d   1      -7.544  75.426 117.262  0.00  0.00     0.028 C 
ATOM     10  C   LIG d   1      -8.612  76.532 117.230  0.00  0.00     0.006 C 
ENDBRANCH   8   9
BRANCH   8  11
ATOM     11  C   LIG d   1      -5.959  74.879 115.484  0.00  0.00     0.028 C 
ATOM     12  C   LIG d   1      -5.712  75.570 114.134  0.00  0.00     0.006 C 
ENDBRANCH   8  11
ENDBRANCH   7   8
ENDBRANCH   1   7
BRANCH   6  13
ATOM     13  N   LIG d   1      -2.249  75.785 116.982  0.00  0.00    -0.311 N 
ATOM     14  C   LIG d   1      -1.987  74.723 116.222  0.00  0.00     0.210 C 
ATOM     15  C   LIG d   1      -0.955  73.751 116.802  0.00  0.00     0.109 C 
ATOM     16  O   LIG d   1      -2.487  74.511 115.107  0.00  0.00    -0.276 OA
ATOM     17  H   LIG d   1      -1.773  75.894 117.857  0.00  0.00     0.149 HD
ENDBRANCH   6  13
BRANCH   5  18
ATOM     18  N   LIG d   1      -1.631  78.208 115.227  0.00  0.00     0.381 N 
ATOM     19  H   LIG d   1      -1.551  79.133 114.854  0.00  0.00    -0.090 HD
ATOM     20  H   LIG d   1      -1.999  77.609 114.509  0.00  0.00    -0.090 HD
ATOM     21  H   LIG d   1      -0.736  77.880 115.516  0.00  0.00    -0.090 HD
ENDBRANCH   5  18
BRANCH   3  22
ATOM     22  C   LIG d   1      -5.328  80.454 117.282  0.00  0.00     0.382 C 
ATOM     23  O   LIG d   1      -6.437  80.683 116.743  0.00  0.00    -0.241 OA
ATOM     24  O   LIG d   1      -4.804  81.327 117.999  0.00  0.00    -0.241 OA
ENDBRANCH   3  22
TORSDOF 7
ENDMDL
MODEL 8
REMARK VINA RESULT:      -4.6      3.452      5.576
REMARK  7 active torsions:
REMARK  status: ('A' for Active; 'I' for Inactive)
REMARK    1  A    between atoms: C_2  and  C_3 
REMARK    2  A    between atoms: C_3  and  O_6 
REMARK    3  A    between atoms: C_3  and  C_4 
REMARK    4  A    between atoms: C_7  and  O_6 
REMARK    5  A    between atoms: C_9  and  C_10 
REMARK    6  A    between atoms: N_15  and  C_14 
REMARK    7  A    between atoms: N_20  and  C_19 
REMARK       I    between atoms: C_22  and  N_20 
ROOT
ATOM      1  C   LIG d   1      -3.161  77.318 116.751  0.00  0.00     0.161 C 
ATOM      2  C   LIG d   1      -3.342  78.518 116.045  0.00  0.00     0.016 C 
ATOM      3  C   LIG d   1      -2.520  78.918 114.966  0.00  0.00     0.038 C 
ATOM      4  C   LIG d   1      -1.548  78.067 114.420  0.00  0.00     0.028 C 
ATOM      5  C   LIG d   1      -0.996  77.057 115.420  0.00  0.00    -0.047 C 
ATOM      6  C   LIG d   1      -2.177  76.325 116.098  0.00  0.00     0.091 C 
ENDROOT
BRANCH   1   7
ATOM      7  O   LIG d   1      -4.437  76.684 116.973  0.00  0.00    -0.368 OA
BRANCH   7   8
ATOM      8  C   LIG d   1      -5.514  77.095 116.095  0.00  0.00     0.119 C 
BRANCH   8   9
ATOM      9  C   LIG d   1      -6.800  77.162 116.940  0.00  0.00     0.028 C 
ATOM     10  C   LIG d   1      -6.524  76.994 118.444  0.00  0.00     0.006 C 
ENDBRANCH   8   9
BRANCH   8  11
ATOM     11  C   LIG d   1      -5.790  76.039 115.020  0.00  0.00     0.028 C 
ATOM     12  C   LIG d   1      -5.595  74.603 115.532  0.00  0.00     0.006 C 
ENDBRANCH   8  11
ENDBRANCH   7   8
ENDBRANCH   1   7
BRANCH   6  13
ATOM     13  N   LIG d   1      -1.727  75.379 117.152  0.00  0.00    -0.311 N 
ATOM     14  C   LIG d   1      -1.509  74.084 116.930  0.00  0.00     0.210 C 
ATOM     15  C   LIG d   1      -1.069  73.282 118.159  0.00  0.00     0.109 C 
ATOM     16  O   LIG d   1      -1.608  73.529 115.825  0.00  0.00    -0.276 OA
ATOM     17  H   LIG d   1      -1.591  75.751 118.071  0.00  0.00     0.149 HD
ENDBRANCH   6  13
BRANCH   5  18
ATOM     18  N   LIG d   1      -0.097  76.148 114.685  0.00  0.00     0.381 N 
ATOM     19  H   LIG d   1       0.851  76.449 114.791  0.00  0.00    -0.090 HD
ATOM     20  H   LIG d   1      -0.331  76.179 113.708  0.00  0.00    -0.090 HD
ATOM     21  H   LIG d   1      -0.198  75.218 115.028  0.00  0.00    -0.090 HD
ENDBRANCH   5  18
BRANCH   3  22
ATOM     22  C   LIG d   1      -2.641  80.199 114.448  0.00  0.00     0.382 C 
ATOM     23  O   LIG d   1      -2.783  81.177 115.221  0.00  0.00    -0.241 OA
ATOM     24  O   LIG d   1      -2.653  80.384 113.217  0.00  0.00    -0.241 OA
ENDBRANCH   3  22
TORSDOF 7
ENDMDL
MODEL 9
REMARK VINA RESULT:      -4.5     14.902     18.388
REMARK  7 active torsions:
REMARK  status: ('A' for Active; 'I' for Inactive)
REMARK    1  A    between atoms: C_2  and  C_3 
REMARK    2  A    between atoms: C_3  and  O_6 
REMARK    3  A    between atoms: C_3  and  C_4 
REMARK    4  A    between atoms: C_7  and  O_6 
REMARK    5  A    between atoms: C_9  and  C_10 
REMARK    6  A    between atoms: N_15  and  C_14 
REMARK    7  A    between atoms: N_20  and  C_19 
REMARK       I    between atoms: C_22  and  N_20 
ROOT
ATOM      1  C   LIG d   1      10.497  78.995 114.257  0.00  0.00     0.161 C 
ATOM      2  C   LIG d   1       9.201  78.843 114.776  0.00  0.00     0.016 C 
ATOM      3  C   LIG d   1       8.748  77.658 115.401  0.00  0.00     0.038 C 
ATOM      4  C   LIG d   1       9.614  76.592 115.687  0.00  0.00     0.028 C 
ATOM      5  C   LIG d   1      10.799  76.503 114.732  0.00  0.00    -0.047 C 
ATOM      6  C   LIG d   1      11.490  77.884 114.658  0.00  0.00     0.091 C 
ENDROOT
BRANCH   1   7
ATOM      7  O   LIG d   1      11.020  80.289 114.620  0.00  0.00    -0.368 OA
BRANCH   7   8
ATOM      8  C   LIG d   1      11.805  80.340 115.837  0.00  0.00     0.119 C 
BRANCH   8   9
ATOM      9  C   LIG d   1      10.929  80.989 116.926  0.00  0.00     0.028 C 
ATOM     10  C   LIG d   1      10.503  79.985 118.011  0.00  0.00     0.006 C 
ENDBRANCH   8   9
BRANCH   8  11
ATOM     11  C   LIG d   1      13.013  81.269 115.682  0.00  0.00     0.028 C 
ATOM     12  C   LIG d   1      13.556  81.305 114.244  0.00  0.00     0.006 C 
ENDBRANCH   8  11
ENDBRANCH   7   8
ENDBRANCH   1   7
BRANCH   6  13
ATOM     13  N   LIG d   1      12.609  77.906 113.681  0.00  0.00    -0.311 N 
ATOM     14  C   LIG d   1      13.880  77.688 114.017  0.00  0.00     0.210 C 
ATOM     15  C   LIG d   1      14.879  77.777 112.859  0.00  0.00     0.109 C 
ATOM     16  O   LIG d   1      14.270  77.397 115.157  0.00  0.00    -0.276 OA
ATOM     17  H   LIG d   1      12.379  78.104 112.727  0.00  0.00     0.149 HD
ENDBRANCH   6  13
BRANCH   5  18
ATOM     18  N   LIG d   1      11.691  75.437 115.227  0.00  0.00     0.381 N 
ATOM     19  H   LIG d   1      12.431  75.283 114.572  0.00  0.00    -0.090 HD
ATOM     20  H   LIG d   1      11.163  74.586 115.312  0.00  0.00    -0.090 HD
ATOM     21  H   LIG d   1      12.069  75.692 116.112  0.00  0.00    -0.090 HD
ENDBRANCH   5  18
BRANCH   3  22
ATOM     22  C   LIG d   1       7.404  77.517 115.712  0.00  0.00     0.382 C 
ATOM     23  O   LIG d   1       6.536  77.636 114.814  0.00  0.00    -0.241 OA
ATOM     24  O   LIG d   1       7.045  77.315 116.888  0.00  0.00    -0.241 OA
ENDBRANCH   3  22
TORSDOF 7
ENDMDL
