MODEL 1
REMARK VINA RESULT:      -5.7      0.000      0.000
REMARK  7 active torsions:
REMARK  status: ('A' for Active; 'I' for Inactive)
REMARK    1  A    between atoms: C_2  and  C_3 
REMARK    2  A    between atoms: C_3  and  O_6 
REMARK    3  A    between atoms: C_3  and  C_4 
REMARK    4  A    between atoms: C_7  and  O_6 
REMARK    5  A    between atoms: C_9  and  C_10 
REMARK    6  A    between atoms: N_15  and  C_14 
REMARK    7  A    between atoms: N_20  and  C_19 
REMARK       I    between atoms: C_22  and  N_20 
ROOT
ATOM      1  C   LIG d   1      -2.856  77.202 116.616  0.00  0.00     0.161 C 
ATOM      2  C   LIG d   1      -3.096  78.161 115.618  0.00  0.00     0.016 C 
ATOM      3  C   LIG d   1      -2.214  78.399 114.539  0.00  0.00     0.038 C 
ATOM      4  C   LIG d   1      -1.097  77.584 114.300  0.00  0.00     0.028 C 
ATOM      5  C   LIG d   1      -0.544  76.931 115.562  0.00  0.00    -0.047 C 
ATOM      6  C   LIG d   1      -1.699  76.227 116.311  0.00  0.00     0.091 C 
ENDROOT
BRANCH   1   7
ATOM      7  O   LIG d   1      -4.067  76.471 116.893  0.00  0.00    -0.368 OA
BRANCH   7   8
ATOM      8  C   LIG d   1      -4.961  76.270 115.770  0.00  0.00     0.119 C 
BRANCH   8   9
ATOM      9  C   LIG d   1      -6.398  76.494 116.278  0.00  0.00     0.028 C 
ATOM     10  C   LIG d   1      -6.508  77.710 117.213  0.00  0.00     0.006 C 
ENDBRANCH   8   9
BRANCH   8  11
ATOM     11  C   LIG d   1      -4.924  74.820 115.281  0.00  0.00     0.028 C 
ATOM     12  C   LIG d   1      -6.145  74.006 115.739  0.00  0.00     0.006 C 
ENDBRANCH   8  11
ENDBRANCH   7   8
ENDBRANCH   1   7
BRANCH   6  13
ATOM     13  N   LIG d   1      -1.260  75.633 117.600  0.00  0.00    -0.311 N 
ATOM     14  C   LIG d   1      -0.740  74.412 117.705  0.00  0.00     0.210 C 
ATOM     15  C   LIG d   1      -0.372  73.986 119.130  0.00  0.00     0.109 C 
ATOM     16  O   LIG d   1      -0.518  73.653 116.750  0.00  0.00    -0.276 OA
ATOM     17  H   LIG d   1      -1.374  76.193 118.423  0.00  0.00     0.149 HD
ENDBRANCH   6  13
BRANCH   5  18
ATOM     18  N   LIG d   1       0.527  76.004 115.150  0.00  0.00     0.381 N 
ATOM     19  H   LIG d   1       1.362  76.518 114.952  0.00  0.00    -0.090 HD
ATOM     20  H   LIG d   1       0.242  75.530 114.311  0.00  0.00    -0.090 HD
ATOM     21  H   LIG d   1       0.701  75.340 115.873  0.00  0.00    -0.090 HD
ENDBRANCH   5  18
BRANCH   3  22
ATOM     22  C   LIG d   1      -2.424  79.489 113.708  0.00  0.00     0.382 C 
ATOM     23  O   LIG d   1      -1.778  80.549 113.889  0.00  0.00    -0.241 OA
ATOM     24  O   LIG d   1      -3.283  79.440 112.807  0.00  0.00    -0.241 OA
ENDBRANCH   3  22
TORSDOF 7
ENDMDL
MODEL 2
REMARK VINA RESULT:      -5.3      2.855      4.597
REMARK  7 active torsions:
REMARK  status: ('A' for Active; 'I' for Inactive)
REMARK    1  A    between atoms: C_2  and  C_3 
REMARK    2  A    between atoms: C_3  and  O_6 
REMARK    3  A    between atoms: C_3  and  C_4 
REMARK    4  A    between atoms: C_7  and  O_6 
REMARK    5  A    between atoms: C_9  and  C_10 
REMARK    6  A    between atoms: N_15  and  C_14 
REMARK    7  A    between atoms: N_20  and  C_19 
REMARK       I    between atoms: C_22  and  N_20 
ROOT
ATOM      1  C   LIG d   1      -5.750  77.401 117.213  0.00  0.00     0.161 C 
ATOM      2  C   LIG d   1      -6.836  78.260 117.447  0.00  0.00     0.016 C 
ATOM      3  C   LIG d   1      -6.690  79.628 117.775  0.00  0.00     0.038 C 
ATOM      4  C   LIG d   1      -5.443  80.269 117.743  0.00  0.00     0.028 C 
ATOM      5  C   LIG d   1      -4.272  79.328 118.007  0.00  0.00    -0.047 C 
ATOM      6  C   LIG d   1      -4.386  78.108 117.065  0.00  0.00     0.091 C 
ENDROOT
BRANCH   1   7
ATOM      7  O   LIG d   1      -6.016  76.579 116.059  0.00  0.00    -0.368 OA
BRANCH   7   8
ATOM      8  C   LIG d   1      -5.548  75.210 116.130  0.00  0.00     0.119 C 
BRANCH   8   9
ATOM      9  C   LIG d   1      -4.798  74.909 114.818  0.00  0.00     0.028 C 
ATOM     10  C   LIG d   1      -4.706  76.139 113.899  0.00  0.00     0.006 C 
ENDBRANCH   8   9
BRANCH   8  11
ATOM     11  C   LIG d   1      -6.718  74.222 116.165  0.00  0.00     0.028 C 
ATOM     12  C   LIG d   1      -6.310  72.801 115.746  0.00  0.00     0.006 C 
ENDBRANCH   8  11
ENDBRANCH   7   8
ENDBRANCH   1   7
BRANCH   6  13
ATOM     13  N   LIG d   1      -3.326  77.097 117.315  0.00  0.00    -0.311 N 
ATOM     14  C   LIG d   1      -2.199  77.026 116.609  0.00  0.00     0.210 C 
ATOM     15  C   LIG d   1      -1.249  75.896 117.018  0.00  0.00     0.109 C 
ATOM     16  O   LIG d   1      -1.882  77.811 115.703  0.00  0.00    -0.276 OA
ATOM     17  H   LIG d   1      -3.488  76.439 118.053  0.00  0.00     0.149 HD
ENDBRANCH   6  13
BRANCH   5  18
ATOM     18  N   LIG d   1      -3.029  80.097 117.808  0.00  0.00     0.381 N 
ATOM     19  H   LIG d   1      -2.467  79.658 117.106  0.00  0.00    -0.090 HD
ATOM     20  H   LIG d   1      -2.510  80.105 118.668  0.00  0.00    -0.090 HD
ATOM     21  H   LIG d   1      -3.245  81.030 117.533  0.00  0.00    -0.090 HD
ENDBRANCH   5  18
BRANCH   3  22
ATOM     22  C   LIG d   1      -7.796  80.360 118.179  0.00  0.00     0.382 C 
ATOM     23  O   LIG d   1      -8.102  81.417 117.577  0.00  0.00    -0.241 OA
ATOM     24  O   LIG d   1      -8.467  79.999 119.165  0.00  0.00    -0.241 OA
ENDBRANCH   3  22
TORSDOF 7
ENDMDL
MODEL 3
REMARK VINA RESULT:      -5.1      2.451      4.379
REMARK  7 active torsions:
REMARK  status: ('A' for Active; 'I' for Inactive)
REMARK    1  A    between atoms: C_2  and  C_3 
REMARK    2  A    between atoms: C_3  and  O_6 
REMARK    3  A    between atoms: C_3  and  C_4 
REMARK    4  A    between atoms: C_7  and  O_6 
REMARK    5  A    between atoms: C_9  and  C_10 
REMARK    6  A    between atoms: N_15  and  C_14 
REMARK    7  A    between atoms: N_20  and  C_19 
REMARK       I    between atoms: C_22  and  N_20 
ROOT
ATOM      1  C   LIG d   1      -3.599  76.859 115.264  0.00  0.00     0.161 C 
ATOM      2  C   LIG d   1      -2.749  75.841 114.802  0.00  0.00     0.016 C 
ATOM      3  C   LIG d   1      -1.551  75.471 115.456  0.00  0.00     0.038 C 
ATOM      4  C   LIG d   1      -1.196  75.997 116.707  0.00  0.00     0.028 C 
ATOM      5  C   LIG d   1      -1.765  77.389 116.963  0.00  0.00    -0.047 C 
ATOM      6  C   LIG d   1      -3.286  77.368 116.687  0.00  0.00     0.091 C 
ENDROOT
BRANCH   1   7
ATOM      7  O   LIG d   1      -4.971  76.427 115.177  0.00  0.00    -0.368 OA
BRANCH   7   8
ATOM      8  C   LIG d   1      -5.365  75.370 116.086  0.00  0.00     0.119 C 
BRANCH   8   9
ATOM      9  C   LIG d   1      -5.742  74.143 115.234  0.00  0.00     0.028 C 
ATOM     10  C   LIG d   1      -6.550  73.102 116.028  0.00  0.00     0.006 C 
ENDBRANCH   8   9
BRANCH   8  11
ATOM     11  C   LIG d   1      -6.640  75.739 116.851  0.00  0.00     0.028 C 
ATOM     12  C   LIG d   1      -7.193  77.118 116.457  0.00  0.00     0.006 C 
ENDBRANCH   8  11
ENDBRANCH   7   8
ENDBRANCH   1   7
BRANCH   6  13
ATOM     13  N   LIG d   1      -3.907  78.710 116.832  0.00  0.00    -0.311 N 
ATOM     14  C   LIG d   1      -4.519  79.119 117.942  0.00  0.00     0.210 C 
ATOM     15  C   LIG d   1      -5.108  80.531 117.873  0.00  0.00     0.109 C 
ATOM     16  O   LIG d   1      -4.602  78.458 118.988  0.00  0.00    -0.276 OA
ATOM     17  H   LIG d   1      -3.858  79.323 116.041  0.00  0.00     0.149 HD
ENDBRANCH   6  13
BRANCH   5  18
ATOM     18  N   LIG d   1      -1.435  77.757 118.352  0.00  0.00     0.381 N 
ATOM     19  H   LIG d   1      -1.160  76.942 118.863  0.00  0.00    -0.090 HD
ATOM     20  H   LIG d   1      -2.253  78.142 118.790  0.00  0.00    -0.090 HD
ATOM     21  H   LIG d   1      -0.698  78.428 118.361  0.00  0.00    -0.090 HD
ENDBRANCH   5  18
BRANCH   3  22
ATOM     22  C   LIG d   1      -0.672  74.595 114.837  0.00  0.00     0.382 C 
ATOM     23  O   LIG d   1      -0.416  74.723 113.616  0.00  0.00    -0.241 OA
ATOM     24  O   LIG d   1      -0.168  73.651 115.475  0.00  0.00    -0.241 OA
ENDBRANCH   3  22
TORSDOF 7
ENDMDL
MODEL 4
REMARK VINA RESULT:      -4.8      2.815      4.167
REMARK  7 active torsions:
REMARK  status: ('A' for Active; 'I' for Inactive)
REMARK    1  A    between atoms: C_2  and  C_3 
REMARK    2  A    between atoms: C_3  and  O_6 
REMARK    3  A    between atoms: C_3  and  C_4 
REMARK    4  A    between atoms: C_7  and  O_6 
REMARK    5  A    between atoms: C_9  and  C_10 
REMARK    6  A    between atoms: N_15  and  C_14 
REMARK    7  A    between atoms: N_20  and  C_19 
REMARK       I    between atoms: C_22  and  N_20 
ROOT
ATOM      1  C   LIG d   1      -3.222  78.727 116.780  0.00  0.00     0.161 C 
ATOM      2  C   LIG d   1      -2.322  79.744 117.139  0.00  0.00     0.016 C 
ATOM      3  C   LIG d   1      -1.095  79.969 116.473  0.00  0.00     0.038 C 
ATOM      4  C   LIG d   1      -0.753  79.282 115.299  0.00  0.00     0.028 C 
ATOM      5  C   LIG d   1      -1.396  77.904 115.193  0.00  0.00    -0.047 C 
ATOM      6  C   LIG d   1      -2.917  78.041 115.432  0.00  0.00     0.091 C 
ENDROOT
BRANCH   1   7
ATOM      7  O   LIG d   1      -4.568  79.242 116.787  0.00  0.00    -0.368 OA
BRANCH   7   8
ATOM      8  C   LIG d   1      -5.322  79.037 118.008  0.00  0.00     0.119 C 
BRANCH   8   9
ATOM      9  C   LIG d   1      -6.638  78.331 117.626  0.00  0.00     0.028 C 
ATOM     10  C   LIG d   1      -6.459  76.814 117.449  0.00  0.00     0.006 C 
ENDBRANCH   8   9
BRANCH   8  11
ATOM     11  C   LIG d   1      -5.744  80.371 118.632  0.00  0.00     0.028 C 
ATOM     12  C   LIG d   1      -6.454  81.298 117.633  0.00  0.00     0.006 C 
ENDBRANCH   8  11
ENDBRANCH   7   8
ENDBRANCH   1   7
BRANCH   6  13
ATOM     13  N   LIG d   1      -3.612  76.727 115.430  0.00  0.00    -0.311 N 
ATOM     14  C   LIG d   1      -4.269  76.247 114.376  0.00  0.00     0.210 C 
ATOM     15  C   LIG d   1      -4.931  74.882 114.592  0.00  0.00     0.109 C 
ATOM     16  O   LIG d   1      -4.340  76.807 113.271  0.00  0.00    -0.276 OA
ATOM     17  H   LIG d   1      -3.579  76.192 116.276  0.00  0.00     0.149 HD
ENDBRANCH   6  13
BRANCH   5  18
ATOM     18  N   LIG d   1      -1.067  77.359 113.863  0.00  0.00     0.381 N 
ATOM     19  H   LIG d   1      -0.783  76.404 113.949  0.00  0.00    -0.090 HD
ATOM     20  H   LIG d   1      -0.301  77.882 113.478  0.00  0.00    -0.090 HD
ATOM     21  H   LIG d   1      -1.859  77.425 113.262  0.00  0.00    -0.090 HD
ENDBRANCH   5  18
BRANCH   3  22
ATOM     22  C   LIG d   1      -0.177  80.862 117.006  0.00  0.00     0.382 C 
ATOM     23  O   LIG d   1      -0.336  81.305 118.168  0.00  0.00    -0.241 OA
ATOM     24  O   LIG d   1       0.783  81.263 116.322  0.00  0.00    -0.241 OA
ENDBRANCH   3  22
TORSDOF 7
ENDMDL
MODEL 5
REMARK VINA RESULT:      -4.6      2.525      4.866
REMARK  7 active torsions:
REMARK  status: ('A' for Active; 'I' for Inactive)
REMARK    1  A    between atoms: C_2  and  C_3 
REMARK    2  A    between atoms: C_3  and  O_6 
REMARK    3  A    between atoms: C_3  and  C_4 
REMARK    4  A    between atoms: C_7  and  O_6 
REMARK    5  A    between atoms: C_9  and  C_10 
REMARK    6  A    between atoms: N_15  and  C_14 
REMARK    7  A    between atoms: N_20  and  C_19 
REMARK       I    between atoms: C_22  and  N_20 
ROOT
ATOM      1  C   LIG d   1      -2.624  77.090 116.702  0.00  0.00     0.161 C 
ATOM      2  C   LIG d   1      -3.668  77.733 117.388  0.00  0.00     0.016 C 
ATOM      3  C   LIG d   1      -5.030  77.388 117.232  0.00  0.00     0.038 C 
ATOM      4  C   LIG d   1      -5.431  76.268 116.488  0.00  0.00     0.028 C 
ATOM      5  C   LIG d   1      -4.455  75.898 115.376  0.00  0.00    -0.047 C 
ATOM      6  C   LIG d   1      -3.032  75.793 115.972  0.00  0.00     0.091 C 
ENDROOT
BRANCH   1   7
ATOM      7  O   LIG d   1      -1.531  76.833 117.606  0.00  0.00    -0.368 OA
BRANCH   7   8
ATOM      8  C   LIG d   1      -0.407  77.742 117.522  0.00  0.00     0.119 C 
BRANCH   8   9
ATOM      9  C   LIG d   1      -0.523  78.499 116.184  0.00  0.00     0.028 C 
ATOM     10  C   LIG d   1      -0.290  80.011 116.344  0.00  0.00     0.006 C 
ENDBRANCH   8   9
BRANCH   8  11
ATOM     11  C   LIG d   1       0.920  76.981 117.443  0.00  0.00     0.028 C 
ATOM     12  C   LIG d   1       0.950  75.739 118.348  0.00  0.00     0.006 C 
ENDBRANCH   8  11
ENDBRANCH   7   8
ENDBRANCH   1   7
BRANCH   6  13
ATOM     13  N   LIG d   1      -2.003  75.518 114.936  0.00  0.00    -0.311 N 
ATOM     14  C   LIG d   1      -1.010  74.645 115.102  0.00  0.00     0.210 C 
ATOM     15  C   LIG d   1      -0.047  74.528 113.917  0.00  0.00     0.109 C 
ATOM     16  O   LIG d   1      -0.855  73.934 116.106  0.00  0.00    -0.276 OA
ATOM     17  H   LIG d   1      -2.071  76.029 114.078  0.00  0.00     0.149 HD
ENDBRANCH   6  13
BRANCH   5  18
ATOM     18  N   LIG d   1      -4.923  74.637 114.772  0.00  0.00     0.381 N 
ATOM     19  H   LIG d   1      -5.192  74.795 113.822  0.00  0.00    -0.090 HD
ATOM     20  H   LIG d   1      -5.729  74.314 115.278  0.00  0.00    -0.090 HD
ATOM     21  H   LIG d   1      -4.201  73.951 114.811  0.00  0.00    -0.090 HD
ENDBRANCH   5  18
BRANCH   3  22
ATOM     22  C   LIG d   1      -6.011  78.192 117.792  0.00  0.00     0.382 C 
ATOM     23  O   LIG d   1      -6.602  77.825 118.836  0.00  0.00    -0.241 OA
ATOM     24  O   LIG d   1      -6.345  79.258 117.241  0.00  0.00    -0.241 OA
ENDBRANCH   3  22
TORSDOF 7
ENDMDL
MODEL 6
REMARK VINA RESULT:      -4.5     21.740     23.495
REMARK  7 active torsions:
REMARK  status: ('A' for Active; 'I' for Inactive)
REMARK    1  A    between atoms: C_2  and  C_3 
REMARK    2  A    between atoms: C_3  and  O_6 
REMARK    3  A    between atoms: C_3  and  C_4 
REMARK    4  A    between atoms: C_7  and  O_6 
REMARK    5  A    between atoms: C_9  and  C_10 
REMARK    6  A    between atoms: N_15  and  C_14 
REMARK    7  A    between atoms: N_20  and  C_19 
REMARK       I    between atoms: C_22  and  N_20 
ROOT
ATOM      1  C   LIG d   1     -24.350  84.604 116.295  0.00  0.00     0.161 C 
ATOM      2  C   LIG d   1     -24.262  85.985 116.051  0.00  0.00     0.016 C 
ATOM      3  C   LIG d   1     -23.759  86.532 114.848  0.00  0.00     0.038 C 
ATOM      4  C   LIG d   1     -23.448  85.728 113.741  0.00  0.00     0.028 C 
ATOM      5  C   LIG d   1     -23.044  84.307 114.119  0.00  0.00    -0.047 C 
ATOM      6  C   LIG d   1     -24.119  83.712 115.057  0.00  0.00     0.091 C 
ENDROOT
BRANCH   1   7
ATOM      7  O   LIG d   1     -25.619  84.296 116.905  0.00  0.00    -0.368 OA
BRANCH   7   8
ATOM      8  C   LIG d   1     -26.764  84.271 116.018  0.00  0.00     0.119 C 
BRANCH   8   9
ATOM      9  C   LIG d   1     -27.797  85.273 116.568  0.00  0.00     0.028 C 
ATOM     10  C   LIG d   1     -27.933  86.522 115.680  0.00  0.00     0.006 C 
ENDBRANCH   8   9
BRANCH   8  11
ATOM     11  C   LIG d   1     -27.463  82.909 116.048  0.00  0.00     0.028 C 
ATOM     12  C   LIG d   1     -27.096  82.078 117.288  0.00  0.00     0.006 C 
ENDBRANCH   8  11
ENDBRANCH   7   8
ENDBRANCH   1   7
BRANCH   6  13
ATOM     13  N   LIG d   1     -23.760  82.354 115.543  0.00  0.00    -0.311 N 
ATOM     14  C   LIG d   1     -24.232  81.233 115.000  0.00  0.00     0.210 C 
ATOM     15  C   LIG d   1     -23.751  79.940 115.665  0.00  0.00     0.109 C 
ATOM     16  O   LIG d   1     -24.978  81.186 114.010  0.00  0.00    -0.276 OA
ATOM     17  H   LIG d   1     -23.135  82.299 116.323  0.00  0.00     0.149 HD
ENDBRANCH   6  13
BRANCH   5  18
ATOM     18  N   LIG d   1     -22.881  83.542 112.868  0.00  0.00     0.381 N 
ATOM     19  H   LIG d   1     -22.149  82.868 112.976  0.00  0.00    -0.090 HD
ATOM     20  H   LIG d   1     -22.622  84.174 112.132  0.00  0.00    -0.090 HD
ATOM     21  H   LIG d   1     -23.734  83.082 112.637  0.00  0.00    -0.090 HD
ENDBRANCH   5  18
BRANCH   3  22
ATOM     22  C   LIG d   1     -23.525  87.895 114.758  0.00  0.00     0.382 C 
ATOM     23  O   LIG d   1     -24.478  88.704 114.868  0.00  0.00    -0.241 OA
ATOM     24  O   LIG d   1     -22.380  88.326 114.523  0.00  0.00    -0.241 OA
ENDBRANCH   3  22
TORSDOF 7
ENDMDL
MODEL 7
REMARK VINA RESULT:      -4.5      2.801      5.002
REMARK  7 active torsions:
REMARK  status: ('A' for Active; 'I' for Inactive)
REMARK    1  A    between atoms: C_2  and  C_3 
REMARK    2  A    between atoms: C_3  and  O_6 
REMARK    3  A    between atoms: C_3  and  C_4 
REMARK    4  A    between atoms: C_7  and  O_6 
REMARK    5  A    between atoms: C_9  and  C_10 
REMARK    6  A    between atoms: N_15  and  C_14 
REMARK    7  A    between atoms: N_20  and  C_19 
REMARK       I    between atoms: C_22  and  N_20 
ROOT
ATOM      1  C   LIG d   1      -2.651  77.777 117.086  0.00  0.00     0.161 C 
ATOM      2  C   LIG d   1      -3.333  76.900 116.227  0.00  0.00     0.016 C 
ATOM      3  C   LIG d   1      -3.430  77.098 114.830  0.00  0.00     0.038 C 
ATOM      4  C   LIG d   1      -2.719  78.114 114.174  0.00  0.00     0.028 C 
ATOM      5  C   LIG d   1      -2.427  79.319 115.062  0.00  0.00    -0.047 C 
ATOM      6  C   LIG d   1      -1.775  78.829 116.375  0.00  0.00     0.091 C 
ENDROOT
BRANCH   1   7
ATOM      7  O   LIG d   1      -1.863  77.023 118.028  0.00  0.00    -0.368 OA
BRANCH   7   8
ATOM      8  C   LIG d   1      -0.592  76.526 117.542  0.00  0.00     0.119 C 
BRANCH   8   9
ATOM      9  C   LIG d   1      -0.650  74.987 117.584  0.00  0.00     0.028 C 
ATOM     10  C   LIG d   1      -0.685  74.361 116.180  0.00  0.00     0.006 C 
ENDBRANCH   8   9
BRANCH   8  11
ATOM     11  C   LIG d   1       0.555  76.915 118.480  0.00  0.00     0.028 C 
ATOM     12  C   LIG d   1       1.551  75.767 118.711  0.00  0.00     0.006 C 
ENDBRANCH   8  11
ENDBRANCH   7   8
ENDBRANCH   1   7
BRANCH   6  13
ATOM     13  N   LIG d   1      -1.534  79.937 117.336  0.00  0.00    -0.311 N 
ATOM     14  C   LIG d   1      -0.383  80.603 117.413  0.00  0.00     0.210 C 
ATOM     15  C   LIG d   1      -0.338  81.695 118.486  0.00  0.00     0.109 C 
ATOM     16  O   LIG d   1       0.594  80.414 116.674  0.00  0.00    -0.276 OA
ATOM     17  H   LIG d   1      -2.285  80.178 117.953  0.00  0.00     0.149 HD
ENDBRANCH   6  13
BRANCH   5  18
ATOM     18  N   LIG d   1      -1.563  80.238 114.296  0.00  0.00     0.381 N 
ATOM     19  H   LIG d   1      -1.841  81.184 114.465  0.00  0.00    -0.090 HD
ATOM     20  H   LIG d   1      -1.675  80.048 113.315  0.00  0.00    -0.090 HD
ATOM     21  H   LIG d   1      -0.611  80.111 114.560  0.00  0.00    -0.090 HD
ENDBRANCH   5  18
BRANCH   3  22
ATOM     22  C   LIG d   1      -4.279  76.299 114.080  0.00  0.00     0.382 C 
ATOM     23  O   LIG d   1      -4.325  75.063 114.291  0.00  0.00    -0.241 OA
ATOM     24  O   LIG d   1      -4.966  76.791 113.165  0.00  0.00    -0.241 OA
ENDBRANCH   3  22
TORSDOF 7
ENDMDL
MODEL 8
REMARK VINA RESULT:      -4.4      2.758      5.625
REMARK  7 active torsions:
REMARK  status: ('A' for Active; 'I' for Inactive)
REMARK    1  A    between atoms: C_2  and  C_3 
REMARK    2  A    between atoms: C_3  and  O_6 
REMARK    3  A    between atoms: C_3  and  C_4 
REMARK    4  A    between atoms: C_7  and  O_6 
REMARK    5  A    between atoms: C_9  and  C_10 
REMARK    6  A    between atoms: N_15  and  C_14 
REMARK    7  A    between atoms: N_20  and  C_19 
REMARK       I    between atoms: C_22  and  N_20 
ROOT
ATOM      1  C   LIG d   1      -2.469  77.149 117.461  0.00  0.00     0.161 C 
ATOM      2  C   LIG d   1      -1.552  76.289 116.834  0.00  0.00     0.016 C 
ATOM      3  C   LIG d   1      -1.888  75.455 115.743  0.00  0.00     0.038 C 
ATOM      4  C   LIG d   1      -3.134  75.537 115.103  0.00  0.00     0.028 C 
ATOM      5  C   LIG d   1      -4.253  76.025 116.017  0.00  0.00    -0.047 C 
ATOM      6  C   LIG d   1      -3.803  77.333 116.707  0.00  0.00     0.091 C 
ENDROOT
BRANCH   1   7
ATOM      7  O   LIG d   1      -1.851  78.428 117.706  0.00  0.00    -0.368 OA
BRANCH   7   8
ATOM      8  C   LIG d   1      -0.817  78.825 116.773  0.00  0.00     0.119 C 
BRANCH   8   9
ATOM      9  C   LIG d   1       0.259  79.586 117.571  0.00  0.00     0.028 C 
ATOM     10  C   LIG d   1       1.330  78.649 118.154  0.00  0.00     0.006 C 
ENDBRANCH   8   9
BRANCH   8  11
ATOM     11  C   LIG d   1      -1.348  79.831 115.747  0.00  0.00     0.028 C 
ATOM     12  C   LIG d   1      -1.207  79.336 114.299  0.00  0.00     0.006 C 
ENDBRANCH   8  11
ENDBRANCH   7   8
ENDBRANCH   1   7
BRANCH   6  13
ATOM     13  N   LIG d   1      -4.806  77.834 117.682  0.00  0.00    -0.311 N 
ATOM     14  C   LIG d   1      -5.213  79.101 117.730  0.00  0.00     0.210 C 
ATOM     15  C   LIG d   1      -6.239  79.410 118.825  0.00  0.00     0.109 C 
ATOM     16  O   LIG d   1      -4.846  79.992 116.949  0.00  0.00    -0.276 OA
ATOM     17  H   LIG d   1      -5.179  77.171 118.333  0.00  0.00     0.149 HD
ENDBRANCH   6  13
BRANCH   5  18
ATOM     18  N   LIG d   1      -5.462  76.195 115.189  0.00  0.00     0.381 N 
ATOM     19  H   LIG d   1      -5.654  75.348 114.692  0.00  0.00    -0.090 HD
ATOM     20  H   LIG d   1      -5.297  76.924 114.517  0.00  0.00    -0.090 HD
ATOM     21  H   LIG d   1      -6.239  76.434 115.765  0.00  0.00    -0.090 HD
ENDBRANCH   5  18
BRANCH   3  22
ATOM     22  C   LIG d   1      -0.985  74.498 115.306  0.00  0.00     0.382 C 
ATOM     23  O   LIG d   1      -0.778  74.346 114.078  0.00  0.00    -0.241 OA
ATOM     24  O   LIG d   1      -0.407  73.756 116.122  0.00  0.00    -0.241 OA
ENDBRANCH   3  22
TORSDOF 7
ENDMDL
MODEL 9
REMARK VINA RESULT:      -4.4     16.841     19.431
REMARK  7 active torsions:
REMARK  status: ('A' for Active; 'I' for Inactive)
REMARK    1  A    between atoms: C_2  and  C_3 
REMARK    2  A    between atoms: C_3  and  O_6 
REMARK    3  A    between atoms: C_3  and  C_4 
REMARK    4  A    between atoms: C_7  and  O_6 
REMARK    5  A    between atoms: C_9  and  C_10 
REMARK    6  A    between atoms: N_15  and  C_14 
REMARK    7  A    between atoms: N_20  and  C_19 
REMARK       I    between atoms: C_22  and  N_20 
ROOT
ATOM      1  C   LIG d   1     -17.439  65.526 116.255  0.00  0.00     0.161 C 
ATOM      2  C   LIG d   1     -16.224  65.271 116.913  0.00  0.00     0.016 C 
ATOM      3  C   LIG d   1     -15.876  65.849 118.155  0.00  0.00     0.038 C 
ATOM      4  C   LIG d   1     -16.790  66.608 118.902  0.00  0.00     0.028 C 
ATOM      5  C   LIG d   1     -17.842  67.304 118.045  0.00  0.00    -0.047 C 
ATOM      6  C   LIG d   1     -18.494  66.263 117.107  0.00  0.00     0.091 C 
ENDROOT
BRANCH   1   7
ATOM      7  O   LIG d   1     -17.983  64.294 115.740  0.00  0.00    -0.368 OA
BRANCH   7   8
ATOM      8  C   LIG d   1     -17.558  63.918 114.407  0.00  0.00     0.119 C 
BRANCH   8   9
ATOM      9  C   LIG d   1     -17.991  65.045 113.448  0.00  0.00     0.028 C 
ATOM     10  C   LIG d   1     -19.448  64.888 112.979  0.00  0.00     0.006 C 
ENDBRANCH   8   9
BRANCH   8  11
ATOM     11  C   LIG d   1     -18.294  62.666 113.920  0.00  0.00     0.028 C 
ATOM     12  C   LIG d   1     -17.656  61.364 114.429  0.00  0.00     0.006 C 
ENDBRANCH   8  11
ENDBRANCH   7   8
ENDBRANCH   1   7
BRANCH   6  13
ATOM     13  N   LIG d   1     -19.476  66.876 116.175  0.00  0.00    -0.311 N 
ATOM     14  C   LIG d   1     -20.764  66.538 116.142  0.00  0.00     0.210 C 
ATOM     15  C   LIG d   1     -21.600  67.278 115.092  0.00  0.00     0.109 C 
ATOM     16  O   LIG d   1     -21.301  65.720 116.904  0.00  0.00    -0.276 OA
ATOM     17  H   LIG d   1     -19.132  67.572 115.543  0.00  0.00     0.149 HD
ENDBRANCH   6  13
BRANCH   5  18
ATOM     18  N   LIG d   1     -18.808  67.944 118.958  0.00  0.00     0.381 N 
ATOM     19  H   LIG d   1     -18.695  67.577 119.882  0.00  0.00    -0.090 HD
ATOM     20  H   LIG d   1     -19.739  67.732 118.646  0.00  0.00    -0.090 HD
ATOM     21  H   LIG d   1     -18.668  68.931 118.965  0.00  0.00    -0.090 HD
ENDBRANCH   5  18
BRANCH   3  22
ATOM     22  C   LIG d   1     -14.587  65.703 118.644  0.00  0.00     0.382 C 
ATOM     23  O   LIG d   1     -14.068  66.619 119.327  0.00  0.00    -0.241 OA
ATOM     24  O   LIG d   1     -13.920  64.686 118.373  0.00  0.00    -0.241 OA
ENDBRANCH   3  22
TORSDOF 7
ENDMDL
