MODEL 1
REMARK VINA RESULT:      -4.8      0.000      0.000
REMARK  7 active torsions:
REMARK  status: ('A' for Active; 'I' for Inactive)
REMARK    1  A    between atoms: C_2  and  C_3 
REMARK    2  A    between atoms: C_3  and  O_6 
REMARK    3  A    between atoms: C_3  and  C_4 
REMARK    4  A    between atoms: C_7  and  O_6 
REMARK    5  A    between atoms: C_9  and  C_10 
REMARK    6  A    between atoms: N_15  and  C_14 
REMARK    7  A    between atoms: N_20  and  C_19 
REMARK       I    between atoms: C_22  and  N_20 
ROOT
ATOM      1  C   LIG d   1      -6.187  77.954 117.240  0.00  0.00     0.161 C 
ATOM      2  C   LIG d   1      -7.551  77.714 117.473  0.00  0.00     0.016 C 
ATOM      3  C   LIG d   1      -8.429  78.680 118.016  0.00  0.00     0.038 C 
ATOM      4  C   LIG d   1      -8.032  80.010 118.223  0.00  0.00     0.028 C 
ATOM      5  C   LIG d   1      -6.537  80.163 118.477  0.00  0.00    -0.047 C 
ATOM      6  C   LIG d   1      -5.761  79.433 117.357  0.00  0.00     0.091 C 
ENDROOT
BRANCH   1   7
ATOM      7  O   LIG d   1      -5.810  77.424 115.954  0.00  0.00    -0.368 OA
BRANCH   7   8
ATOM      8  C   LIG d   1      -5.251  76.087 115.955  0.00  0.00     0.119 C 
BRANCH   8   9
ATOM      9  C   LIG d   1      -3.770  76.204 115.543  0.00  0.00     0.028 C 
ATOM     10  C   LIG d   1      -2.815  76.066 116.740  0.00  0.00     0.006 C 
ENDBRANCH   8   9
BRANCH   8  11
ATOM     11  C   LIG d   1      -5.902  75.210 114.881  0.00  0.00     0.028 C 
ATOM     12  C   LIG d   1      -5.732  73.708 115.155  0.00  0.00     0.006 C 
ENDBRANCH   8  11
ENDBRANCH   7   8
ENDBRANCH   1   7
BRANCH   6  13
ATOM     13  N   LIG d   1      -4.291  79.461 117.574  0.00  0.00    -0.311 N 
ATOM     14  C   LIG d   1      -3.415  79.788 116.625  0.00  0.00     0.210 C 
ATOM     15  C   LIG d   1      -1.946  79.735 117.054  0.00  0.00     0.109 C 
ATOM     16  O   LIG d   1      -3.718  80.149 115.478  0.00  0.00    -0.276 OA
ATOM     17  H   LIG d   1      -3.959  79.213 118.486  0.00  0.00     0.149 HD
ENDBRANCH   6  13
BRANCH   5  18
ATOM     18  N   LIG d   1      -6.240  81.606 118.539  0.00  0.00     0.381 N 
ATOM     19  H   LIG d   1      -5.268  81.745 118.728  0.00  0.00    -0.090 HD
ATOM     20  H   LIG d   1      -6.769  82.014 119.290  0.00  0.00    -0.090 HD
ATOM     21  H   LIG d   1      -6.484  82.042 117.677  0.00  0.00    -0.090 HD
ENDBRANCH   5  18
BRANCH   3  22
ATOM     22  C   LIG d   1      -9.711  78.309 118.394  0.00  0.00     0.382 C 
ATOM     23  O   LIG d   1     -10.165  77.190 118.053  0.00  0.00    -0.241 OA
ATOM     24  O   LIG d   1     -10.433  79.096 119.034  0.00  0.00    -0.241 OA
ENDBRANCH   3  22
TORSDOF 7
ENDMDL
MODEL 2
REMARK VINA RESULT:      -4.5     12.661     14.723
REMARK  7 active torsions:
REMARK  status: ('A' for Active; 'I' for Inactive)
REMARK    1  A    between atoms: C_2  and  C_3 
REMARK    2  A    between atoms: C_3  and  O_6 
REMARK    3  A    between atoms: C_3  and  C_4 
REMARK    4  A    between atoms: C_7  and  O_6 
REMARK    5  A    between atoms: C_9  and  C_10 
REMARK    6  A    between atoms: N_15  and  C_14 
REMARK    7  A    between atoms: N_20  and  C_19 
REMARK       I    between atoms: C_22  and  N_20 
ROOT
ATOM      1  C   LIG d   1      -6.314  92.040 118.736  0.00  0.00     0.161 C 
ATOM      2  C   LIG d   1      -6.872  93.327 118.652  0.00  0.00     0.016 C 
ATOM      3  C   LIG d   1      -6.111  94.513 118.765  0.00  0.00     0.038 C 
ATOM      4  C   LIG d   1      -4.710  94.493 118.819  0.00  0.00     0.028 C 
ATOM      5  C   LIG d   1      -4.145  93.208 119.414  0.00  0.00    -0.047 C 
ATOM      6  C   LIG d   1      -4.772  91.999 118.684  0.00  0.00     0.091 C 
ENDROOT
BRANCH   1   7
ATOM      7  O   LIG d   1      -6.873  91.197 117.709  0.00  0.00    -0.368 OA
BRANCH   7   8
ATOM      8  C   LIG d   1      -6.820  91.718 116.358  0.00  0.00     0.119 C 
BRANCH   8   9
ATOM      9  C   LIG d   1      -7.807  90.896 115.507  0.00  0.00     0.028 C 
ATOM     10  C   LIG d   1      -8.293  91.664 114.266  0.00  0.00     0.006 C 
ENDBRANCH   8   9
BRANCH   8  11
ATOM     11  C   LIG d   1      -5.446  91.485 115.724  0.00  0.00     0.028 C 
ATOM     12  C   LIG d   1      -5.282  90.065 115.161  0.00  0.00     0.006 C 
ENDBRANCH   8  11
ENDBRANCH   7   8
ENDBRANCH   1   7
BRANCH   6  13
ATOM     13  N   LIG d   1      -4.337  90.700 119.261  0.00  0.00    -0.311 N 
ATOM     14  C   LIG d   1      -3.266  90.032 118.837  0.00  0.00     0.210 C 
ATOM     15  C   LIG d   1      -3.007  88.703 119.555  0.00  0.00     0.109 C 
ATOM     16  O   LIG d   1      -2.488  90.428 117.957  0.00  0.00    -0.276 OA
ATOM     17  H   LIG d   1      -4.894  90.321 120.001  0.00  0.00     0.149 HD
ENDBRANCH   6  13
BRANCH   5  18
ATOM     18  N   LIG d   1      -2.677  93.264 119.283  0.00  0.00     0.381 N 
ATOM     19  H   LIG d   1      -2.277  92.395 119.577  0.00  0.00    -0.090 HD
ATOM     20  H   LIG d   1      -2.325  93.991 119.881  0.00  0.00    -0.090 HD
ATOM     21  H   LIG d   1      -2.425  93.451 118.338  0.00  0.00    -0.090 HD
ENDBRANCH   5  18
BRANCH   3  22
ATOM     22  C   LIG d   1      -6.757  95.736 118.864  0.00  0.00     0.382 C 
ATOM     23  O   LIG d   1      -6.117  96.800 118.682  0.00  0.00    -0.241 OA
ATOM     24  O   LIG d   1      -7.961  95.791 119.178  0.00  0.00    -0.241 OA
ENDBRANCH   3  22
TORSDOF 7
ENDMDL
MODEL 3
REMARK VINA RESULT:      -4.4     15.614     18.268
REMARK  7 active torsions:
REMARK  status: ('A' for Active; 'I' for Inactive)
REMARK    1  A    between atoms: C_2  and  C_3 
REMARK    2  A    between atoms: C_3  and  O_6 
REMARK    3  A    between atoms: C_3  and  C_4 
REMARK    4  A    between atoms: C_7  and  O_6 
REMARK    5  A    between atoms: C_9  and  C_10 
REMARK    6  A    between atoms: N_15  and  C_14 
REMARK    7  A    between atoms: N_20  and  C_19 
REMARK       I    between atoms: C_22  and  N_20 
ROOT
ATOM      1  C   LIG d   1     -17.831  63.831 116.282  0.00  0.00     0.161 C 
ATOM      2  C   LIG d   1     -18.028  62.628 115.583  0.00  0.00     0.016 C 
ATOM      3  C   LIG d   1     -17.672  62.450 114.226  0.00  0.00     0.038 C 
ATOM      4  C   LIG d   1     -16.952  63.422 113.515  0.00  0.00     0.028 C 
ATOM      5  C   LIG d   1     -17.179  64.840 114.027  0.00  0.00    -0.047 C 
ATOM      6  C   LIG d   1     -16.946  64.865 115.555  0.00  0.00     0.091 C 
ENDROOT
BRANCH   1   7
ATOM      7  O   LIG d   1     -17.302  63.552 117.594  0.00  0.00    -0.368 OA
BRANCH   7   8
ATOM      8  C   LIG d   1     -15.889  63.812 117.779  0.00  0.00     0.119 C 
BRANCH   8   9
ATOM      9  C   LIG d   1     -15.152  62.463 117.672  0.00  0.00     0.028 C 
ATOM     10  C   LIG d   1     -15.041  61.745 119.028  0.00  0.00     0.006 C 
ENDBRANCH   8   9
BRANCH   8  11
ATOM     11  C   LIG d   1     -15.597  64.322 119.194  0.00  0.00     0.028 C 
ATOM     12  C   LIG d   1     -14.735  65.594 119.202  0.00  0.00     0.006 C 
ENDBRANCH   8  11
ENDBRANCH   7   8
ENDBRANCH   1   7
BRANCH   6  13
ATOM     13  N   LIG d   1     -17.230  66.197 116.150  0.00  0.00    -0.311 N 
ATOM     14  C   LIG d   1     -16.295  67.126 116.346  0.00  0.00     0.210 C 
ATOM     15  C   LIG d   1     -16.797  68.421 116.991  0.00  0.00     0.109 C 
ATOM     16  O   LIG d   1     -15.105  67.012 116.017  0.00  0.00    -0.276 OA
ATOM     17  H   LIG d   1     -18.176  66.385 116.418  0.00  0.00     0.149 HD
ENDBRANCH   6  13
BRANCH   5  18
ATOM     18  N   LIG d   1     -16.265  65.732 113.289  0.00  0.00     0.381 N 
ATOM     19  H   LIG d   1     -15.777  66.324 113.931  0.00  0.00    -0.090 HD
ATOM     20  H   LIG d   1     -16.806  66.313 112.673  0.00  0.00    -0.090 HD
ATOM     21  H   LIG d   1     -15.614  65.193 112.762  0.00  0.00    -0.090 HD
ENDBRANCH   5  18
BRANCH   3  22
ATOM     22  C   LIG d   1     -18.073  61.305 113.555  0.00  0.00     0.382 C 
ATOM     23  O   LIG d   1     -19.078  61.337 112.805  0.00  0.00    -0.241 OA
ATOM     24  O   LIG d   1     -17.468  60.229 113.725  0.00  0.00    -0.241 OA
ENDBRANCH   3  22
TORSDOF 7
ENDMDL
MODEL 4
REMARK VINA RESULT:      -4.3     12.357     15.370
REMARK  7 active torsions:
REMARK  status: ('A' for Active; 'I' for Inactive)
REMARK    1  A    between atoms: C_2  and  C_3 
REMARK    2  A    between atoms: C_3  and  O_6 
REMARK    3  A    between atoms: C_3  and  C_4 
REMARK    4  A    between atoms: C_7  and  O_6 
REMARK    5  A    between atoms: C_9  and  C_10 
REMARK    6  A    between atoms: N_15  and  C_14 
REMARK    7  A    between atoms: N_20  and  C_19 
REMARK       I    between atoms: C_22  and  N_20 
ROOT
ATOM      1  C   LIG d   1       4.452  87.797 116.798  0.00  0.00     0.161 C 
ATOM      2  C   LIG d   1       3.625  88.914 116.595  0.00  0.00     0.016 C 
ATOM      3  C   LIG d   1       4.104  90.245 116.585  0.00  0.00     0.038 C 
ATOM      4  C   LIG d   1       5.475  90.540 116.627  0.00  0.00     0.028 C 
ATOM      5  C   LIG d   1       6.302  89.474 117.338  0.00  0.00    -0.047 C 
ATOM      6  C   LIG d   1       5.965  88.091 116.735  0.00  0.00     0.091 C 
ENDROOT
BRANCH   1   7
ATOM      7  O   LIG d   1       4.104  86.756 115.864  0.00  0.00    -0.368 OA
BRANCH   7   8
ATOM      8  C   LIG d   1       3.516  87.192 114.614  0.00  0.00     0.119 C 
BRANCH   8   9
ATOM      9  C   LIG d   1       2.328  86.260 114.311  0.00  0.00     0.028 C 
ATOM     10  C   LIG d   1       1.955  85.375 115.512  0.00  0.00     0.006 C 
ENDBRANCH   8   9
BRANCH   8  11
ATOM     11  C   LIG d   1       4.488  87.003 113.445  0.00  0.00     0.028 C 
ATOM     12  C   LIG d   1       5.210  88.302 113.054  0.00  0.00     0.006 C 
ENDBRANCH   8  11
ENDBRANCH   7   8
ENDBRANCH   1   7
BRANCH   6  13
ATOM     13  N   LIG d   1       6.669  86.983 117.431  0.00  0.00    -0.311 N 
ATOM     14  C   LIG d   1       7.624  86.249 116.862  0.00  0.00     0.210 C 
ATOM     15  C   LIG d   1       8.204  85.143 117.749  0.00  0.00     0.109 C 
ATOM     16  O   LIG d   1       8.067  86.430 115.718  0.00  0.00    -0.276 OA
ATOM     17  H   LIG d   1       6.393  86.788 118.373  0.00  0.00     0.149 HD
ENDBRANCH   6  13
BRANCH   5  18
ATOM     18  N   LIG d   1       7.723  89.839 117.188  0.00  0.00     0.381 N 
ATOM     19  H   LIG d   1       8.302  89.088 117.507  0.00  0.00    -0.090 HD
ATOM     20  H   LIG d   1       7.913  90.647 117.755  0.00  0.00    -0.090 HD
ATOM     21  H   LIG d   1       7.925  90.041 116.233  0.00  0.00    -0.090 HD
ENDBRANCH   5  18
BRANCH   3  22
ATOM     22  C   LIG d   1       3.204  91.299 116.572  0.00  0.00     0.382 C 
ATOM     23  O   LIG d   1       3.623  92.481 116.523  0.00  0.00    -0.241 OA
ATOM     24  O   LIG d   1       1.979  91.085 116.653  0.00  0.00    -0.241 OA
ENDBRANCH   3  22
TORSDOF 7
ENDMDL
MODEL 5
REMARK VINA RESULT:      -4.2     15.381     17.241
REMARK  7 active torsions:
REMARK  status: ('A' for Active; 'I' for Inactive)
REMARK    1  A    between atoms: C_2  and  C_3 
REMARK    2  A    between atoms: C_3  and  O_6 
REMARK    3  A    between atoms: C_3  and  C_4 
REMARK    4  A    between atoms: C_7  and  O_6 
REMARK    5  A    between atoms: C_9  and  C_10 
REMARK    6  A    between atoms: N_15  and  C_14 
REMARK    7  A    between atoms: N_20  and  C_19 
REMARK       I    between atoms: C_22  and  N_20 
ROOT
ATOM      1  C   LIG d   1      -4.285  95.241 119.538  0.00  0.00     0.161 C 
ATOM      2  C   LIG d   1      -5.361  94.345 119.421  0.00  0.00     0.016 C 
ATOM      3  C   LIG d   1      -6.615  94.704 118.876  0.00  0.00     0.038 C 
ATOM      4  C   LIG d   1      -6.831  95.950 118.269  0.00  0.00     0.028 C 
ATOM      5  C   LIG d   1      -5.934  97.054 118.817  0.00  0.00    -0.047 C 
ATOM      6  C   LIG d   1      -4.466  96.572 118.780  0.00  0.00     0.091 C 
ENDROOT
BRANCH   1   7
ATOM      7  O   LIG d   1      -3.064  94.593 119.129  0.00  0.00    -0.368 OA
BRANCH   7   8
ATOM      8  C   LIG d   1      -3.149  93.167 118.886  0.00  0.00     0.119 C 
BRANCH   8   9
ATOM      9  C   LIG d   1      -1.925  92.510 119.553  0.00  0.00     0.028 C 
ATOM     10  C   LIG d   1      -1.065  91.720 118.553  0.00  0.00     0.006 C 
ENDBRANCH   8   9
BRANCH   8  11
ATOM     11  C   LIG d   1      -3.017  92.848 117.394  0.00  0.00     0.028 C 
ATOM     12  C   LIG d   1      -4.229  92.081 116.840  0.00  0.00     0.006 C 
ENDBRANCH   8  11
ENDBRANCH   7   8
ENDBRANCH   1   7
BRANCH   6  13
ATOM     13  N   LIG d   1      -3.529  97.560 119.377  0.00  0.00    -0.311 N 
ATOM     14  C   LIG d   1      -2.935  98.524 118.675  0.00  0.00     0.210 C 
ATOM     15  C   LIG d   1      -1.992  99.423 119.480  0.00  0.00     0.109 C 
ATOM     16  O   LIG d   1      -3.125  98.740 117.468  0.00  0.00    -0.276 OA
ATOM     17  H   LIG d   1      -3.343  97.478 120.357  0.00  0.00     0.149 HD
ENDBRANCH   6  13
BRANCH   5  18
ATOM     18  N   LIG d   1      -6.167  98.262 118.003  0.00  0.00     0.381 N 
ATOM     19  H   LIG d   1      -5.393  98.889 118.099  0.00  0.00    -0.090 HD
ATOM     20  H   LIG d   1      -6.992  98.727 118.340  0.00  0.00    -0.090 HD
ATOM     21  H   LIG d   1      -6.285  98.012 117.047  0.00  0.00    -0.090 HD
ENDBRANCH   5  18
BRANCH   3  22
ATOM     22  C   LIG d   1      -7.683  93.824 118.972  0.00  0.00     0.382 C 
ATOM     23  O   LIG d   1      -7.512  92.603 118.739  0.00  0.00    -0.241 OA
ATOM     24  O   LIG d   1      -8.824  94.242 119.245  0.00  0.00    -0.241 OA
ENDBRANCH   3  22
TORSDOF 7
ENDMDL
MODEL 6
REMARK VINA RESULT:      -4.2     13.413     16.235
REMARK  7 active torsions:
REMARK  status: ('A' for Active; 'I' for Inactive)
REMARK    1  A    between atoms: C_2  and  C_3 
REMARK    2  A    between atoms: C_3  and  O_6 
REMARK    3  A    between atoms: C_3  and  C_4 
REMARK    4  A    between atoms: C_7  and  O_6 
REMARK    5  A    between atoms: C_9  and  C_10 
REMARK    6  A    between atoms: N_15  and  C_14 
REMARK    7  A    between atoms: N_20  and  C_19 
REMARK       I    between atoms: C_22  and  N_20 
ROOT
ATOM      1  C   LIG d   1       4.727  89.921 115.486  0.00  0.00     0.161 C 
ATOM      2  C   LIG d   1       3.863  88.965 114.928  0.00  0.00     0.016 C 
ATOM      3  C   LIG d   1       4.017  87.572 115.117  0.00  0.00     0.038 C 
ATOM      4  C   LIG d   1       4.965  87.046 116.008  0.00  0.00     0.028 C 
ATOM      5  C   LIG d   1       6.181  87.945 116.199  0.00  0.00    -0.047 C 
ATOM      6  C   LIG d   1       5.700  89.372 116.550  0.00  0.00     0.091 C 
ENDROOT
BRANCH   1   7
ATOM      7  O   LIG d   1       3.961  91.016 116.026  0.00  0.00    -0.368 OA
BRANCH   7   8
ATOM      8  C   LIG d   1       3.240  90.746 117.253  0.00  0.00     0.119 C 
BRANCH   8   9
ATOM      9  C   LIG d   1       1.735  90.827 116.933  0.00  0.00     0.028 C 
ATOM     10  C   LIG d   1       1.016  89.485 117.152  0.00  0.00     0.006 C 
ENDBRANCH   8   9
BRANCH   8  11
ATOM     11  C   LIG d   1       3.492  91.837 118.299  0.00  0.00     0.028 C 
ATOM     12  C   LIG d   1       4.157  93.089 117.705  0.00  0.00     0.006 C 
ENDBRANCH   8  11
ENDBRANCH   7   8
ENDBRANCH   1   7
BRANCH   6  13
ATOM     13  N   LIG d   1       6.825  90.336 116.671  0.00  0.00    -0.311 N 
ATOM     14  C   LIG d   1       7.200  90.883 117.826  0.00  0.00     0.210 C 
ATOM     15  C   LIG d   1       8.370  91.866 117.726  0.00  0.00     0.109 C 
ATOM     16  O   LIG d   1       6.696  90.622 118.929  0.00  0.00    -0.276 OA
ATOM     17  H   LIG d   1       7.310  90.579 115.830  0.00  0.00     0.149 HD
ENDBRANCH   6  13
BRANCH   5  18
ATOM     18  N   LIG d   1       7.020  87.343 117.253  0.00  0.00     0.381 N 
ATOM     19  H   LIG d   1       6.649  86.451 117.512  0.00  0.00    -0.090 HD
ATOM     20  H   LIG d   1       7.004  87.939 118.062  0.00  0.00    -0.090 HD
ATOM     21  H   LIG d   1       7.955  87.239 116.926  0.00  0.00    -0.090 HD
ENDBRANCH   5  18
BRANCH   3  22
ATOM     22  C   LIG d   1       3.244  86.688 114.381  0.00  0.00     0.382 C 
ATOM     23  O   LIG d   1       3.537  85.469 114.356  0.00  0.00    -0.241 OA
ATOM     24  O   LIG d   1       2.282  87.102 113.705  0.00  0.00    -0.241 OA
ENDBRANCH   3  22
TORSDOF 7
ENDMDL
MODEL 7
REMARK VINA RESULT:      -4.1     15.665     18.287
REMARK  7 active torsions:
REMARK  status: ('A' for Active; 'I' for Inactive)
REMARK    1  A    between atoms: C_2  and  C_3 
REMARK    2  A    between atoms: C_3  and  O_6 
REMARK    3  A    between atoms: C_3  and  C_4 
REMARK    4  A    between atoms: C_7  and  O_6 
REMARK    5  A    between atoms: C_9  and  C_10 
REMARK    6  A    between atoms: N_15  and  C_14 
REMARK    7  A    between atoms: N_20  and  C_19 
REMARK       I    between atoms: C_22  and  N_20 
ROOT
ATOM      1  C   LIG d   1     -18.379  65.366 116.153  0.00  0.00     0.161 C 
ATOM      2  C   LIG d   1     -17.061  65.045 116.517  0.00  0.00     0.016 C 
ATOM      3  C   LIG d   1     -16.305  65.797 117.446  0.00  0.00     0.038 C 
ATOM      4  C   LIG d   1     -16.873  66.840 118.192  0.00  0.00     0.028 C 
ATOM      5  C   LIG d   1     -18.046  67.518 117.491  0.00  0.00    -0.047 C 
ATOM      6  C   LIG d   1     -19.053  66.435 117.039  0.00  0.00     0.091 C 
ENDROOT
BRANCH   1   7
ATOM      7  O   LIG d   1     -19.181  64.169 116.115  0.00  0.00    -0.368 OA
BRANCH   7   8
ATOM      8  C   LIG d   1     -19.591  63.718 114.801  0.00  0.00     0.119 C 
BRANCH   8   9
ATOM      9  C   LIG d   1     -18.792  62.439 114.481  0.00  0.00     0.028 C 
ATOM     10  C   LIG d   1     -17.563  62.719 113.600  0.00  0.00     0.006 C 
ENDBRANCH   8   9
BRANCH   8  11
ATOM     11  C   LIG d   1     -19.194  64.725 113.717  0.00  0.00     0.028 C 
ATOM     12  C   LIG d   1     -20.408  65.353 113.014  0.00  0.00     0.006 C 
ENDBRANCH   8  11
ENDBRANCH   7   8
ENDBRANCH   1   7
BRANCH   6  13
ATOM     13  N   LIG d   1     -20.190  67.005 116.270  0.00  0.00    -0.311 N 
ATOM     14  C   LIG d   1     -21.466  66.751 116.552  0.00  0.00     0.210 C 
ATOM     15  C   LIG d   1     -22.481  67.424 115.622  0.00  0.00     0.109 C 
ATOM     16  O   LIG d   1     -21.856  66.058 117.504  0.00  0.00    -0.276 OA
ATOM     17  H   LIG d   1     -19.965  67.604 115.499  0.00  0.00     0.149 HD
ENDBRANCH   6  13
BRANCH   5  18
ATOM     18  N   LIG d   1     -18.628  68.490 118.435  0.00  0.00     0.381 N 
ATOM     19  H   LIG d   1     -19.343  69.020 117.977  0.00  0.00    -0.090 HD
ATOM     20  H   LIG d   1     -17.908  69.125 118.733  0.00  0.00    -0.090 HD
ATOM     21  H   LIG d   1     -19.009  68.015 119.223  0.00  0.00    -0.090 HD
ENDBRANCH   5  18
BRANCH   3  22
ATOM     22  C   LIG d   1     -14.954  65.531 117.607  0.00  0.00     0.382 C 
ATOM     23  O   LIG d   1     -14.101  66.372 117.233  0.00  0.00    -0.241 OA
ATOM     24  O   LIG d   1     -14.576  64.444 118.081  0.00  0.00    -0.241 OA
ENDBRANCH   3  22
TORSDOF 7
ENDMDL
MODEL 8
REMARK VINA RESULT:      -4.1      2.239      3.206
REMARK  7 active torsions:
REMARK  status: ('A' for Active; 'I' for Inactive)
REMARK    1  A    between atoms: C_2  and  C_3 
REMARK    2  A    between atoms: C_3  and  O_6 
REMARK    3  A    between atoms: C_3  and  C_4 
REMARK    4  A    between atoms: C_7  and  O_6 
REMARK    5  A    between atoms: C_9  and  C_10 
REMARK    6  A    between atoms: N_15  and  C_14 
REMARK    7  A    between atoms: N_20  and  C_19 
REMARK       I    between atoms: C_22  and  N_20 
ROOT
ATOM      1  C   LIG d   1      -4.788  77.178 118.283  0.00  0.00     0.161 C 
ATOM      2  C   LIG d   1      -5.982  77.884 118.060  0.00  0.00     0.016 C 
ATOM      3  C   LIG d   1      -6.021  79.233 117.636  0.00  0.00     0.038 C 
ATOM      4  C   LIG d   1      -4.861  79.926 117.260  0.00  0.00     0.028 C 
ATOM      5  C   LIG d   1      -3.600  79.416 117.950  0.00  0.00    -0.047 C 
ATOM      6  C   LIG d   1      -3.515  77.883 117.771  0.00  0.00     0.091 C 
ENDROOT
BRANCH   1   7
ATOM      7  O   LIG d   1      -4.890  75.856 117.720  0.00  0.00    -0.368 OA
BRANCH   7   8
ATOM      8  C   LIG d   1      -4.400  75.700 116.365  0.00  0.00     0.119 C 
BRANCH   8   9
ATOM      9  C   LIG d   1      -5.616  75.422 115.461  0.00  0.00     0.028 C 
ATOM     10  C   LIG d   1      -5.767  73.929 115.123  0.00  0.00     0.006 C 
ENDBRANCH   8   9
BRANCH   8  11
ATOM     11  C   LIG d   1      -3.506  74.463 116.235  0.00  0.00     0.028 C 
ATOM     12  C   LIG d   1      -3.096  73.879 117.595  0.00  0.00     0.006 C 
ENDBRANCH   8  11
ENDBRANCH   7   8
ENDBRANCH   1   7
BRANCH   6  13
ATOM     13  N   LIG d   1      -2.355  77.292 118.488  0.00  0.00    -0.311 N 
ATOM     14  C   LIG d   1      -1.193  77.015 117.899  0.00  0.00     0.210 C 
ATOM     15  C   LIG d   1      -0.136  76.391 118.816  0.00  0.00     0.109 C 
ATOM     16  O   LIG d   1      -0.926  77.255 116.712  0.00  0.00    -0.276 OA
ATOM     17  H   LIG d   1      -2.474  77.094 119.462  0.00  0.00     0.149 HD
ENDBRANCH   6  13
BRANCH   5  18
ATOM     18  N   LIG d   1      -2.451  80.132 117.364  0.00  0.00     0.381 N 
ATOM     19  H   LIG d   1      -2.075  80.773 118.033  0.00  0.00    -0.090 HD
ATOM     20  H   LIG d   1      -2.766  80.656 116.567  0.00  0.00    -0.090 HD
ATOM     21  H   LIG d   1      -1.749  79.481 117.087  0.00  0.00    -0.090 HD
ENDBRANCH   5  18
BRANCH   3  22
ATOM     22  C   LIG d   1      -7.228  79.915 117.625  0.00  0.00     0.382 C 
ATOM     23  O   LIG d   1      -7.260  81.128 117.307  0.00  0.00    -0.241 OA
ATOM     24  O   LIG d   1      -8.280  79.344 117.971  0.00  0.00    -0.241 OA
ENDBRANCH   3  22
TORSDOF 7
ENDMDL
MODEL 9
REMARK VINA RESULT:      -4.0     13.535     15.267
REMARK  7 active torsions:
REMARK  status: ('A' for Active; 'I' for Inactive)
REMARK    1  A    between atoms: C_2  and  C_3 
REMARK    2  A    between atoms: C_3  and  O_6 
REMARK    3  A    between atoms: C_3  and  C_4 
REMARK    4  A    between atoms: C_7  and  O_6 
REMARK    5  A    between atoms: C_9  and  C_10 
REMARK    6  A    between atoms: N_15  and  C_14 
REMARK    7  A    between atoms: N_20  and  C_19 
REMARK       I    between atoms: C_22  and  N_20 
ROOT
ATOM      1  C   LIG d   1       4.085  89.455 115.783  0.00  0.00     0.161 C 
ATOM      2  C   LIG d   1       2.696  89.299 115.928  0.00  0.00     0.016 C 
ATOM      3  C   LIG d   1       1.905  90.115 116.768  0.00  0.00     0.038 C 
ATOM      4  C   LIG d   1       2.429  91.248 117.410  0.00  0.00     0.028 C 
ATOM      5  C   LIG d   1       3.924  91.146 117.692  0.00  0.00    -0.047 C 
ATOM      6  C   LIG d   1       4.656  90.755 116.388  0.00  0.00     0.091 C 
ENDROOT
BRANCH   1   7
ATOM      7  O   LIG d   1       4.445  89.350 114.391  0.00  0.00    -0.368 OA
BRANCH   7   8
ATOM      8  C   LIG d   1       5.265  88.211 114.030  0.00  0.00     0.119 C 
BRANCH   8   9
ATOM      9  C   LIG d   1       4.609  87.538 112.809  0.00  0.00     0.028 C 
ATOM     10  C   LIG d   1       3.374  86.705 113.191  0.00  0.00     0.006 C 
ENDBRANCH   8   9
BRANCH   8  11
ATOM     11  C   LIG d   1       5.258  87.147 115.132  0.00  0.00     0.028 C 
ATOM     12  C   LIG d   1       6.671  86.757 115.592  0.00  0.00     0.006 C 
ENDBRANCH   8  11
ENDBRANCH   7   8
ENDBRANCH   1   7
BRANCH   6  13
ATOM     13  N   LIG d   1       6.114  90.551 116.595  0.00  0.00    -0.311 N 
ATOM     14  C   LIG d   1       6.616  89.754 117.536  0.00  0.00     0.210 C 
ATOM     15  C   LIG d   1       8.146  89.703 117.591  0.00  0.00     0.109 C 
ATOM     16  O   LIG d   1       5.940  89.060 118.310  0.00  0.00    -0.276 OA
ATOM     17  H   LIG d   1       6.734  91.052 115.990  0.00  0.00     0.149 HD
ENDBRANCH   6  13
BRANCH   5  18
ATOM     18  N   LIG d   1       4.365  92.444 118.235  0.00  0.00     0.381 N 
ATOM     19  H   LIG d   1       5.319  92.611 117.984  0.00  0.00    -0.090 HD
ATOM     20  H   LIG d   1       4.304  92.415 119.238  0.00  0.00    -0.090 HD
ATOM     21  H   LIG d   1       3.788  93.175 117.881  0.00  0.00    -0.090 HD
ENDBRANCH   5  18
BRANCH   3  22
ATOM     22  C   LIG d   1       0.581  89.778 117.006  0.00  0.00     0.382 C 
ATOM     23  O   LIG d   1       0.222  88.577 116.960  0.00  0.00    -0.241 OA
ATOM     24  O   LIG d   1      -0.268  90.664 117.222  0.00  0.00    -0.241 OA
ENDBRANCH   3  22
TORSDOF 7
ENDMDL
