MODEL 1
REMARK VINA RESULT:      -5.6      0.000      0.000
REMARK  7 active torsions:
REMARK  status: ('A' for Active; 'I' for Inactive)
REMARK    1  A    between atoms: C_2  and  C_3 
REMARK    2  A    between atoms: C_3  and  O_6 
REMARK    3  A    between atoms: C_3  and  C_4 
REMARK    4  A    between atoms: C_7  and  O_6 
REMARK    5  A    between atoms: C_9  and  C_10 
REMARK    6  A    between atoms: N_15  and  C_14 
REMARK    7  A    between atoms: N_20  and  C_19 
REMARK       I    between atoms: C_22  and  N_20 
ROOT
ATOM      1  C   LIG d   1      -2.826  77.252 116.614  0.00  0.00     0.161 C 
ATOM      2  C   LIG d   1      -2.954  78.345 115.741  0.00  0.00     0.016 C 
ATOM      3  C   LIG d   1      -2.017  78.644 114.726  0.00  0.00     0.038 C 
ATOM      4  C   LIG d   1      -0.959  77.777 114.415  0.00  0.00     0.028 C 
ATOM      5  C   LIG d   1      -0.505  76.927 115.596  0.00  0.00    -0.047 C 
ATOM      6  C   LIG d   1      -1.738  76.232 116.218  0.00  0.00     0.091 C 
ENDROOT
BRANCH   1   7
ATOM      7  O   LIG d   1      -4.100  76.594 116.762  0.00  0.00    -0.368 OA
BRANCH   7   8
ATOM      8  C   LIG d   1      -4.804  76.284 115.534  0.00  0.00     0.119 C 
BRANCH   8   9
ATOM      9  C   LIG d   1      -6.312  76.429 115.816  0.00  0.00     0.028 C 
ATOM     10  C   LIG d   1      -6.595  77.241 117.091  0.00  0.00     0.006 C 
ENDBRANCH   8   9
BRANCH   8  11
ATOM     11  C   LIG d   1      -4.606  74.819 115.133  0.00  0.00     0.028 C 
ATOM     12  C   LIG d   1      -5.879  73.977 115.304  0.00  0.00     0.006 C 
ENDBRANCH   8  11
ENDBRANCH   7   8
ENDBRANCH   1   7
BRANCH   6  13
ATOM     13  N   LIG d   1      -1.395  75.447 117.432  0.00  0.00    -0.311 N 
ATOM     14  C   LIG d   1      -1.258  74.122 117.434  0.00  0.00     0.210 C 
ATOM     15  C   LIG d   1      -0.921  73.509 118.796  0.00  0.00     0.109 C 
ATOM     16  O   LIG d   1      -1.351  73.400 116.430  0.00  0.00    -0.276 OA
ATOM     17  H   LIG d   1      -1.270  75.957 118.285  0.00  0.00     0.149 HD
ENDBRANCH   6  13
BRANCH   5  18
ATOM     18  N   LIG d   1       0.505  75.974 115.099  0.00  0.00     0.381 N 
ATOM     19  H   LIG d   1       0.927  75.494 115.869  0.00  0.00    -0.090 HD
ATOM     20  H   LIG d   1       1.223  76.485 114.614  0.00  0.00    -0.090 HD
ATOM     21  H   LIG d   1       0.080  75.318 114.481  0.00  0.00    -0.090 HD
ENDBRANCH   5  18
BRANCH   3  22
ATOM     22  C   LIG d   1      -2.110  79.843 114.035  0.00  0.00     0.382 C 
ATOM     23  O   LIG d   1      -1.075  80.508 113.791  0.00  0.00    -0.241 OA
ATOM     24  O   LIG d   1      -3.221  80.290 113.692  0.00  0.00    -0.241 OA
ENDBRANCH   3  22
TORSDOF 7
ENDMDL
MODEL 2
REMARK VINA RESULT:      -5.5      2.933      5.913
REMARK  7 active torsions:
REMARK  status: ('A' for Active; 'I' for Inactive)
REMARK    1  A    between atoms: C_2  and  C_3 
REMARK    2  A    between atoms: C_3  and  O_6 
REMARK    3  A    between atoms: C_3  and  C_4 
REMARK    4  A    between atoms: C_7  and  O_6 
REMARK    5  A    between atoms: C_9  and  C_10 
REMARK    6  A    between atoms: N_15  and  C_14 
REMARK    7  A    between atoms: N_20  and  C_19 
REMARK       I    between atoms: C_22  and  N_20 
ROOT
ATOM      1  C   LIG d   1      -5.729  77.255 116.611  0.00  0.00     0.161 C 
ATOM      2  C   LIG d   1      -7.043  76.927 116.985  0.00  0.00     0.016 C 
ATOM      3  C   LIG d   1      -7.830  77.726 117.846  0.00  0.00     0.038 C 
ATOM      4  C   LIG d   1      -7.407  78.993 118.274  0.00  0.00     0.028 C 
ATOM      5  C   LIG d   1      -5.890  79.137 118.332  0.00  0.00    -0.047 C 
ATOM      6  C   LIG d   1      -5.291  78.688 116.979  0.00  0.00     0.091 C 
ENDROOT
BRANCH   1   7
ATOM      7  O   LIG d   1      -5.551  77.023 115.200  0.00  0.00    -0.368 OA
BRANCH   7   8
ATOM      8  C   LIG d   1      -4.620  75.973 114.839  0.00  0.00     0.119 C 
BRANCH   8   9
ATOM      9  C   LIG d   1      -5.443  74.798 114.276  0.00  0.00     0.028 C 
ATOM     10  C   LIG d   1      -5.827  73.778 115.361  0.00  0.00     0.006 C 
ENDBRANCH   8   9
BRANCH   8  11
ATOM     11  C   LIG d   1      -3.905  75.414 116.073  0.00  0.00     0.028 C 
ATOM     12  C   LIG d   1      -2.379  75.351 115.900  0.00  0.00     0.006 C 
ENDBRANCH   8  11
ENDBRANCH   7   8
ENDBRANCH   1   7
BRANCH   6  13
ATOM     13  N   LIG d   1      -3.805  78.718 116.978  0.00  0.00    -0.311 N 
ATOM     14  C   LIG d   1      -3.083  79.227 115.982  0.00  0.00     0.210 C 
ATOM     15  C   LIG d   1      -1.565  79.140 116.173  0.00  0.00     0.109 C 
ATOM     16  O   LIG d   1      -3.555  79.771 114.972  0.00  0.00    -0.276 OA
ATOM     17  H   LIG d   1      -3.341  78.326 117.774  0.00  0.00     0.149 HD
ENDBRANCH   6  13
BRANCH   5  18
ATOM     18  N   LIG d   1      -5.588  80.544 118.659  0.00  0.00     0.381 N 
ATOM     19  H   LIG d   1      -6.407  81.104 118.530  0.00  0.00    -0.090 HD
ATOM     20  H   LIG d   1      -4.876  80.877 118.033  0.00  0.00    -0.090 HD
ATOM     21  H   LIG d   1      -5.272  80.615 119.601  0.00  0.00    -0.090 HD
ENDBRANCH   5  18
BRANCH   3  22
ATOM     22  C   LIG d   1      -9.039  77.240 118.320  0.00  0.00     0.382 C 
ATOM     23  O   LIG d   1     -10.085  77.917 118.178  0.00  0.00    -0.241 OA
ATOM     24  O   LIG d   1      -9.089  76.154 118.927  0.00  0.00    -0.241 OA
ENDBRANCH   3  22
TORSDOF 7
ENDMDL
MODEL 3
REMARK VINA RESULT:      -5.3      2.695      3.939
REMARK  7 active torsions:
REMARK  status: ('A' for Active; 'I' for Inactive)
REMARK    1  A    between atoms: C_2  and  C_3 
REMARK    2  A    between atoms: C_3  and  O_6 
REMARK    3  A    between atoms: C_3  and  C_4 
REMARK    4  A    between atoms: C_7  and  O_6 
REMARK    5  A    between atoms: C_9  and  C_10 
REMARK    6  A    between atoms: N_15  and  C_14 
REMARK    7  A    between atoms: N_20  and  C_19 
REMARK       I    between atoms: C_22  and  N_20 
ROOT
ATOM      1  C   LIG d   1      -5.566  77.445 116.992  0.00  0.00     0.161 C 
ATOM      2  C   LIG d   1      -6.229  78.672 117.156  0.00  0.00     0.016 C 
ATOM      3  C   LIG d   1      -5.556  79.908 117.296  0.00  0.00     0.038 C 
ATOM      4  C   LIG d   1      -4.167  80.019 117.127  0.00  0.00     0.028 C 
ATOM      5  C   LIG d   1      -3.412  78.737 117.463  0.00  0.00    -0.047 C 
ATOM      6  C   LIG d   1      -4.056  77.560 116.695  0.00  0.00     0.091 C 
ENDROOT
BRANCH   1   7
ATOM      7  O   LIG d   1      -6.220  76.669 115.969  0.00  0.00    -0.368 OA
BRANCH   7   8
ATOM      8  C   LIG d   1      -6.830  75.428 116.401  0.00  0.00     0.119 C 
BRANCH   8   9
ATOM      9  C   LIG d   1      -6.352  74.319 115.444  0.00  0.00     0.028 C 
ATOM     10  C   LIG d   1      -5.446  74.860 114.325  0.00  0.00     0.006 C 
ENDBRANCH   8   9
BRANCH   8  11
ATOM     11  C   LIG d   1      -8.353  75.472 116.245  0.00  0.00     0.028 C 
ATOM     12  C   LIG d   1      -9.045  76.264 117.365  0.00  0.00     0.006 C 
ENDBRANCH   8  11
ENDBRANCH   7   8
ENDBRANCH   1   7
BRANCH   6  13
ATOM     13  N   LIG d   1      -3.430  76.255 117.031  0.00  0.00    -0.311 N 
ATOM     14  C   LIG d   1      -2.468  75.693 116.301  0.00  0.00     0.210 C 
ATOM     15  C   LIG d   1      -1.976  74.336 116.814  0.00  0.00     0.109 C 
ATOM     16  O   LIG d   1      -1.953  76.205 115.296  0.00  0.00    -0.276 OA
ATOM     17  H   LIG d   1      -3.767  75.785 117.849  0.00  0.00     0.149 HD
ENDBRANCH   6  13
BRANCH   5  18
ATOM     18  N   LIG d   1      -1.995  78.950 117.112  0.00  0.00     0.381 N 
ATOM     19  H   LIG d   1      -1.431  78.240 117.535  0.00  0.00    -0.090 HD
ATOM     20  H   LIG d   1      -1.702  79.841 117.473  0.00  0.00    -0.090 HD
ATOM     21  H   LIG d   1      -1.882  78.930 116.123  0.00  0.00    -0.090 HD
ENDBRANCH   5  18
BRANCH   3  22
ATOM     22  C   LIG d   1      -6.270  81.044 117.646  0.00  0.00     0.382 C 
ATOM     23  O   LIG d   1      -7.200  81.451 116.910  0.00  0.00    -0.241 OA
ATOM     24  O   LIG d   1      -5.966  81.691 118.666  0.00  0.00    -0.241 OA
ENDBRANCH   3  22
TORSDOF 7
ENDMDL
MODEL 4
REMARK VINA RESULT:      -5.1     13.377     15.643
REMARK  7 active torsions:
REMARK  status: ('A' for Active; 'I' for Inactive)
REMARK    1  A    between atoms: C_2  and  C_3 
REMARK    2  A    between atoms: C_3  and  O_6 
REMARK    3  A    between atoms: C_3  and  C_4 
REMARK    4  A    between atoms: C_7  and  O_6 
REMARK    5  A    between atoms: C_9  and  C_10 
REMARK    6  A    between atoms: N_15  and  C_14 
REMARK    7  A    between atoms: N_20  and  C_19 
REMARK       I    between atoms: C_22  and  N_20 
ROOT
ATOM      1  C   LIG d   1      -4.846  91.899 116.854  0.00  0.00     0.161 C 
ATOM      2  C   LIG d   1      -6.037  92.208 116.177  0.00  0.00     0.016 C 
ATOM      3  C   LIG d   1      -6.629  91.356 115.216  0.00  0.00     0.038 C 
ATOM      4  C   LIG d   1      -6.146  90.061 114.977  0.00  0.00     0.028 C 
ATOM      5  C   LIG d   1      -4.657  89.905 115.268  0.00  0.00    -0.047 C 
ATOM      6  C   LIG d   1      -4.365  90.442 116.688  0.00  0.00     0.091 C 
ENDROOT
BRANCH   1   7
ATOM      7  O   LIG d   1      -4.980  92.226 118.252  0.00  0.00    -0.368 OA
BRANCH   7   8
ATOM      8  C   LIG d   1      -4.566  93.559 118.638  0.00  0.00     0.119 C 
BRANCH   8   9
ATOM      9  C   LIG d   1      -3.318  93.417 119.531  0.00  0.00     0.028 C 
ATOM     10  C   LIG d   1      -2.009  93.559 118.737  0.00  0.00     0.006 C 
ENDBRANCH   8   9
BRANCH   8  11
ATOM     11  C   LIG d   1      -5.619  94.237 119.518  0.00  0.00     0.028 C 
ATOM     12  C   LIG d   1      -6.421  95.313 118.768  0.00  0.00     0.006 C 
ENDBRANCH   8  11
ENDBRANCH   7   8
ENDBRANCH   1   7
BRANCH   6  13
ATOM     13  N   LIG d   1      -2.917  90.405 117.021  0.00  0.00    -0.311 N 
ATOM     14  C   LIG d   1      -2.424  89.757 118.075  0.00  0.00     0.210 C 
ATOM     15  C   LIG d   1      -0.906  89.863 118.247  0.00  0.00     0.109 C 
ATOM     16  O   LIG d   1      -3.096  89.079 118.866  0.00  0.00    -0.276 OA
ATOM     17  H   LIG d   1      -2.297  90.904 116.414  0.00  0.00     0.149 HD
ENDBRANCH   6  13
BRANCH   5  18
ATOM     18  N   LIG d   1      -4.319  88.478 115.109  0.00  0.00     0.381 N 
ATOM     19  H   LIG d   1      -5.148  87.953 114.917  0.00  0.00    -0.090 HD
ATOM     20  H   LIG d   1      -3.923  88.140 115.968  0.00  0.00    -0.090 HD
ATOM     21  H   LIG d   1      -3.665  88.364 114.366  0.00  0.00    -0.090 HD
ENDBRANCH   5  18
BRANCH   3  22
ATOM     22  C   LIG d   1      -7.693  91.814 114.454  0.00  0.00     0.382 C 
ATOM     23  O   LIG d   1      -7.639  91.754 113.202  0.00  0.00    -0.241 OA
ATOM     24  O   LIG d   1      -8.687  92.327 115.002  0.00  0.00    -0.241 OA
ENDBRANCH   3  22
TORSDOF 7
ENDMDL
MODEL 5
REMARK VINA RESULT:      -5.0      2.555      4.662
REMARK  7 active torsions:
REMARK  status: ('A' for Active; 'I' for Inactive)
REMARK    1  A    between atoms: C_2  and  C_3 
REMARK    2  A    between atoms: C_3  and  O_6 
REMARK    3  A    between atoms: C_3  and  C_4 
REMARK    4  A    between atoms: C_7  and  O_6 
REMARK    5  A    between atoms: C_9  and  C_10 
REMARK    6  A    between atoms: N_15  and  C_14 
REMARK    7  A    between atoms: N_20  and  C_19 
REMARK       I    between atoms: C_22  and  N_20 
ROOT
ATOM      1  C   LIG d   1      -1.680  77.062 114.606  0.00  0.00     0.161 C 
ATOM      2  C   LIG d   1      -0.514  77.760 114.962  0.00  0.00     0.016 C 
ATOM      3  C   LIG d   1      -0.412  78.564 116.121  0.00  0.00     0.038 C 
ATOM      4  C   LIG d   1      -1.428  78.603 117.087  0.00  0.00     0.028 C 
ATOM      5  C   LIG d   1      -2.814  78.316 116.521  0.00  0.00    -0.047 C 
ATOM      6  C   LIG d   1      -2.761  77.004 115.705  0.00  0.00     0.091 C 
ENDROOT
BRANCH   1   7
ATOM      7  O   LIG d   1      -1.338  75.731 114.168  0.00  0.00    -0.368 OA
BRANCH   7   8
ATOM      8  C   LIG d   1      -0.153  75.149 114.765  0.00  0.00     0.119 C 
BRANCH   8   9
ATOM      9  C   LIG d   1       0.577  74.355 113.664  0.00  0.00     0.028 C 
ATOM     10  C   LIG d   1       0.113  72.891 113.591  0.00  0.00     0.006 C 
ENDBRANCH   8   9
BRANCH   8  11
ATOM     11  C   LIG d   1      -0.519  74.116 115.835  0.00  0.00     0.028 C 
ATOM     12  C   LIG d   1      -0.315  74.641 117.265  0.00  0.00     0.006 C 
ENDBRANCH   8  11
ENDBRANCH   7   8
ENDBRANCH   1   7
BRANCH   6  13
ATOM     13  N   LIG d   1      -4.056  76.693 115.046  0.00  0.00    -0.311 N 
ATOM     14  C   LIG d   1      -4.611  75.482 115.054  0.00  0.00     0.210 C 
ATOM     15  C   LIG d   1      -5.939  75.374 114.298  0.00  0.00     0.109 C 
ATOM     16  O   LIG d   1      -4.145  74.495 115.643  0.00  0.00    -0.276 OA
ATOM     17  H   LIG d   1      -4.518  77.444 114.571  0.00  0.00     0.149 HD
ENDBRANCH   6  13
BRANCH   5  18
ATOM     18  N   LIG d   1      -3.755  78.253 117.656  0.00  0.00     0.381 N 
ATOM     19  H   LIG d   1      -3.587  77.423 118.189  0.00  0.00    -0.090 HD
ATOM     20  H   LIG d   1      -4.693  78.214 117.298  0.00  0.00    -0.090 HD
ATOM     21  H   LIG d   1      -3.645  79.056 118.235  0.00  0.00    -0.090 HD
ENDBRANCH   5  18
BRANCH   3  22
ATOM     22  C   LIG d   1       0.701  79.371 116.301  0.00  0.00     0.382 C 
ATOM     23  O   LIG d   1       1.436  79.210 117.306  0.00  0.00    -0.241 OA
ATOM     24  O   LIG d   1       0.954  80.287 115.496  0.00  0.00    -0.241 OA
ENDBRANCH   3  22
TORSDOF 7
ENDMDL
MODEL 6
REMARK VINA RESULT:      -4.9     15.553     18.351
REMARK  7 active torsions:
REMARK  status: ('A' for Active; 'I' for Inactive)
REMARK    1  A    between atoms: C_2  and  C_3 
REMARK    2  A    between atoms: C_3  and  O_6 
REMARK    3  A    between atoms: C_3  and  C_4 
REMARK    4  A    between atoms: C_7  and  O_6 
REMARK    5  A    between atoms: C_9  and  C_10 
REMARK    6  A    between atoms: N_15  and  C_14 
REMARK    7  A    between atoms: N_20  and  C_19 
REMARK       I    between atoms: C_22  and  N_20 
ROOT
ATOM      1  C   LIG d   1     -16.213  64.302 115.586  0.00  0.00     0.161 C 
ATOM      2  C   LIG d   1     -15.934  65.511 114.927  0.00  0.00     0.016 C 
ATOM      3  C   LIG d   1     -15.102  66.518 115.468  0.00  0.00     0.038 C 
ATOM      4  C   LIG d   1     -14.366  66.318 116.645  0.00  0.00     0.028 C 
ATOM      5  C   LIG d   1     -15.008  65.315 117.598  0.00  0.00    -0.047 C 
ATOM      6  C   LIG d   1     -15.330  64.019 116.820  0.00  0.00     0.091 C 
ENDROOT
BRANCH   1   7
ATOM      7  O   LIG d   1     -16.133  63.207 114.652  0.00  0.00    -0.368 OA
BRANCH   7   8
ATOM      8  C   LIG d   1     -17.381  62.538 114.346  0.00  0.00     0.119 C 
BRANCH   8   9
ATOM      9  C   LIG d   1     -18.501  63.280 115.100  0.00  0.00     0.028 C 
ATOM     10  C   LIG d   1     -19.550  63.882 114.150  0.00  0.00     0.006 C 
ENDBRANCH   8   9
BRANCH   8  11
ATOM     11  C   LIG d   1     -17.398  61.109 114.899  0.00  0.00     0.028 C 
ATOM     12  C   LIG d   1     -18.461  60.905 115.990  0.00  0.00     0.006 C 
ENDBRANCH   8  11
ENDBRANCH   7   8
ENDBRANCH   1   7
BRANCH   6  13
ATOM     13  N   LIG d   1     -16.037  63.016 117.658  0.00  0.00    -0.311 N 
ATOM     14  C   LIG d   1     -15.419  62.015 118.281  0.00  0.00     0.210 C 
ATOM     15  C   LIG d   1     -16.337  61.082 119.077  0.00  0.00     0.109 C 
ATOM     16  O   LIG d   1     -14.192  61.829 118.276  0.00  0.00    -0.276 OA
ATOM     17  H   LIG d   1     -17.031  63.110 117.742  0.00  0.00     0.149 HD
ENDBRANCH   6  13
BRANCH   5  18
ATOM     18  N   LIG d   1     -14.070  65.100 118.716  0.00  0.00     0.381 N 
ATOM     19  H   LIG d   1     -13.966  64.120 118.887  0.00  0.00    -0.090 HD
ATOM     20  H   LIG d   1     -14.447  65.526 119.544  0.00  0.00    -0.090 HD
ATOM     21  H   LIG d   1     -13.184  65.502 118.501  0.00  0.00    -0.090 HD
ENDBRANCH   5  18
BRANCH   3  22
ATOM     22  C   LIG d   1     -15.031  67.757 114.849  0.00  0.00     0.382 C 
ATOM     23  O   LIG d   1     -15.487  68.773 115.426  0.00  0.00    -0.241 OA
ATOM     24  O   LIG d   1     -14.557  67.864 113.702  0.00  0.00    -0.241 OA
ENDBRANCH   3  22
TORSDOF 7
ENDMDL
MODEL 7
REMARK VINA RESULT:      -4.8      2.435      4.737
REMARK  7 active torsions:
REMARK  status: ('A' for Active; 'I' for Inactive)
REMARK    1  A    between atoms: C_2  and  C_3 
REMARK    2  A    between atoms: C_3  and  O_6 
REMARK    3  A    between atoms: C_3  and  C_4 
REMARK    4  A    between atoms: C_7  and  O_6 
REMARK    5  A    between atoms: C_9  and  C_10 
REMARK    6  A    between atoms: N_15  and  C_14 
REMARK    7  A    between atoms: N_20  and  C_19 
REMARK       I    between atoms: C_22  and  N_20 
ROOT
ATOM      1  C   LIG d   1      -2.780  76.763 117.202  0.00  0.00     0.161 C 
ATOM      2  C   LIG d   1      -3.623  75.984 116.393  0.00  0.00     0.016 C 
ATOM      3  C   LIG d   1      -3.884  76.274 115.034  0.00  0.00     0.038 C 
ATOM      4  C   LIG d   1      -3.195  77.284 114.346  0.00  0.00     0.028 C 
ATOM      5  C   LIG d   1      -2.712  78.412 115.251  0.00  0.00    -0.047 C 
ATOM      6  C   LIG d   1      -1.933  77.804 116.440  0.00  0.00     0.091 C 
ENDROOT
BRANCH   1   7
ATOM      7  O   LIG d   1      -1.930  75.907 117.990  0.00  0.00    -0.368 OA
BRANCH   7   8
ATOM      8  C   LIG d   1      -1.709  74.573 117.468  0.00  0.00     0.119 C 
BRANCH   8   9
ATOM      9  C   LIG d   1      -1.468  73.639 118.670  0.00  0.00     0.028 C 
ATOM     10  C   LIG d   1      -0.108  73.888 119.343  0.00  0.00     0.006 C 
ENDBRANCH   8   9
BRANCH   8  11
ATOM     11  C   LIG d   1      -0.424  74.506 116.638  0.00  0.00     0.028 C 
ATOM     12  C   LIG d   1      -0.619  73.787 115.294  0.00  0.00     0.006 C 
ENDBRANCH   8  11
ENDBRANCH   7   8
ENDBRANCH   1   7
BRANCH   6  13
ATOM     13  N   LIG d   1      -1.498  78.834 117.419  0.00  0.00    -0.311 N 
ATOM     14  C   LIG d   1      -0.315  79.444 117.364  0.00  0.00     0.210 C 
ATOM     15  C   LIG d   1      -0.058  80.458 118.482  0.00  0.00     0.109 C 
ATOM     16  O   LIG d   1       0.533  79.264 116.477  0.00  0.00    -0.276 OA
ATOM     17  H   LIG d   1      -2.137  79.063 118.154  0.00  0.00     0.149 HD
ENDBRANCH   6  13
BRANCH   5  18
ATOM     18  N   LIG d   1      -1.894  79.324 114.429  0.00  0.00     0.381 N 
ATOM     19  H   LIG d   1      -1.779  78.942 113.512  0.00  0.00    -0.090 HD
ATOM     20  H   LIG d   1      -0.986  79.413 114.849  0.00  0.00    -0.090 HD
ATOM     21  H   LIG d   1      -2.331  80.217 114.373  0.00  0.00    -0.090 HD
ENDBRANCH   5  18
BRANCH   3  22
ATOM     22  C   LIG d   1      -4.873  75.574 114.360  0.00  0.00     0.382 C 
ATOM     23  O   LIG d   1      -5.291  74.483 114.816  0.00  0.00    -0.241 OA
ATOM     24  O   LIG d   1      -5.321  75.999 113.278  0.00  0.00    -0.241 OA
ENDBRANCH   3  22
TORSDOF 7
ENDMDL
MODEL 8
REMARK VINA RESULT:      -4.8      2.079      4.287
REMARK  7 active torsions:
REMARK  status: ('A' for Active; 'I' for Inactive)
REMARK    1  A    between atoms: C_2  and  C_3 
REMARK    2  A    between atoms: C_3  and  O_6 
REMARK    3  A    between atoms: C_3  and  C_4 
REMARK    4  A    between atoms: C_7  and  O_6 
REMARK    5  A    between atoms: C_9  and  C_10 
REMARK    6  A    between atoms: N_15  and  C_14 
REMARK    7  A    between atoms: N_20  and  C_19 
REMARK       I    between atoms: C_22  and  N_20 
ROOT
ATOM      1  C   LIG d   1      -3.330  76.688 114.627  0.00  0.00     0.161 C 
ATOM      2  C   LIG d   1      -2.704  77.811 114.062  0.00  0.00     0.016 C 
ATOM      3  C   LIG d   1      -2.791  79.110 114.615  0.00  0.00     0.038 C 
ATOM      4  C   LIG d   1      -3.390  79.347 115.861  0.00  0.00     0.028 C 
ATOM      5  C   LIG d   1      -4.470  78.331 116.217  0.00  0.00    -0.047 C 
ATOM      6  C   LIG d   1      -3.895  76.906 116.046  0.00  0.00     0.091 C 
ENDROOT
BRANCH   1   7
ATOM      7  O   LIG d   1      -2.424  75.566 114.615  0.00  0.00    -0.368 OA
BRANCH   7   8
ATOM      8  C   LIG d   1      -1.550  75.442 115.764  0.00  0.00     0.119 C 
BRANCH   8   9
ATOM      9  C   LIG d   1      -0.104  75.636 115.268  0.00  0.00     0.028 C 
ATOM     10  C   LIG d   1       0.242  74.710 114.089  0.00  0.00     0.006 C 
ENDBRANCH   8   9
BRANCH   8  11
ATOM     11  C   LIG d   1      -1.593  74.026 116.345  0.00  0.00     0.028 C 
ATOM     12  C   LIG d   1      -1.510  74.009 117.880  0.00  0.00     0.006 C 
ENDBRANCH   8  11
ENDBRANCH   7   8
ENDBRANCH   1   7
BRANCH   6  13
ATOM     13  N   LIG d   1      -4.912  75.851 116.292  0.00  0.00    -0.311 N 
ATOM     14  C   LIG d   1      -5.993  75.682 115.532  0.00  0.00     0.210 C 
ATOM     15  C   LIG d   1      -6.923  74.548 115.974  0.00  0.00     0.109 C 
ATOM     16  O   LIG d   1      -6.253  76.343 114.516  0.00  0.00    -0.276 OA
ATOM     17  H   LIG d   1      -4.764  75.250 117.079  0.00  0.00     0.149 HD
ENDBRANCH   6  13
BRANCH   5  18
ATOM     18  N   LIG d   1      -4.912  78.614 117.595  0.00  0.00     0.381 N 
ATOM     19  H   LIG d   1      -4.206  79.134 118.077  0.00  0.00    -0.090 HD
ATOM     20  H   LIG d   1      -5.048  77.744 118.079  0.00  0.00    -0.090 HD
ATOM     21  H   LIG d   1      -5.764  79.131 117.581  0.00  0.00    -0.090 HD
ENDBRANCH   5  18
BRANCH   3  22
ATOM     22  C   LIG d   1      -2.309  80.195 113.899  0.00  0.00     0.382 C 
ATOM     23  O   LIG d   1      -1.082  80.453 113.901  0.00  0.00    -0.241 OA
ATOM     24  O   LIG d   1      -3.093  80.946 113.286  0.00  0.00    -0.241 OA
ENDBRANCH   3  22
TORSDOF 7
ENDMDL
MODEL 9
REMARK VINA RESULT:      -4.8      3.238      5.282
REMARK  7 active torsions:
REMARK  status: ('A' for Active; 'I' for Inactive)
REMARK    1  A    between atoms: C_2  and  C_3 
REMARK    2  A    between atoms: C_3  and  O_6 
REMARK    3  A    between atoms: C_3  and  C_4 
REMARK    4  A    between atoms: C_7  and  O_6 
REMARK    5  A    between atoms: C_9  and  C_10 
REMARK    6  A    between atoms: N_15  and  C_14 
REMARK    7  A    between atoms: N_20  and  C_19 
REMARK       I    between atoms: C_22  and  N_20 
ROOT
ATOM      1  C   LIG d   1      -5.904  78.139 117.239  0.00  0.00     0.161 C 
ATOM      2  C   LIG d   1      -5.478  77.270 116.220  0.00  0.00     0.016 C 
ATOM      3  C   LIG d   1      -4.126  77.131 115.830  0.00  0.00     0.038 C 
ATOM      4  C   LIG d   1      -3.083  77.745 116.540  0.00  0.00     0.028 C 
ATOM      5  C   LIG d   1      -3.507  79.024 117.254  0.00  0.00    -0.047 C 
ATOM      6  C   LIG d   1      -4.769  78.733 118.098  0.00  0.00     0.091 C 
ENDROOT
BRANCH   1   7
ATOM      7  O   LIG d   1      -6.871  77.474 118.076  0.00  0.00    -0.368 OA
BRANCH   7   8
ATOM      8  C   LIG d   1      -8.263  77.752 117.787  0.00  0.00     0.119 C 
BRANCH   8   9
ATOM      9  C   LIG d   1      -8.827  78.565 118.969  0.00  0.00     0.028 C 
ATOM     10  C   LIG d   1      -9.546  79.845 118.510  0.00  0.00     0.006 C 
ENDBRANCH   8   9
BRANCH   8  11
ATOM     11  C   LIG d   1      -9.092  76.465 117.748  0.00  0.00     0.028 C 
ATOM     12  C   LIG d   1      -8.777  75.591 116.524  0.00  0.00     0.006 C 
ENDBRANCH   8  11
ENDBRANCH   7   8
ENDBRANCH   1   7
BRANCH   6  13
ATOM     13  N   LIG d   1      -5.299  79.952 118.764  0.00  0.00    -0.311 N 
ATOM     14  C   LIG d   1      -5.945  80.919 118.114  0.00  0.00     0.210 C 
ATOM     15  C   LIG d   1      -6.390  82.097 118.987  0.00  0.00     0.109 C 
ATOM     16  O   LIG d   1      -6.218  80.899 116.905  0.00  0.00    -0.276 OA
ATOM     17  H   LIG d   1      -5.149  80.035 119.750  0.00  0.00     0.149 HD
ENDBRANCH   6  13
BRANCH   5  18
ATOM     18  N   LIG d   1      -2.363  79.483 118.064  0.00  0.00     0.381 N 
ATOM     19  H   LIG d   1      -2.337  78.981 118.928  0.00  0.00    -0.090 HD
ATOM     20  H   LIG d   1      -2.481  80.460 118.269  0.00  0.00    -0.090 HD
ATOM     21  H   LIG d   1      -1.513  79.342 117.563  0.00  0.00    -0.090 HD
ENDBRANCH   5  18
BRANCH   3  22
ATOM     22  C   LIG d   1      -3.810  76.403 114.694  0.00  0.00     0.382 C 
ATOM     23  O   LIG d   1      -2.815  75.638 114.696  0.00  0.00    -0.241 OA
ATOM     24  O   LIG d   1      -4.481  76.534 113.652  0.00  0.00    -0.241 OA
ENDBRANCH   3  22
TORSDOF 7
ENDMDL
