MODEL 1
REMARK VINA RESULT:      -5.0      0.000      0.000
REMARK  7 active torsions:
REMARK  status: ('A' for Active; 'I' for Inactive)
REMARK    1  A    between atoms: C_2  and  C_3 
REMARK    2  A    between atoms: C_3  and  O_6 
REMARK    3  A    between atoms: C_3  and  C_4 
REMARK    4  A    between atoms: C_7  and  O_6 
REMARK    5  A    between atoms: C_9  and  C_10 
REMARK    6  A    between atoms: N_15  and  C_14 
REMARK    7  A    between atoms: N_20  and  C_19 
REMARK       I    between atoms: C_22  and  N_20 
ROOT
ATOM      1  C   LIG d   1      -4.431  76.412 117.897  0.00  0.00     0.161 C 
ATOM      2  C   LIG d   1      -5.599  77.170 117.713  0.00  0.00     0.016 C 
ATOM      3  C   LIG d   1      -5.592  78.525 117.306  0.00  0.00     0.038 C 
ATOM      4  C   LIG d   1      -4.413  79.172 116.907  0.00  0.00     0.028 C 
ATOM      5  C   LIG d   1      -3.158  78.601 117.557  0.00  0.00    -0.047 C 
ATOM      6  C   LIG d   1      -3.143  77.068 117.359  0.00  0.00     0.091 C 
ENDROOT
BRANCH   1   7
ATOM      7  O   LIG d   1      -4.604  75.102 117.321  0.00  0.00    -0.368 OA
BRANCH   7   8
ATOM      8  C   LIG d   1      -5.797  74.909 116.521  0.00  0.00     0.119 C 
BRANCH   8   9
ATOM      9  C   LIG d   1      -6.486  73.624 117.019  0.00  0.00     0.028 C 
ATOM     10  C   LIG d   1      -6.140  72.400 116.154  0.00  0.00     0.006 C 
ENDBRANCH   8   9
BRANCH   8  11
ATOM     11  C   LIG d   1      -5.447  74.640 115.055  0.00  0.00     0.028 C 
ATOM     12  C   LIG d   1      -5.768  75.831 114.138  0.00  0.00     0.006 C 
ENDBRANCH   8  11
ENDBRANCH   7   8
ENDBRANCH   1   7
BRANCH   6  13
ATOM     13  N   LIG d   1      -1.990  76.420 118.038  0.00  0.00    -0.311 N 
ATOM     14  C   LIG d   1      -0.831  76.166 117.433  0.00  0.00     0.210 C 
ATOM     15  C   LIG d   1       0.217  75.473 118.310  0.00  0.00     0.109 C 
ATOM     16  O   LIG d   1      -0.560  76.477 116.264  0.00  0.00    -0.276 OA
ATOM     17  H   LIG d   1      -2.113  76.162 118.997  0.00  0.00     0.149 HD
ENDBRANCH   6  13
BRANCH   5  18
ATOM     18  N   LIG d   1      -1.995  79.274 116.949  0.00  0.00     0.381 N 
ATOM     19  H   LIG d   1      -1.325  79.500 117.658  0.00  0.00    -0.090 HD
ATOM     20  H   LIG d   1      -2.302  80.130 116.521  0.00  0.00    -0.090 HD
ATOM     21  H   LIG d   1      -1.577  78.683 116.265  0.00  0.00    -0.090 HD
ENDBRANCH   5  18
BRANCH   3  22
ATOM     22  C   LIG d   1      -6.768  79.257 117.334  0.00  0.00     0.382 C 
ATOM     23  O   LIG d   1      -7.875  78.666 117.359  0.00  0.00    -0.241 OA
ATOM     24  O   LIG d   1      -6.739  80.502 117.290  0.00  0.00    -0.241 OA
ENDBRANCH   3  22
TORSDOF 7
ENDMDL
MODEL 2
REMARK VINA RESULT:      -4.4      2.063      2.987
REMARK  7 active torsions:
REMARK  status: ('A' for Active; 'I' for Inactive)
REMARK    1  A    between atoms: C_2  and  C_3 
REMARK    2  A    between atoms: C_3  and  O_6 
REMARK    3  A    between atoms: C_3  and  C_4 
REMARK    4  A    between atoms: C_7  and  O_6 
REMARK    5  A    between atoms: C_9  and  C_10 
REMARK    6  A    between atoms: N_15  and  C_14 
REMARK    7  A    between atoms: N_20  and  C_19 
REMARK       I    between atoms: C_22  and  N_20 
ROOT
ATOM      1  C   LIG d   1      -5.303  78.305 117.437  0.00  0.00     0.161 C 
ATOM      2  C   LIG d   1      -6.669  78.615 117.325  0.00  0.00     0.016 C 
ATOM      3  C   LIG d   1      -7.239  79.810 117.821  0.00  0.00     0.038 C 
ATOM      4  C   LIG d   1      -6.450  80.851 118.332  0.00  0.00     0.028 C 
ATOM      5  C   LIG d   1      -5.128  80.376 118.925  0.00  0.00    -0.047 C 
ATOM      6  C   LIG d   1      -4.409  79.478 117.891  0.00  0.00     0.091 C 
ENDROOT
BRANCH   1   7
ATOM      7  O   LIG d   1      -4.822  77.762 116.191  0.00  0.00    -0.368 OA
BRANCH   7   8
ATOM      8  C   LIG d   1      -4.298  76.412 116.245  0.00  0.00     0.119 C 
BRANCH   8   9
ATOM      9  C   LIG d   1      -3.313  76.251 115.071  0.00  0.00     0.028 C 
ATOM     10  C   LIG d   1      -1.897  75.878 115.540  0.00  0.00     0.006 C 
ENDBRANCH   8   9
BRANCH   8  11
ATOM     11  C   LIG d   1      -5.399  75.377 115.996  0.00  0.00     0.028 C 
ATOM     12  C   LIG d   1      -5.376  74.815 114.565  0.00  0.00     0.006 C 
ENDBRANCH   8  11
ENDBRANCH   7   8
ENDBRANCH   1   7
BRANCH   6  13
ATOM     13  N   LIG d   1      -3.146  78.902 118.422  0.00  0.00    -0.311 N 
ATOM     14  C   LIG d   1      -2.002  78.889 117.740  0.00  0.00     0.210 C 
ATOM     15  C   LIG d   1      -0.825  78.228 118.464  0.00  0.00     0.109 C 
ATOM     16  O   LIG d   1      -1.843  79.391 116.617  0.00  0.00    -0.276 OA
ATOM     17  H   LIG d   1      -3.178  78.501 119.339  0.00  0.00     0.149 HD
ENDBRANCH   6  13
BRANCH   5  18
ATOM     18  N   LIG d   1      -4.348  81.572 119.293  0.00  0.00     0.381 N 
ATOM     19  H   LIG d   1      -3.621  81.722 118.622  0.00  0.00    -0.090 HD
ATOM     20  H   LIG d   1      -3.923  81.420 120.190  0.00  0.00    -0.090 HD
ATOM     21  H   LIG d   1      -4.944  82.369 119.331  0.00  0.00    -0.090 HD
ENDBRANCH   5  18
BRANCH   3  22
ATOM     22  C   LIG d   1      -8.617  79.955 117.846  0.00  0.00     0.382 C 
ATOM     23  O   LIG d   1      -9.134  81.074 117.610  0.00  0.00    -0.241 OA
ATOM     24  O   LIG d   1      -9.349  78.992 118.144  0.00  0.00    -0.241 OA
ENDBRANCH   3  22
TORSDOF 7
ENDMDL
MODEL 3
REMARK VINA RESULT:      -4.3     13.429     15.847
REMARK  7 active torsions:
REMARK  status: ('A' for Active; 'I' for Inactive)
REMARK    1  A    between atoms: C_2  and  C_3 
REMARK    2  A    between atoms: C_3  and  O_6 
REMARK    3  A    between atoms: C_3  and  C_4 
REMARK    4  A    between atoms: C_7  and  O_6 
REMARK    5  A    between atoms: C_9  and  C_10 
REMARK    6  A    between atoms: N_15  and  C_14 
REMARK    7  A    between atoms: N_20  and  C_19 
REMARK       I    between atoms: C_22  and  N_20 
ROOT
ATOM      1  C   LIG d   1       4.391  89.884 114.871  0.00  0.00     0.161 C 
ATOM      2  C   LIG d   1       3.533  89.011 114.181  0.00  0.00     0.016 C 
ATOM      3  C   LIG d   1       3.715  87.610 114.144  0.00  0.00     0.038 C 
ATOM      4  C   LIG d   1       4.687  86.967 114.924  0.00  0.00     0.028 C 
ATOM      5  C   LIG d   1       5.892  87.848 115.238  0.00  0.00    -0.047 C 
ATOM      6  C   LIG d   1       5.393  89.191 115.818  0.00  0.00     0.091 C 
ENDROOT
BRANCH   1   7
ATOM      7  O   LIG d   1       3.617  90.864 115.589  0.00  0.00    -0.368 OA
BRANCH   7   8
ATOM      8  C   LIG d   1       3.084  90.442 116.869  0.00  0.00     0.119 C 
BRANCH   8   9
ATOM      9  C   LIG d   1       1.547  90.488 116.767  0.00  0.00     0.028 C 
ATOM     10  C   LIG d   1       0.914  89.086 116.806  0.00  0.00     0.006 C 
ENDBRANCH   8   9
BRANCH   8  11
ATOM     11  C   LIG d   1       3.447  91.433 117.978  0.00  0.00     0.028 C 
ATOM     12  C   LIG d   1       4.188  92.672 117.451  0.00  0.00     0.006 C 
ENDBRANCH   8  11
ENDBRANCH   7   8
ENDBRANCH   1   7
BRANCH   6  13
ATOM     13  N   LIG d   1       6.503  90.145 116.075  0.00  0.00    -0.311 N 
ATOM     14  C   LIG d   1       7.087  90.289 117.263  0.00  0.00     0.210 C 
ATOM     15  C   LIG d   1       8.198  91.342 117.315  0.00  0.00     0.109 C 
ATOM     16  O   LIG d   1       6.811  89.622 118.272  0.00  0.00    -0.276 OA
ATOM     17  H   LIG d   1       6.811  90.705 115.304  0.00  0.00     0.149 HD
ENDBRANCH   6  13
BRANCH   5  18
ATOM     18  N   LIG d   1       6.759  87.103 116.169  0.00  0.00     0.381 N 
ATOM     19  H   LIG d   1       6.660  87.471 117.094  0.00  0.00    -0.090 HD
ATOM     20  H   LIG d   1       7.716  87.218 115.885  0.00  0.00    -0.090 HD
ATOM     21  H   LIG d   1       6.516  86.136 116.161  0.00  0.00    -0.090 HD
ENDBRANCH   5  18
BRANCH   3  22
ATOM     22  C   LIG d   1       2.943  86.839 113.288  0.00  0.00     0.382 C 
ATOM     23  O   LIG d   1       3.408  85.778 112.808  0.00  0.00    -0.241 OA
ATOM     24  O   LIG d   1       1.803  87.215 112.954  0.00  0.00    -0.241 OA
ENDBRANCH   3  22
TORSDOF 7
ENDMDL
MODEL 4
REMARK VINA RESULT:      -4.3     15.399     18.387
REMARK  7 active torsions:
REMARK  status: ('A' for Active; 'I' for Inactive)
REMARK    1  A    between atoms: C_2  and  C_3 
REMARK    2  A    between atoms: C_3  and  O_6 
REMARK    3  A    between atoms: C_3  and  C_4 
REMARK    4  A    between atoms: C_7  and  O_6 
REMARK    5  A    between atoms: C_9  and  C_10 
REMARK    6  A    between atoms: N_15  and  C_14 
REMARK    7  A    between atoms: N_20  and  C_19 
REMARK       I    between atoms: C_22  and  N_20 
ROOT
ATOM      1  C   LIG d   1     -17.641  64.476 117.303  0.00  0.00     0.161 C 
ATOM      2  C   LIG d   1     -17.190  65.587 118.035  0.00  0.00     0.016 C 
ATOM      3  C   LIG d   1     -16.450  66.647 117.463  0.00  0.00     0.038 C 
ATOM      4  C   LIG d   1     -16.240  66.743 116.080  0.00  0.00     0.028 C 
ATOM      5  C   LIG d   1     -16.241  65.392 115.372  0.00  0.00    -0.047 C 
ATOM      6  C   LIG d   1     -17.518  64.617 115.772  0.00  0.00     0.091 C 
ENDROOT
BRANCH   1   7
ATOM      7  O   LIG d   1     -19.001  64.169 117.670  0.00  0.00    -0.368 OA
BRANCH   7   8
ATOM      8  C   LIG d   1     -20.033  64.745 116.831  0.00  0.00     0.119 C 
BRANCH   8   9
ATOM      9  C   LIG d   1     -20.706  65.875 117.635  0.00  0.00     0.028 C 
ATOM     10  C   LIG d   1     -20.419  67.266 117.045  0.00  0.00     0.006 C 
ENDBRANCH   8   9
BRANCH   8  11
ATOM     11  C   LIG d   1     -21.146  63.734 116.543  0.00  0.00     0.028 C 
ATOM     12  C   LIG d   1     -20.710  62.281 116.793  0.00  0.00     0.006 C 
ENDBRANCH   8  11
ENDBRANCH   7   8
ENDBRANCH   1   7
BRANCH   6  13
ATOM     13  N   LIG d   1     -17.557  63.251 115.189  0.00  0.00    -0.311 N 
ATOM     14  C   LIG d   1     -18.222  62.947 114.076  0.00  0.00     0.210 C 
ATOM     15  C   LIG d   1     -18.148  61.474 113.660  0.00  0.00     0.109 C 
ATOM     16  O   LIG d   1     -18.839  63.763 113.376  0.00  0.00    -0.276 OA
ATOM     17  H   LIG d   1     -17.057  62.533 115.677  0.00  0.00     0.149 HD
ENDBRANCH   6  13
BRANCH   5  18
ATOM     18  N   LIG d   1     -16.150  65.648 113.922  0.00  0.00     0.381 N 
ATOM     19  H   LIG d   1     -16.594  64.906 113.419  0.00  0.00    -0.090 HD
ATOM     20  H   LIG d   1     -15.181  65.675 113.657  0.00  0.00    -0.090 HD
ATOM     21  H   LIG d   1     -16.586  66.516 113.701  0.00  0.00    -0.090 HD
ENDBRANCH   5  18
BRANCH   3  22
ATOM     22  C   LIG d   1     -15.877  67.607 118.284  0.00  0.00     0.382 C 
ATOM     23  O   LIG d   1     -16.344  68.771 118.308  0.00  0.00    -0.241 OA
ATOM     24  O   LIG d   1     -14.872  67.334 118.968  0.00  0.00    -0.241 OA
ENDBRANCH   3  22
TORSDOF 7
ENDMDL
MODEL 5
REMARK VINA RESULT:      -4.3     12.171     15.824
REMARK  7 active torsions:
REMARK  status: ('A' for Active; 'I' for Inactive)
REMARK    1  A    between atoms: C_2  and  C_3 
REMARK    2  A    between atoms: C_3  and  O_6 
REMARK    3  A    between atoms: C_3  and  C_4 
REMARK    4  A    between atoms: C_7  and  O_6 
REMARK    5  A    between atoms: C_9  and  C_10 
REMARK    6  A    between atoms: N_15  and  C_14 
REMARK    7  A    between atoms: N_20  and  C_19 
REMARK       I    between atoms: C_22  and  N_20 
ROOT
ATOM      1  C   LIG d   1      10.403  78.343 114.318  0.00  0.00     0.161 C 
ATOM      2  C   LIG d   1       9.055  78.413 114.706  0.00  0.00     0.016 C 
ATOM      3  C   LIG d   1       8.362  77.340 115.311  0.00  0.00     0.038 C 
ATOM      4  C   LIG d   1       9.017  76.165 115.709  0.00  0.00     0.028 C 
ATOM      5  C   LIG d   1      10.260  75.854 114.882  0.00  0.00    -0.047 C 
ATOM      6  C   LIG d   1      11.164  77.108 114.845  0.00  0.00     0.091 C 
ENDROOT
BRANCH   1   7
ATOM      7  O   LIG d   1      11.086  79.553 114.700  0.00  0.00    -0.368 OA
BRANCH   7   8
ATOM      8  C   LIG d   1      11.680  79.559 116.022  0.00  0.00     0.119 C 
BRANCH   8   9
ATOM      9  C   LIG d   1      10.926  80.607 116.863  0.00  0.00     0.028 C 
ATOM     10  C   LIG d   1      10.485  81.822 116.030  0.00  0.00     0.006 C 
ENDBRANCH   8   9
BRANCH   8  11
ATOM     11  C   LIG d   1      13.132  80.043 115.977  0.00  0.00     0.028 C 
ATOM     12  C   LIG d   1      13.627  80.315 114.548  0.00  0.00     0.006 C 
ENDBRANCH   8  11
ENDBRANCH   7   8
ENDBRANCH   1   7
BRANCH   6  13
ATOM     13  N   LIG d   1      12.362  76.918 113.986  0.00  0.00    -0.311 N 
ATOM     14  C   LIG d   1      13.556  76.565 114.461  0.00  0.00     0.210 C 
ATOM     15  C   LIG d   1      14.660  76.443 113.407  0.00  0.00     0.109 C 
ATOM     16  O   LIG d   1      13.796  76.310 115.650  0.00  0.00    -0.276 OA
ATOM     17  H   LIG d   1      12.249  77.073 113.004  0.00  0.00     0.149 HD
ENDBRANCH   6  13
BRANCH   5  18
ATOM     18  N   LIG d   1      10.920  74.684 115.490  0.00  0.00     0.381 N 
ATOM     19  H   LIG d   1      11.645  74.987 116.108  0.00  0.00    -0.090 HD
ATOM     20  H   LIG d   1      11.336  74.130 114.762  0.00  0.00    -0.090 HD
ATOM     21  H   LIG d   1      10.253  74.139 115.992  0.00  0.00    -0.090 HD
ENDBRANCH   5  18
BRANCH   3  22
ATOM     22  C   LIG d   1       6.989  77.420 115.487  0.00  0.00     0.382 C 
ATOM     23  O   LIG d   1       6.293  78.091 114.687  0.00  0.00    -0.241 OA
ATOM     24  O   LIG d   1       6.444  76.867 116.461  0.00  0.00    -0.241 OA
ENDBRANCH   3  22
TORSDOF 7
ENDMDL
MODEL 6
REMARK VINA RESULT:      -4.2     20.178     22.482
REMARK  7 active torsions:
REMARK  status: ('A' for Active; 'I' for Inactive)
REMARK    1  A    between atoms: C_2  and  C_3 
REMARK    2  A    between atoms: C_3  and  O_6 
REMARK    3  A    between atoms: C_3  and  C_4 
REMARK    4  A    between atoms: C_7  and  O_6 
REMARK    5  A    between atoms: C_9  and  C_10 
REMARK    6  A    between atoms: N_15  and  C_14 
REMARK    7  A    between atoms: N_20  and  C_19 
REMARK       I    between atoms: C_22  and  N_20 
ROOT
ATOM      1  C   LIG d   1     -14.436  57.216 114.452  0.00  0.00     0.161 C 
ATOM      2  C   LIG d   1     -15.455  57.941 113.813  0.00  0.00     0.016 C 
ATOM      3  C   LIG d   1     -16.732  58.153 114.382  0.00  0.00     0.038 C 
ATOM      4  C   LIG d   1     -17.027  57.781 115.702  0.00  0.00     0.028 C 
ATOM      5  C   LIG d   1     -16.197  56.603 116.199  0.00  0.00    -0.047 C 
ATOM      6  C   LIG d   1     -14.702  56.898 115.938  0.00  0.00     0.091 C 
ENDROOT
BRANCH   1   7
ATOM      7  O   LIG d   1     -13.179  57.907 114.305  0.00  0.00    -0.368 OA
BRANCH   7   8
ATOM      8  C   LIG d   1     -12.403  57.574 113.128  0.00  0.00     0.119 C 
BRANCH   8   9
ATOM      9  C   LIG d   1     -12.473  56.045 112.944  0.00  0.00     0.028 C 
ATOM     10  C   LIG d   1     -11.353  55.311 113.700  0.00  0.00     0.006 C 
ENDBRANCH   8   9
BRANCH   8  11
ATOM     11  C   LIG d   1     -10.918  57.889 113.332  0.00  0.00     0.028 C 
ATOM     12  C   LIG d   1     -10.684  59.034 114.331  0.00  0.00     0.006 C 
ENDBRANCH   8  11
ENDBRANCH   7   8
ENDBRANCH   1   7
BRANCH   6  13
ATOM     13  N   LIG d   1     -13.825  55.759 116.318  0.00  0.00    -0.311 N 
ATOM     14  C   LIG d   1     -13.263  55.636 117.520  0.00  0.00     0.210 C 
ATOM     15  C   LIG d   1     -12.379  54.398 117.696  0.00  0.00     0.109 C 
ATOM     16  O   LIG d   1     -13.439  56.418 118.466  0.00  0.00    -0.276 OA
ATOM     17  H   LIG d   1     -13.654  55.062 115.620  0.00  0.00     0.149 HD
ENDBRANCH   6  13
BRANCH   5  18
ATOM     18  N   LIG d   1     -16.507  56.410 117.628  0.00  0.00     0.381 N 
ATOM     19  H   LIG d   1     -15.824  56.879 118.189  0.00  0.00    -0.090 HD
ATOM     20  H   LIG d   1     -16.470  55.429 117.840  0.00  0.00    -0.090 HD
ATOM     21  H   LIG d   1     -17.415  56.767 117.831  0.00  0.00    -0.090 HD
ENDBRANCH   5  18
BRANCH   3  22
ATOM     22  C   LIG d   1     -17.743  58.709 113.613  0.00  0.00     0.382 C 
ATOM     23  O   LIG d   1     -18.051  59.917 113.760  0.00  0.00    -0.241 OA
ATOM     24  O   LIG d   1     -18.381  58.008 112.805  0.00  0.00    -0.241 OA
ENDBRANCH   3  22
TORSDOF 7
ENDMDL
MODEL 7
REMARK VINA RESULT:      -4.2     11.341     13.021
REMARK  7 active torsions:
REMARK  status: ('A' for Active; 'I' for Inactive)
REMARK    1  A    between atoms: C_2  and  C_3 
REMARK    2  A    between atoms: C_3  and  O_6 
REMARK    3  A    between atoms: C_3  and  C_4 
REMARK    4  A    between atoms: C_7  and  O_6 
REMARK    5  A    between atoms: C_9  and  C_10 
REMARK    6  A    between atoms: N_15  and  C_14 
REMARK    7  A    between atoms: N_20  and  C_19 
REMARK       I    between atoms: C_22  and  N_20 
ROOT
ATOM      1  C   LIG d   1       1.504  87.531 115.630  0.00  0.00     0.161 C 
ATOM      2  C   LIG d   1       0.495  87.610 116.604  0.00  0.00     0.016 C 
ATOM      3  C   LIG d   1       0.388  88.674 117.529  0.00  0.00     0.038 C 
ATOM      4  C   LIG d   1       1.199  89.815 117.443  0.00  0.00     0.028 C 
ATOM      5  C   LIG d   1       2.553  89.548 116.795  0.00  0.00    -0.047 C 
ATOM      6  C   LIG d   1       2.331  88.821 115.449  0.00  0.00     0.091 C 
ENDROOT
BRANCH   1   7
ATOM      7  O   LIG d   1       0.936  87.120 114.370  0.00  0.00    -0.368 OA
BRANCH   7   8
ATOM      8  C   LIG d   1       1.589  86.009 113.709  0.00  0.00     0.119 C 
BRANCH   8   9
ATOM      9  C   LIG d   1       0.530  85.297 112.844  0.00  0.00     0.028 C 
ATOM     10  C   LIG d   1      -0.822  86.030 112.851  0.00  0.00     0.006 C 
ENDBRANCH   8   9
BRANCH   8  11
ATOM     11  C   LIG d   1       2.060  84.958 114.719  0.00  0.00     0.028 C 
ATOM     12  C   LIG d   1       3.586  84.769 114.714  0.00  0.00     0.006 C 
ENDBRANCH   8  11
ENDBRANCH   7   8
ENDBRANCH   1   7
BRANCH   6  13
ATOM     13  N   LIG d   1       3.609  88.448 114.789  0.00  0.00    -0.311 N 
ATOM     14  C   LIG d   1       3.917  88.793 113.540  0.00  0.00     0.210 C 
ATOM     15  C   LIG d   1       5.276  88.288 113.046  0.00  0.00     0.109 C 
ATOM     16  O   LIG d   1       3.208  89.498 112.806  0.00  0.00    -0.276 OA
ATOM     17  H   LIG d   1       4.256  87.903 115.323  0.00  0.00     0.149 HD
ENDBRANCH   6  13
BRANCH   5  18
ATOM     18  N   LIG d   1       3.239  90.846 116.645  0.00  0.00     0.381 N 
ATOM     19  H   LIG d   1       3.039  91.232 115.743  0.00  0.00    -0.090 HD
ATOM     20  H   LIG d   1       4.230  90.700 116.713  0.00  0.00    -0.090 HD
ATOM     21  H   LIG d   1       2.939  91.475 117.357  0.00  0.00    -0.090 HD
ENDBRANCH   5  18
BRANCH   3  22
ATOM     22  C   LIG d   1      -0.514  88.584 118.579  0.00  0.00     0.382 C 
ATOM     23  O   LIG d   1      -0.419  89.366 119.555  0.00  0.00    -0.241 OA
ATOM     24  O   LIG d   1      -1.393  87.701 118.582  0.00  0.00    -0.241 OA
ENDBRANCH   3  22
TORSDOF 7
ENDMDL
MODEL 8
REMARK VINA RESULT:      -4.2     11.779     14.113
REMARK  7 active torsions:
REMARK  status: ('A' for Active; 'I' for Inactive)
REMARK    1  A    between atoms: C_2  and  C_3 
REMARK    2  A    between atoms: C_3  and  O_6 
REMARK    3  A    between atoms: C_3  and  C_4 
REMARK    4  A    between atoms: C_7  and  O_6 
REMARK    5  A    between atoms: C_9  and  C_10 
REMARK    6  A    between atoms: N_15  and  C_14 
REMARK    7  A    between atoms: N_20  and  C_19 
REMARK       I    between atoms: C_22  and  N_20 
ROOT
ATOM      1  C   LIG d   1       2.460  88.280 115.783  0.00  0.00     0.161 C 
ATOM      2  C   LIG d   1       3.032  89.444 116.325  0.00  0.00     0.016 C 
ATOM      3  C   LIG d   1       4.147  90.100 115.756  0.00  0.00     0.038 C 
ATOM      4  C   LIG d   1       4.676  89.721 114.513  0.00  0.00     0.028 C 
ATOM      5  C   LIG d   1       4.451  88.249 114.183  0.00  0.00    -0.047 C 
ATOM      6  C   LIG d   1       2.953  87.916 114.368  0.00  0.00     0.091 C 
ENDROOT
BRANCH   1   7
ATOM      7  O   LIG d   1       1.023  88.389 115.801  0.00  0.00    -0.368 OA
BRANCH   7   8
ATOM      8  C   LIG d   1       0.323  87.455 116.660  0.00  0.00     0.119 C 
BRANCH   8   9
ATOM      9  C   LIG d   1      -0.318  88.268 117.801  0.00  0.00     0.028 C 
ATOM     10  C   LIG d   1      -1.853  88.305 117.704  0.00  0.00     0.006 C 
ENDBRANCH   8   9
BRANCH   8  11
ATOM     11  C   LIG d   1       1.297  86.492 117.345  0.00  0.00     0.028 C 
ATOM     12  C   LIG d   1       1.141  86.475 118.874  0.00  0.00     0.006 C 
ENDBRANCH   8  11
ENDBRANCH   7   8
ENDBRANCH   1   7
BRANCH   6  13
ATOM     13  N   LIG d   1       2.661  86.476 114.146  0.00  0.00    -0.311 N 
ATOM     14  C   LIG d   1       1.626  86.039 113.431  0.00  0.00     0.210 C 
ATOM     15  C   LIG d   1       1.496  84.515 113.345  0.00  0.00     0.109 C 
ATOM     16  O   LIG d   1       0.821  86.769 112.833  0.00  0.00    -0.276 OA
ATOM     17  H   LIG d   1       3.282  85.814 114.570  0.00  0.00     0.149 HD
ENDBRANCH   6  13
BRANCH   5  18
ATOM     18  N   LIG d   1       4.928  88.023 112.805  0.00  0.00     0.381 N 
ATOM     19  H   LIG d   1       5.604  88.719 112.562  0.00  0.00    -0.090 HD
ATOM     20  H   LIG d   1       4.150  88.106 112.174  0.00  0.00    -0.090 HD
ATOM     21  H   LIG d   1       5.332  87.116 112.728  0.00  0.00    -0.090 HD
ENDBRANCH   5  18
BRANCH   3  22
ATOM     22  C   LIG d   1       4.771  91.125 116.451  0.00  0.00     0.382 C 
ATOM     23  O   LIG d   1       5.969  91.005 116.803  0.00  0.00    -0.241 OA
ATOM     24  O   LIG d   1       4.137  92.148 116.771  0.00  0.00    -0.241 OA
ENDBRANCH   3  22
TORSDOF 7
ENDMDL
MODEL 9
REMARK VINA RESULT:      -4.2     11.480     14.967
REMARK  7 active torsions:
REMARK  status: ('A' for Active; 'I' for Inactive)
REMARK    1  A    between atoms: C_2  and  C_3 
REMARK    2  A    between atoms: C_3  and  O_6 
REMARK    3  A    between atoms: C_3  and  C_4 
REMARK    4  A    between atoms: C_7  and  O_6 
REMARK    5  A    between atoms: C_9  and  C_10 
REMARK    6  A    between atoms: N_15  and  C_14 
REMARK    7  A    between atoms: N_20  and  C_19 
REMARK       I    between atoms: C_22  and  N_20 
ROOT
ATOM      1  C   LIG d   1       9.896  75.901 115.393  0.00  0.00     0.161 C 
ATOM      2  C   LIG d   1       8.687  76.520 115.033  0.00  0.00     0.016 C 
ATOM      3  C   LIG d   1       7.754  77.012 115.974  0.00  0.00     0.038 C 
ATOM      4  C   LIG d   1       8.037  77.054 117.347  0.00  0.00     0.028 C 
ATOM      5  C   LIG d   1       9.025  75.982 117.794  0.00  0.00    -0.047 C 
ATOM      6  C   LIG d   1      10.273  76.038 116.883  0.00  0.00     0.091 C 
ENDROOT
BRANCH   1   7
ATOM      7  O   LIG d   1      10.964  76.391 114.559  0.00  0.00    -0.368 OA
BRANCH   7   8
ATOM      8  C   LIG d   1      11.686  77.544 115.060  0.00  0.00     0.119 C 
BRANCH   8   9
ATOM      9  C   LIG d   1      11.505  78.683 114.038  0.00  0.00     0.028 C 
ATOM     10  C   LIG d   1      10.447  79.707 114.481  0.00  0.00     0.006 C 
ENDBRANCH   8   9
BRANCH   8  11
ATOM     11  C   LIG d   1      13.193  77.278 115.109  0.00  0.00     0.028 C 
ATOM     12  C   LIG d   1      13.596  75.991 114.373  0.00  0.00     0.006 C 
ENDBRANCH   8  11
ENDBRANCH   7   8
ENDBRANCH   1   7
BRANCH   6  13
ATOM     13  N   LIG d   1      11.254  74.966 117.199  0.00  0.00    -0.311 N 
ATOM     14  C   LIG d   1      12.294  75.141 118.012  0.00  0.00     0.210 C 
ATOM     15  C   LIG d   1      13.193  73.913 118.185  0.00  0.00     0.109 C 
ATOM     16  O   LIG d   1      12.539  76.187 118.632  0.00  0.00    -0.276 OA
ATOM     17  H   LIG d   1      11.113  74.076 116.763  0.00  0.00     0.149 HD
ENDBRANCH   6  13
BRANCH   5  18
ATOM     18  N   LIG d   1       9.336  76.227 119.216  0.00  0.00     0.381 N 
ATOM     19  H   LIG d   1       8.753  76.959 119.568  0.00  0.00    -0.090 HD
ATOM     20  H   LIG d   1      10.293  76.521 119.293  0.00  0.00    -0.090 HD
ATOM     21  H   LIG d   1       9.193  75.395 119.744  0.00  0.00    -0.090 HD
ENDBRANCH   5  18
BRANCH   3  22
ATOM     22  C   LIG d   1       6.504  77.433 115.546  0.00  0.00     0.382 C 
ATOM     23  O   LIG d   1       5.475  77.071 116.166  0.00  0.00    -0.241 OA
ATOM     24  O   LIG d   1       6.389  78.133 114.523  0.00  0.00    -0.241 OA
ENDBRANCH   3  22
TORSDOF 7
ENDMDL
