MODEL 1
REMARK VINA RESULT:      -5.2      0.000      0.000
REMARK  7 active torsions:
REMARK  status: ('A' for Active; 'I' for Inactive)
REMARK    1  A    between atoms: C_2  and  C_3 
REMARK    2  A    between atoms: C_3  and  O_6 
REMARK    3  A    between atoms: C_3  and  C_4 
REMARK    4  A    between atoms: C_7  and  O_6 
REMARK    5  A    between atoms: C_9  and  C_10 
REMARK    6  A    between atoms: N_15  and  C_14 
REMARK    7  A    between atoms: N_20  and  C_19 
REMARK       I    between atoms: C_22  and  N_20 
ROOT
ATOM      1  C   LIG d   1      -2.826  77.143 116.386  0.00  0.00     0.161 C 
ATOM      2  C   LIG d   1      -2.844  78.117 115.373  0.00  0.00     0.016 C 
ATOM      3  C   LIG d   1      -1.781  78.312 114.462  0.00  0.00     0.038 C 
ATOM      4  C   LIG d   1      -0.683  77.441 114.406  0.00  0.00     0.028 C 
ATOM      5  C   LIG d   1      -0.385  76.755 115.735  0.00  0.00    -0.047 C 
ATOM      6  C   LIG d   1      -1.685  76.111 116.269  0.00  0.00     0.091 C 
ENDROOT
BRANCH   1   7
ATOM      7  O   LIG d   1      -4.102  76.475 116.445  0.00  0.00    -0.368 OA
BRANCH   7   8
ATOM      8  C   LIG d   1      -4.821  76.362 115.192  0.00  0.00     0.119 C 
BRANCH   8   9
ATOM      9  C   LIG d   1      -6.293  76.723 115.469  0.00  0.00     0.028 C 
ATOM     10  C   LIG d   1      -6.458  77.586 116.732  0.00  0.00     0.006 C 
ENDBRANCH   8   9
BRANCH   8  11
ATOM     11  C   LIG d   1      -4.845  74.915 114.692  0.00  0.00     0.028 C 
ATOM     12  C   LIG d   1      -5.578  73.965 115.652  0.00  0.00     0.006 C 
ENDBRANCH   8  11
ENDBRANCH   7   8
ENDBRANCH   1   7
BRANCH   6  13
ATOM     13  N   LIG d   1      -1.502  75.490 117.607  0.00  0.00    -0.311 N 
ATOM     14  C   LIG d   1      -1.206  74.204 117.785  0.00  0.00     0.210 C 
ATOM     15  C   LIG d   1      -1.080  73.765 119.247  0.00  0.00     0.109 C 
ATOM     16  O   LIG d   1      -1.003  73.392 116.869  0.00  0.00    -0.276 OA
ATOM     17  H   LIG d   1      -1.617  76.084 118.405  0.00  0.00     0.149 HD
ENDBRANCH   6  13
BRANCH   5  18
ATOM     18  N   LIG d   1       0.692  75.775 115.500  0.00  0.00     0.381 N 
ATOM     19  H   LIG d   1       1.577  76.187 115.715  0.00  0.00    -0.090 HD
ATOM     20  H   LIG d   1       0.691  75.518 114.528  0.00  0.00    -0.090 HD
ATOM     21  H   LIG d   1       0.547  74.967 116.064  0.00  0.00    -0.090 HD
ENDBRANCH   5  18
BRANCH   3  22
ATOM     22  C   LIG d   1      -1.791  79.414 113.620  0.00  0.00     0.382 C 
ATOM     23  O   LIG d   1      -0.848  80.240 113.658  0.00  0.00    -0.241 OA
ATOM     24  O   LIG d   1      -2.753  79.616 112.855  0.00  0.00    -0.241 OA
ENDBRANCH   3  22
TORSDOF 7
ENDMDL
MODEL 2
REMARK VINA RESULT:      -5.1      3.219      5.544
REMARK  7 active torsions:
REMARK  status: ('A' for Active; 'I' for Inactive)
REMARK    1  A    between atoms: C_2  and  C_3 
REMARK    2  A    between atoms: C_3  and  O_6 
REMARK    3  A    between atoms: C_3  and  C_4 
REMARK    4  A    between atoms: C_7  and  O_6 
REMARK    5  A    between atoms: C_9  and  C_10 
REMARK    6  A    between atoms: N_15  and  C_14 
REMARK    7  A    between atoms: N_20  and  C_19 
REMARK       I    between atoms: C_22  and  N_20 
ROOT
ATOM      1  C   LIG d   1      -6.660  76.996 117.670  0.00  0.00     0.161 C 
ATOM      2  C   LIG d   1      -7.852  77.739 117.653  0.00  0.00     0.016 C 
ATOM      3  C   LIG d   1      -7.900  79.138 117.855  0.00  0.00     0.038 C 
ATOM      4  C   LIG d   1      -6.735  79.915 117.938  0.00  0.00     0.028 C 
ATOM      5  C   LIG d   1      -5.529  79.145 118.465  0.00  0.00    -0.047 C 
ATOM      6  C   LIG d   1      -5.370  77.842 117.649  0.00  0.00     0.091 C 
ENDROOT
BRANCH   1   7
ATOM      7  O   LIG d   1      -6.658  76.051 116.582  0.00  0.00    -0.368 OA
BRANCH   7   8
ATOM      8  C   LIG d   1      -6.472  74.661 116.945  0.00  0.00     0.119 C 
BRANCH   8   9
ATOM      9  C   LIG d   1      -5.869  73.940 115.724  0.00  0.00     0.028 C 
ATOM     10  C   LIG d   1      -5.125  74.903 114.782  0.00  0.00     0.006 C 
ENDBRANCH   8   9
BRANCH   8  11
ATOM     11  C   LIG d   1      -7.813  73.968 117.203  0.00  0.00     0.028 C 
ATOM     12  C   LIG d   1      -7.719  72.436 117.112  0.00  0.00     0.006 C 
ENDBRANCH   8  11
ENDBRANCH   7   8
ENDBRANCH   1   7
BRANCH   6  13
ATOM     13  N   LIG d   1      -4.264  76.988 118.154  0.00  0.00    -0.311 N 
ATOM     14  C   LIG d   1      -3.163  76.723 117.453  0.00  0.00     0.210 C 
ATOM     15  C   LIG d   1      -2.156  75.804 118.152  0.00  0.00     0.109 C 
ATOM     16  O   LIG d   1      -2.910  77.188 116.331  0.00  0.00    -0.276 OA
ATOM     17  H   LIG d   1      -4.372  76.595 119.069  0.00  0.00     0.149 HD
ENDBRANCH   6  13
BRANCH   5  18
ATOM     18  N   LIG d   1      -4.356  80.034 118.370  0.00  0.00     0.381 N 
ATOM     19  H   LIG d   1      -4.448  80.787 119.022  0.00  0.00    -0.090 HD
ATOM     20  H   LIG d   1      -4.316  80.422 117.444  0.00  0.00    -0.090 HD
ATOM     21  H   LIG d   1      -3.523  79.521 118.559  0.00  0.00    -0.090 HD
ENDBRANCH   5  18
BRANCH   3  22
ATOM     22  C   LIG d   1      -9.125  79.768 118.015  0.00  0.00     0.382 C 
ATOM     23  O   LIG d   1      -9.228  81.001 117.807  0.00  0.00    -0.241 OA
ATOM     24  O   LIG d   1     -10.118  79.127 118.409  0.00  0.00    -0.241 OA
ENDBRANCH   3  22
TORSDOF 7
ENDMDL
MODEL 3
REMARK VINA RESULT:      -5.0      1.876      5.104
REMARK  7 active torsions:
REMARK  status: ('A' for Active; 'I' for Inactive)
REMARK    1  A    between atoms: C_2  and  C_3 
REMARK    2  A    between atoms: C_3  and  O_6 
REMARK    3  A    between atoms: C_3  and  C_4 
REMARK    4  A    between atoms: C_7  and  O_6 
REMARK    5  A    between atoms: C_9  and  C_10 
REMARK    6  A    between atoms: N_15  and  C_14 
REMARK    7  A    between atoms: N_20  and  C_19 
REMARK       I    between atoms: C_22  and  N_20 
ROOT
ATOM      1  C   LIG d   1      -1.072  75.539 115.230  0.00  0.00     0.161 C 
ATOM      2  C   LIG d   1      -1.051  74.581 116.257  0.00  0.00     0.016 C 
ATOM      3  C   LIG d   1      -0.362  74.765 117.478  0.00  0.00     0.038 C 
ATOM      4  C   LIG d   1       0.231  75.990 117.818  0.00  0.00     0.028 C 
ATOM      5  C   LIG d   1       0.666  76.808 116.607  0.00  0.00    -0.047 C 
ATOM      6  C   LIG d   1      -0.523  76.926 115.627  0.00  0.00     0.091 C 
ENDROOT
BRANCH   1   7
ATOM      7  O   LIG d   1      -2.408  75.662 114.703  0.00  0.00    -0.368 OA
BRANCH   7   8
ATOM      8  C   LIG d   1      -3.482  75.269 115.592  0.00  0.00     0.119 C 
BRANCH   8   9
ATOM      9  C   LIG d   1      -4.562  74.579 114.736  0.00  0.00     0.028 C 
ATOM     10  C   LIG d   1      -5.683  73.963 115.591  0.00  0.00     0.006 C 
ENDBRANCH   8   9
BRANCH   8  11
ATOM     11  C   LIG d   1      -4.171  76.490 116.207  0.00  0.00     0.028 C 
ATOM     12  C   LIG d   1      -3.771  76.725 117.672  0.00  0.00     0.006 C 
ENDBRANCH   8  11
ENDBRANCH   7   8
ENDBRANCH   1   7
BRANCH   6  13
ATOM     13  N   LIG d   1      -0.158  77.640 114.376  0.00  0.00    -0.311 N 
ATOM     14  C   LIG d   1      -0.406  78.933 114.172  0.00  0.00     0.210 C 
ATOM     15  C   LIG d   1       0.034  79.467 112.805  0.00  0.00     0.109 C 
ATOM     16  O   LIG d   1      -0.918  79.695 115.005  0.00  0.00    -0.276 OA
ATOM     17  H   LIG d   1       0.290  77.105 113.659  0.00  0.00     0.149 HD
ENDBRANCH   6  13
BRANCH   5  18
ATOM     18  N   LIG d   1       1.141  78.115 117.100  0.00  0.00     0.381 N 
ATOM     19  H   LIG d   1       1.904  78.433 116.537  0.00  0.00    -0.090 HD
ATOM     20  H   LIG d   1       1.468  78.007 118.044  0.00  0.00    -0.090 HD
ATOM     21  H   LIG d   1       0.399  78.780 117.073  0.00  0.00    -0.090 HD
ENDBRANCH   5  18
BRANCH   3  22
ATOM     22  C   LIG d   1      -0.228  73.701 118.358  0.00  0.00     0.382 C 
ATOM     23  O   LIG d   1      -0.825  72.621 118.132  0.00  0.00    -0.241 OA
ATOM     24  O   LIG d   1       0.446  73.823 119.398  0.00  0.00    -0.241 OA
ENDBRANCH   3  22
TORSDOF 7
ENDMDL
MODEL 4
REMARK VINA RESULT:      -4.9      2.540      5.995
REMARK  7 active torsions:
REMARK  status: ('A' for Active; 'I' for Inactive)
REMARK    1  A    between atoms: C_2  and  C_3 
REMARK    2  A    between atoms: C_3  and  O_6 
REMARK    3  A    between atoms: C_3  and  C_4 
REMARK    4  A    between atoms: C_7  and  O_6 
REMARK    5  A    between atoms: C_9  and  C_10 
REMARK    6  A    between atoms: N_15  and  C_14 
REMARK    7  A    between atoms: N_20  and  C_19 
REMARK       I    between atoms: C_22  and  N_20 
ROOT
ATOM      1  C   LIG d   1      -3.537  75.183 116.058  0.00  0.00     0.161 C 
ATOM      2  C   LIG d   1      -4.465  74.142 115.891  0.00  0.00     0.016 C 
ATOM      3  C   LIG d   1      -5.839  74.266 116.203  0.00  0.00     0.038 C 
ATOM      4  C   LIG d   1      -6.408  75.496 116.564  0.00  0.00     0.028 C 
ATOM      5  C   LIG d   1      -5.421  76.449 117.231  0.00  0.00    -0.047 C 
ATOM      6  C   LIG d   1      -4.160  76.565 116.346  0.00  0.00     0.091 C 
ENDROOT
BRANCH   1   7
ATOM      7  O   LIG d   1      -2.669  75.253 114.910  0.00  0.00    -0.368 OA
BRANCH   7   8
ATOM      8  C   LIG d   1      -1.281  74.908 115.137  0.00  0.00     0.119 C 
BRANCH   8   9
ATOM      9  C   LIG d   1      -1.155  74.433 116.598  0.00  0.00     0.028 C 
ATOM     10  C   LIG d   1       0.185  73.731 116.874  0.00  0.00     0.006 C 
ENDBRANCH   8   9
BRANCH   8  11
ATOM     11  C   LIG d   1      -0.376  76.139 115.032  0.00  0.00     0.028 C 
ATOM     12  C   LIG d   1      -0.921  77.198 114.061  0.00  0.00     0.006 C 
ENDBRANCH   8  11
ENDBRANCH   7   8
ENDBRANCH   1   7
BRANCH   6  13
ATOM     13  N   LIG d   1      -3.108  77.412 116.966  0.00  0.00    -0.311 N 
ATOM     14  C   LIG d   1      -2.973  78.713 116.716  0.00  0.00     0.210 C 
ATOM     15  C   LIG d   1      -1.810  79.394 117.445  0.00  0.00     0.109 C 
ATOM     16  O   LIG d   1      -3.724  79.375 115.984  0.00  0.00    -0.276 OA
ATOM     17  H   LIG d   1      -2.474  76.963 117.597  0.00  0.00     0.149 HD
ENDBRANCH   6  13
BRANCH   5  18
ATOM     18  N   LIG d   1      -6.110  77.738 117.428  0.00  0.00     0.381 N 
ATOM     19  H   LIG d   1      -6.504  77.774 118.347  0.00  0.00    -0.090 HD
ATOM     20  H   LIG d   1      -6.858  77.812 116.762  0.00  0.00    -0.090 HD
ATOM     21  H   LIG d   1      -5.469  78.490 117.304  0.00  0.00    -0.090 HD
ENDBRANCH   5  18
BRANCH   3  22
ATOM     22  C   LIG d   1      -6.650  73.142 116.194  0.00  0.00     0.382 C 
ATOM     23  O   LIG d   1      -6.330  72.143 115.505  0.00  0.00    -0.241 OA
ATOM     24  O   LIG d   1      -7.720  73.130 116.830  0.00  0.00    -0.241 OA
ENDBRANCH   3  22
TORSDOF 7
ENDMDL
MODEL 5
REMARK VINA RESULT:      -4.7      3.073      6.109
REMARK  7 active torsions:
REMARK  status: ('A' for Active; 'I' for Inactive)
REMARK    1  A    between atoms: C_2  and  C_3 
REMARK    2  A    between atoms: C_3  and  O_6 
REMARK    3  A    between atoms: C_3  and  C_4 
REMARK    4  A    between atoms: C_7  and  O_6 
REMARK    5  A    between atoms: C_9  and  C_10 
REMARK    6  A    between atoms: N_15  and  C_14 
REMARK    7  A    between atoms: N_20  and  C_19 
REMARK       I    between atoms: C_22  and  N_20 
ROOT
ATOM      1  C   LIG d   1      -6.414  76.280 117.336  0.00  0.00     0.161 C 
ATOM      2  C   LIG d   1      -7.252  75.160 117.463  0.00  0.00     0.016 C 
ATOM      3  C   LIG d   1      -7.048  73.951 116.758  0.00  0.00     0.038 C 
ATOM      4  C   LIG d   1      -5.897  73.728 115.987  0.00  0.00     0.028 C 
ATOM      5  C   LIG d   1      -5.282  75.008 115.431  0.00  0.00    -0.047 C 
ATOM      6  C   LIG d   1      -5.091  76.017 116.586  0.00  0.00     0.091 C 
ENDROOT
BRANCH   1   7
ATOM      7  O   LIG d   1      -6.148  76.841 118.637  0.00  0.00    -0.368 OA
BRANCH   7   8
ATOM      8  C   LIG d   1      -6.668  78.173 118.875  0.00  0.00     0.119 C 
BRANCH   8   9
ATOM      9  C   LIG d   1      -7.536  78.555 117.660  0.00  0.00     0.028 C 
ATOM     10  C   LIG d   1      -8.970  78.940 118.061  0.00  0.00     0.006 C 
ENDBRANCH   8   9
BRANCH   8  11
ATOM     11  C   LIG d   1      -5.543  79.211 118.912  0.00  0.00     0.028 C 
ATOM     12  C   LIG d   1      -5.693  80.292 117.829  0.00  0.00     0.006 C 
ENDBRANCH   8  11
ENDBRANCH   7   8
ENDBRANCH   1   7
BRANCH   6  13
ATOM     13  N   LIG d   1      -4.573  77.327 116.114  0.00  0.00    -0.311 N 
ATOM     14  C   LIG d   1      -3.284  77.661 116.147  0.00  0.00     0.210 C 
ATOM     15  C   LIG d   1      -2.967  79.068 115.632  0.00  0.00     0.109 C 
ATOM     16  O   LIG d   1      -2.369  76.913 116.525  0.00  0.00    -0.276 OA
ATOM     17  H   LIG d   1      -5.243  77.983 115.763  0.00  0.00     0.149 HD
ENDBRANCH   6  13
BRANCH   5  18
ATOM     18  N   LIG d   1      -4.017  74.643 114.766  0.00  0.00     0.381 N 
ATOM     19  H   LIG d   1      -3.243  74.921 115.336  0.00  0.00    -0.090 HD
ATOM     20  H   LIG d   1      -3.957  75.132 113.891  0.00  0.00    -0.090 HD
ATOM     21  H   LIG d   1      -3.986  73.659 114.608  0.00  0.00    -0.090 HD
ENDBRANCH   5  18
BRANCH   3  22
ATOM     22  C   LIG d   1      -8.022  72.965 116.788  0.00  0.00     0.382 C 
ATOM     23  O   LIG d   1      -7.742  71.797 116.425  0.00  0.00    -0.241 OA
ATOM     24  O   LIG d   1      -9.187  73.238 117.131  0.00  0.00    -0.241 OA
ENDBRANCH   3  22
TORSDOF 7
ENDMDL
MODEL 6
REMARK VINA RESULT:      -4.7      2.642      5.255
REMARK  7 active torsions:
REMARK  status: ('A' for Active; 'I' for Inactive)
REMARK    1  A    between atoms: C_2  and  C_3 
REMARK    2  A    between atoms: C_3  and  O_6 
REMARK    3  A    between atoms: C_3  and  C_4 
REMARK    4  A    between atoms: C_7  and  O_6 
REMARK    5  A    between atoms: C_9  and  C_10 
REMARK    6  A    between atoms: N_15  and  C_14 
REMARK    7  A    between atoms: N_20  and  C_19 
REMARK       I    between atoms: C_22  and  N_20 
ROOT
ATOM      1  C   LIG d   1      -1.036  76.690 115.736  0.00  0.00     0.161 C 
ATOM      2  C   LIG d   1      -2.214  76.056 115.306  0.00  0.00     0.016 C 
ATOM      3  C   LIG d   1      -3.199  76.696 114.519  0.00  0.00     0.038 C 
ATOM      4  C   LIG d   1      -3.001  77.975 113.978  0.00  0.00     0.028 C 
ATOM      5  C   LIG d   1      -2.053  78.840 114.802  0.00  0.00    -0.047 C 
ATOM      6  C   LIG d   1      -0.751  78.049 115.063  0.00  0.00     0.091 C 
ENDROOT
BRANCH   1   7
ATOM      7  O   LIG d   1       0.086  75.801 115.567  0.00  0.00    -0.368 OA
BRANCH   7   8
ATOM      8  C   LIG d   1      -0.223  74.387 115.510  0.00  0.00     0.119 C 
BRANCH   8   9
ATOM      9  C   LIG d   1       0.409  73.725 116.749  0.00  0.00     0.028 C 
ATOM     10  C   LIG d   1      -0.556  73.676 117.946  0.00  0.00     0.006 C 
ENDBRANCH   8   9
BRANCH   8  11
ATOM     11  C   LIG d   1       0.447  73.718 114.306  0.00  0.00     0.028 C 
ATOM     12  C   LIG d   1       1.980  73.812 114.349  0.00  0.00     0.006 C 
ENDBRANCH   8  11
ENDBRANCH   7   8
ENDBRANCH   1   7
BRANCH   6  13
ATOM     13  N   LIG d   1       0.199  78.790 115.933  0.00  0.00    -0.311 N 
ATOM     14  C   LIG d   1       1.053  79.703 115.475  0.00  0.00     0.210 C 
ATOM     15  C   LIG d   1       1.957  80.335 116.539  0.00  0.00     0.109 C 
ATOM     16  O   LIG d   1       1.126  80.074 114.294  0.00  0.00    -0.276 OA
ATOM     17  H   LIG d   1       0.185  78.575 116.911  0.00  0.00     0.149 HD
ENDBRANCH   6  13
BRANCH   5  18
ATOM     18  N   LIG d   1      -1.828  80.091 114.054  0.00  0.00     0.381 N 
ATOM     19  H   LIG d   1      -1.061  80.593 114.455  0.00  0.00    -0.090 HD
ATOM     20  H   LIG d   1      -2.651  80.664 114.124  0.00  0.00    -0.090 HD
ATOM     21  H   LIG d   1      -1.637  79.888 113.098  0.00  0.00    -0.090 HD
ENDBRANCH   5  18
BRANCH   3  22
ATOM     22  C   LIG d   1      -4.416  76.069 114.299  0.00  0.00     0.382 C 
ATOM     23  O   LIG d   1      -5.484  76.720 114.402  0.00  0.00    -0.241 OA
ATOM     24  O   LIG d   1      -4.463  74.851 114.042  0.00  0.00    -0.241 OA
ENDBRANCH   3  22
TORSDOF 7
ENDMDL
MODEL 7
REMARK VINA RESULT:      -4.5     12.539     15.109
REMARK  7 active torsions:
REMARK  status: ('A' for Active; 'I' for Inactive)
REMARK    1  A    between atoms: C_2  and  C_3 
REMARK    2  A    between atoms: C_3  and  O_6 
REMARK    3  A    between atoms: C_3  and  C_4 
REMARK    4  A    between atoms: C_7  and  O_6 
REMARK    5  A    between atoms: C_9  and  C_10 
REMARK    6  A    between atoms: N_15  and  C_14 
REMARK    7  A    between atoms: N_20  and  C_19 
REMARK       I    between atoms: C_22  and  N_20 
ROOT
ATOM      1  C   LIG d   1      11.378  78.217 114.260  0.00  0.00     0.161 C 
ATOM      2  C   LIG d   1      10.039  78.217 114.684  0.00  0.00     0.016 C 
ATOM      3  C   LIG d   1       9.374  77.063 115.160  0.00  0.00     0.038 C 
ATOM      4  C   LIG d   1      10.053  75.857 115.387  0.00  0.00     0.028 C 
ATOM      5  C   LIG d   1      11.280  75.675 114.500  0.00  0.00    -0.047 C 
ATOM      6  C   LIG d   1      12.167  76.937 114.606  0.00  0.00     0.091 C 
ENDROOT
BRANCH   1   7
ATOM      7  O   LIG d   1      12.055  79.378 114.781  0.00  0.00    -0.368 OA
BRANCH   7   8
ATOM      8  C   LIG d   1      12.754  79.198 116.038  0.00  0.00     0.119 C 
BRANCH   8   9
ATOM      9  C   LIG d   1      12.045  80.070 117.092  0.00  0.00     0.028 C 
ATOM     10  C   LIG d   1      11.191  79.238 118.063  0.00  0.00     0.006 C 
ENDBRANCH   8   9
BRANCH   8  11
ATOM     11  C   LIG d   1      14.186  79.738 115.961  0.00  0.00     0.028 C 
ATOM     12  C   LIG d   1      14.572  80.204 114.549  0.00  0.00     0.006 C 
ENDBRANCH   8  11
ENDBRANCH   7   8
ENDBRANCH   1   7
BRANCH   6  13
ATOM     13  N   LIG d   1      13.346  76.877 113.703  0.00  0.00    -0.311 N 
ATOM     14  C   LIG d   1      14.550  76.463 114.096  0.00  0.00     0.210 C 
ATOM     15  C   LIG d   1      15.632  76.500 113.012  0.00  0.00     0.109 C 
ATOM     16  O   LIG d   1      14.816  76.039 115.231  0.00  0.00    -0.276 OA
ATOM     17  H   LIG d   1      13.212  77.174 112.757  0.00  0.00     0.149 HD
ENDBRANCH   6  13
BRANCH   5  18
ATOM     18  N   LIG d   1      11.968  74.446 114.936  0.00  0.00     0.381 N 
ATOM     19  H   LIG d   1      11.943  73.765 114.203  0.00  0.00    -0.090 HD
ATOM     20  H   LIG d   1      11.485  74.069 115.733  0.00  0.00    -0.090 HD
ATOM     21  H   LIG d   1      12.912  74.651 115.178  0.00  0.00    -0.090 HD
ENDBRANCH   5  18
BRANCH   3  22
ATOM     22  C   LIG d   1       8.005  77.099 115.375  0.00  0.00     0.382 C 
ATOM     23  O   LIG d   1       7.290  77.903 114.730  0.00  0.00    -0.241 OA
ATOM     24  O   LIG d   1       7.482  76.369 116.238  0.00  0.00    -0.241 OA
ENDBRANCH   3  22
TORSDOF 7
ENDMDL
MODEL 8
REMARK VINA RESULT:      -4.4      2.729      3.849
REMARK  7 active torsions:
REMARK  status: ('A' for Active; 'I' for Inactive)
REMARK    1  A    between atoms: C_2  and  C_3 
REMARK    2  A    between atoms: C_3  and  O_6 
REMARK    3  A    between atoms: C_3  and  C_4 
REMARK    4  A    between atoms: C_7  and  O_6 
REMARK    5  A    between atoms: C_9  and  C_10 
REMARK    6  A    between atoms: N_15  and  C_14 
REMARK    7  A    between atoms: N_20  and  C_19 
REMARK       I    between atoms: C_22  and  N_20 
ROOT
ATOM      1  C   LIG d   1      -1.819  75.077 116.271  0.00  0.00     0.161 C 
ATOM      2  C   LIG d   1      -1.103  74.511 115.203  0.00  0.00     0.016 C 
ATOM      3  C   LIG d   1       0.185  73.946 115.343  0.00  0.00     0.038 C 
ATOM      4  C   LIG d   1       0.787  73.773 116.598  0.00  0.00     0.028 C 
ATOM      5  C   LIG d   1       0.319  74.785 117.639  0.00  0.00    -0.047 C 
ATOM      6  C   LIG d   1      -1.226  74.797 117.668  0.00  0.00     0.091 C 
ENDROOT
BRANCH   1   7
ATOM      7  O   LIG d   1      -3.195  74.652 116.217  0.00  0.00    -0.368 OA
BRANCH   7   8
ATOM      8  C   LIG d   1      -4.123  75.572 115.591  0.00  0.00     0.119 C 
BRANCH   8   9
ATOM      9  C   LIG d   1      -4.901  76.281 116.716  0.00  0.00     0.028 C 
ATOM     10  C   LIG d   1      -4.690  77.805 116.706  0.00  0.00     0.006 C 
ENDBRANCH   8   9
BRANCH   8  11
ATOM     11  C   LIG d   1      -5.182  74.827 114.773  0.00  0.00     0.028 C 
ATOM     12  C   LIG d   1      -5.651  73.529 115.449  0.00  0.00     0.006 C 
ENDBRANCH   8  11
ENDBRANCH   7   8
ENDBRANCH   1   7
BRANCH   6  13
ATOM     13  N   LIG d   1      -1.768  75.820 118.600  0.00  0.00    -0.311 N 
ATOM     14  C   LIG d   1      -1.530  77.125 118.475  0.00  0.00     0.210 C 
ATOM     15  C   LIG d   1      -2.167  78.005 119.555  0.00  0.00     0.109 C 
ATOM     16  O   LIG d   1      -0.878  77.640 117.554  0.00  0.00    -0.276 OA
ATOM     17  H   LIG d   1      -2.333  75.493 119.358  0.00  0.00     0.149 HD
ENDBRANCH   6  13
BRANCH   5  18
ATOM     18  N   LIG d   1       0.919  74.404 118.932  0.00  0.00     0.381 N 
ATOM     19  H   LIG d   1       1.205  73.446 118.903  0.00  0.00    -0.090 HD
ATOM     20  H   LIG d   1       0.227  74.505 119.653  0.00  0.00    -0.090 HD
ATOM     21  H   LIG d   1       1.703  74.987 119.129  0.00  0.00    -0.090 HD
ENDBRANCH   5  18
BRANCH   3  22
ATOM     22  C   LIG d   1       0.903  73.585 114.213  0.00  0.00     0.382 C 
ATOM     23  O   LIG d   1       2.151  73.715 114.195  0.00  0.00    -0.241 OA
ATOM     24  O   LIG d   1       0.315  73.172 113.196  0.00  0.00    -0.241 OA
ENDBRANCH   3  22
TORSDOF 7
ENDMDL
MODEL 9
REMARK VINA RESULT:      -4.4     21.390     24.162
REMARK  7 active torsions:
REMARK  status: ('A' for Active; 'I' for Inactive)
REMARK    1  A    between atoms: C_2  and  C_3 
REMARK    2  A    between atoms: C_3  and  O_6 
REMARK    3  A    between atoms: C_3  and  C_4 
REMARK    4  A    between atoms: C_7  and  O_6 
REMARK    5  A    between atoms: C_9  and  C_10 
REMARK    6  A    between atoms: N_15  and  C_14 
REMARK    7  A    between atoms: N_20  and  C_19 
REMARK       I    between atoms: C_22  and  N_20 
ROOT
ATOM      1  C   LIG d   1     -24.902  85.416 116.114  0.00  0.00     0.161 C 
ATOM      2  C   LIG d   1     -23.820  85.255 115.232  0.00  0.00     0.016 C 
ATOM      3  C   LIG d   1     -23.331  86.291 114.404  0.00  0.00     0.038 C 
ATOM      4  C   LIG d   1     -23.797  87.610 114.512  0.00  0.00     0.028 C 
ATOM      5  C   LIG d   1     -25.229  87.706 115.028  0.00  0.00    -0.047 C 
ATOM      6  C   LIG d   1     -25.351  86.877 116.327  0.00  0.00     0.091 C 
ENDROOT
BRANCH   1   7
ATOM      7  O   LIG d   1     -24.598  84.796 117.379  0.00  0.00    -0.368 OA
BRANCH   7   8
ATOM      8  C   LIG d   1     -23.191  84.638 117.689  0.00  0.00     0.119 C 
BRANCH   8   9
ATOM      9  C   LIG d   1     -22.930  83.134 117.899  0.00  0.00     0.028 C 
ATOM     10  C   LIG d   1     -21.826  82.595 116.974  0.00  0.00     0.006 C 
ENDBRANCH   8   9
BRANCH   8  11
ATOM     11  C   LIG d   1     -22.837  85.301 119.023  0.00  0.00     0.028 C 
ATOM     12  C   LIG d   1     -22.572  86.809 118.887  0.00  0.00     0.006 C 
ENDBRANCH   8  11
ENDBRANCH   7   8
ENDBRANCH   1   7
BRANCH   6  13
ATOM     13  N   LIG d   1     -26.741  86.847 116.852  0.00  0.00    -0.311 N 
ATOM     14  C   LIG d   1     -27.120  87.483 117.959  0.00  0.00     0.210 C 
ATOM     15  C   LIG d   1     -28.595  87.306 118.335  0.00  0.00     0.109 C 
ATOM     16  O   LIG d   1     -26.382  88.203 118.649  0.00  0.00    -0.276 OA
ATOM     17  H   LIG d   1     -27.412  86.312 116.337  0.00  0.00     0.149 HD
ENDBRANCH   6  13
BRANCH   5  18
ATOM     18  N   LIG d   1     -25.538  89.135 115.223  0.00  0.00     0.381 N 
ATOM     19  H   LIG d   1     -26.079  89.473 114.452  0.00  0.00    -0.090 HD
ATOM     20  H   LIG d   1     -24.677  89.652 115.255  0.00  0.00    -0.090 HD
ATOM     21  H   LIG d   1     -26.042  89.262 116.073  0.00  0.00    -0.090 HD
ENDBRANCH   5  18
BRANCH   3  22
ATOM     22  C   LIG d   1     -22.391  86.004 113.426  0.00  0.00     0.382 C 
ATOM     23  O   LIG d   1     -22.445  84.915 112.805  0.00  0.00    -0.241 OA
ATOM     24  O   LIG d   1     -21.463  86.800 113.188  0.00  0.00    -0.241 OA
ENDBRANCH   3  22
TORSDOF 7
ENDMDL
