MODEL 1
REMARK VINA RESULT:      -5.3      0.000      0.000
REMARK  7 active torsions:
REMARK  status: ('A' for Active; 'I' for Inactive)
REMARK    1  A    between atoms: C_2  and  C_3 
REMARK    2  A    between atoms: C_3  and  O_6 
REMARK    3  A    between atoms: C_3  and  C_4 
REMARK    4  A    between atoms: C_7  and  O_6 
REMARK    5  A    between atoms: C_9  and  C_10 
REMARK    6  A    between atoms: N_15  and  C_14 
REMARK    7  A    between atoms: N_20  and  C_19 
REMARK       I    between atoms: C_22  and  N_20 
ROOT
ATOM      1  C   LIG d   1      -6.099  77.777 117.226  0.00  0.00     0.161 C 
ATOM      2  C   LIG d   1      -7.460  77.719 117.568  0.00  0.00     0.016 C 
ATOM      3  C   LIG d   1      -8.116  78.719 118.322  0.00  0.00     0.038 C 
ATOM      4  C   LIG d   1      -7.486  79.926 118.660  0.00  0.00     0.028 C 
ATOM      5  C   LIG d   1      -5.970  79.807 118.772  0.00  0.00    -0.047 C 
ATOM      6  C   LIG d   1      -5.423  79.139 117.490  0.00  0.00     0.091 C 
ENDROOT
BRANCH   1   7
ATOM      7  O   LIG d   1      -5.924  77.390 115.849  0.00  0.00    -0.368 OA
BRANCH   7   8
ATOM      8  C   LIG d   1      -5.297  76.103 115.623  0.00  0.00     0.119 C 
BRANCH   8   9
ATOM      9  C   LIG d   1      -3.934  76.363 114.952  0.00  0.00     0.028 C 
ATOM     10  C   LIG d   1      -2.785  75.619 115.652  0.00  0.00     0.006 C 
ENDBRANCH   8   9
BRANCH   8  11
ATOM     11  C   LIG d   1      -6.091  75.265 114.616  0.00  0.00     0.028 C 
ATOM     12  C   LIG d   1      -6.347  73.831 115.105  0.00  0.00     0.006 C 
ENDBRANCH   8  11
ENDBRANCH   7   8
ENDBRANCH   1   7
BRANCH   6  13
ATOM     13  N   LIG d   1      -3.956  78.908 117.553  0.00  0.00    -0.311 N 
ATOM     14  C   LIG d   1      -3.108  79.320 116.612  0.00  0.00     0.210 C 
ATOM     15  C   LIG d   1      -1.640  78.961 116.862  0.00  0.00     0.109 C 
ATOM     16  O   LIG d   1      -3.428  79.978 115.610  0.00  0.00    -0.276 OA
ATOM     17  H   LIG d   1      -3.606  78.409 118.347  0.00  0.00     0.149 HD
ENDBRANCH   6  13
BRANCH   5  18
ATOM     18  N   LIG d   1      -5.432  81.163 118.992  0.00  0.00     0.381 N 
ATOM     19  H   LIG d   1      -4.970  81.482 118.163  0.00  0.00    -0.090 HD
ATOM     20  H   LIG d   1      -4.757  81.128 119.735  0.00  0.00    -0.090 HD
ATOM     21  H   LIG d   1      -6.169  81.788 119.231  0.00  0.00    -0.090 HD
ENDBRANCH   5  18
BRANCH   3  22
ATOM     22  C   LIG d   1      -9.405  78.498 118.782  0.00  0.00     0.382 C 
ATOM     23  O   LIG d   1     -10.319  79.311 118.502  0.00  0.00    -0.241 OA
ATOM     24  O   LIG d   1      -9.658  77.519 119.510  0.00  0.00    -0.241 OA
ENDBRANCH   3  22
TORSDOF 7
ENDMDL
MODEL 2
REMARK VINA RESULT:      -5.1      2.610      6.179
REMARK  7 active torsions:
REMARK  status: ('A' for Active; 'I' for Inactive)
REMARK    1  A    between atoms: C_2  and  C_3 
REMARK    2  A    between atoms: C_3  and  O_6 
REMARK    3  A    between atoms: C_3  and  C_4 
REMARK    4  A    between atoms: C_7  and  O_6 
REMARK    5  A    between atoms: C_9  and  C_10 
REMARK    6  A    between atoms: N_15  and  C_14 
REMARK    7  A    between atoms: N_20  and  C_19 
REMARK       I    between atoms: C_22  and  N_20 
ROOT
ATOM      1  C   LIG d   1      -3.811  78.082 117.194  0.00  0.00     0.161 C 
ATOM      2  C   LIG d   1      -2.846  78.933 117.757  0.00  0.00     0.016 C 
ATOM      3  C   LIG d   1      -1.482  78.918 117.385  0.00  0.00     0.038 C 
ATOM      4  C   LIG d   1      -1.016  78.149 116.308  0.00  0.00     0.028 C 
ATOM      5  C   LIG d   1      -1.856  76.904 116.045  0.00  0.00    -0.047 C 
ATOM      6  C   LIG d   1      -3.342  77.315 115.940  0.00  0.00     0.091 C 
ENDROOT
BRANCH   1   7
ATOM      7  O   LIG d   1      -5.011  78.827 116.906  0.00  0.00    -0.368 OA
BRANCH   7   8
ATOM      8  C   LIG d   1      -6.082  78.707 117.874  0.00  0.00     0.119 C 
BRANCH   8   9
ATOM      9  C   LIG d   1      -7.044  77.614 117.368  0.00  0.00     0.028 C 
ATOM     10  C   LIG d   1      -8.196  77.345 118.350  0.00  0.00     0.006 C 
ENDBRANCH   8   9
BRANCH   8  11
ATOM     11  C   LIG d   1      -6.921  79.986 117.938  0.00  0.00     0.028 C 
ATOM     12  C   LIG d   1      -6.079  81.260 117.765  0.00  0.00     0.006 C 
ENDBRANCH   8  11
ENDBRANCH   7   8
ENDBRANCH   1   7
BRANCH   6  13
ATOM     13  N   LIG d   1      -4.242  76.145 115.766  0.00  0.00    -0.311 N 
ATOM     14  C   LIG d   1      -4.954  75.924 114.662  0.00  0.00     0.210 C 
ATOM     15  C   LIG d   1      -5.833  74.671 114.698  0.00  0.00     0.109 C 
ATOM     16  O   LIG d   1      -4.915  76.631 113.643  0.00  0.00    -0.276 OA
ATOM     17  H   LIG d   1      -4.310  75.503 116.532  0.00  0.00     0.149 HD
ENDBRANCH   6  13
BRANCH   5  18
ATOM     18  N   LIG d   1      -1.342  76.272 114.815  0.00  0.00     0.381 N 
ATOM     19  H   LIG d   1      -1.753  75.367 114.702  0.00  0.00    -0.090 HD
ATOM     20  H   LIG d   1      -0.347  76.159 114.899  0.00  0.00    -0.090 HD
ATOM     21  H   LIG d   1      -1.553  76.842 114.025  0.00  0.00    -0.090 HD
ENDBRANCH   5  18
BRANCH   3  22
ATOM     22  C   LIG d   1      -0.561  79.649 118.120  0.00  0.00     0.382 C 
ATOM     23  O   LIG d   1       0.326  80.313 117.531  0.00  0.00    -0.241 OA
ATOM     24  O   LIG d   1      -0.578  79.617 119.365  0.00  0.00    -0.241 OA
ENDBRANCH   3  22
TORSDOF 7
ENDMDL
MODEL 3
REMARK VINA RESULT:      -5.1      2.660      5.368
REMARK  7 active torsions:
REMARK  status: ('A' for Active; 'I' for Inactive)
REMARK    1  A    between atoms: C_2  and  C_3 
REMARK    2  A    between atoms: C_3  and  O_6 
REMARK    3  A    between atoms: C_3  and  C_4 
REMARK    4  A    between atoms: C_7  and  O_6 
REMARK    5  A    between atoms: C_9  and  C_10 
REMARK    6  A    between atoms: N_15  and  C_14 
REMARK    7  A    between atoms: N_20  and  C_19 
REMARK       I    between atoms: C_22  and  N_20 
ROOT
ATOM      1  C   LIG d   1      -3.837  77.900 116.701  0.00  0.00     0.161 C 
ATOM      2  C   LIG d   1      -4.801  77.276 115.890  0.00  0.00     0.016 C 
ATOM      3  C   LIG d   1      -4.608  76.014 115.283  0.00  0.00     0.038 C 
ATOM      4  C   LIG d   1      -3.490  75.216 115.569  0.00  0.00     0.028 C 
ATOM      5  C   LIG d   1      -2.262  76.021 115.982  0.00  0.00    -0.047 C 
ATOM      6  C   LIG d   1      -2.657  76.995 117.114  0.00  0.00     0.091 C 
ENDROOT
BRANCH   1   7
ATOM      7  O   LIG d   1      -4.470  78.463 117.867  0.00  0.00    -0.368 OA
BRANCH   7   8
ATOM      8  C   LIG d   1      -5.782  79.043 117.663  0.00  0.00     0.119 C 
BRANCH   8   9
ATOM      9  C   LIG d   1      -5.649  80.567 117.851  0.00  0.00     0.028 C 
ATOM     10  C   LIG d   1      -7.012  81.278 117.859  0.00  0.00     0.006 C 
ENDBRANCH   8   9
BRANCH   8  11
ATOM     11  C   LIG d   1      -6.767  78.586 118.742  0.00  0.00     0.028 C 
ATOM     12  C   LIG d   1      -7.817  77.598 118.210  0.00  0.00     0.006 C 
ENDBRANCH   8  11
ENDBRANCH   7   8
ENDBRANCH   1   7
BRANCH   6  13
ATOM     13  N   LIG d   1      -1.534  77.880 117.519  0.00  0.00    -0.311 N 
ATOM     14  C   LIG d   1      -0.705  77.599 118.524  0.00  0.00     0.210 C 
ATOM     15  C   LIG d   1       0.373  78.655 118.787  0.00  0.00     0.109 C 
ATOM     16  O   LIG d   1      -0.741  76.560 119.201  0.00  0.00    -0.276 OA
ATOM     17  H   LIG d   1      -1.413  78.729 117.003  0.00  0.00     0.149 HD
ENDBRANCH   6  13
BRANCH   5  18
ATOM     18  N   LIG d   1      -1.216  75.061 116.384  0.00  0.00     0.381 N 
ATOM     19  H   LIG d   1      -1.203  74.972 117.380  0.00  0.00    -0.090 HD
ATOM     20  H   LIG d   1      -0.322  75.412 116.087  0.00  0.00    -0.090 HD
ATOM     21  H   LIG d   1      -1.388  74.174 115.965  0.00  0.00    -0.090 HD
ENDBRANCH   5  18
BRANCH   3  22
ATOM     22  C   LIG d   1      -5.522  75.556 114.346  0.00  0.00     0.382 C 
ATOM     23  O   LIG d   1      -5.815  74.337 114.301  0.00  0.00    -0.241 OA
ATOM     24  O   LIG d   1      -6.023  76.338 113.517  0.00  0.00    -0.241 OA
ENDBRANCH   3  22
TORSDOF 7
ENDMDL
MODEL 4
REMARK VINA RESULT:      -4.9     14.649     17.702
REMARK  7 active torsions:
REMARK  status: ('A' for Active; 'I' for Inactive)
REMARK    1  A    between atoms: C_2  and  C_3 
REMARK    2  A    between atoms: C_3  and  O_6 
REMARK    3  A    between atoms: C_3  and  C_4 
REMARK    4  A    between atoms: C_7  and  O_6 
REMARK    5  A    between atoms: C_9  and  C_10 
REMARK    6  A    between atoms: N_15  and  C_14 
REMARK    7  A    between atoms: N_20  and  C_19 
REMARK       I    between atoms: C_22  and  N_20 
ROOT
ATOM      1  C   LIG d   1      10.597  78.036 114.579  0.00  0.00     0.161 C 
ATOM      2  C   LIG d   1       9.731  76.930 114.621  0.00  0.00     0.016 C 
ATOM      3  C   LIG d   1      10.164  75.596 114.446  0.00  0.00     0.038 C 
ATOM      4  C   LIG d   1      11.524  75.262 114.369  0.00  0.00     0.028 C 
ATOM      5  C   LIG d   1      12.394  76.387 113.817  0.00  0.00    -0.047 C 
ATOM      6  C   LIG d   1      12.099  77.682 114.607  0.00  0.00     0.091 C 
ENDROOT
BRANCH   1   7
ATOM      7  O   LIG d   1      10.277  78.947 115.649  0.00  0.00    -0.368 OA
BRANCH   7   8
ATOM      8  C   LIG d   1       9.740  78.350 116.855  0.00  0.00     0.119 C 
BRANCH   8   9
ATOM      9  C   LIG d   1       8.570  79.235 117.328  0.00  0.00     0.028 C 
ATOM     10  C   LIG d   1       7.247  78.884 116.626  0.00  0.00     0.006 C 
ENDBRANCH   8   9
BRANCH   8  11
ATOM     11  C   LIG d   1      10.761  78.384 117.996  0.00  0.00     0.028 C 
ATOM     12  C   LIG d   1      11.507  77.052 118.168  0.00  0.00     0.006 C 
ENDBRANCH   8  11
ENDBRANCH   7   8
ENDBRANCH   1   7
BRANCH   6  13
ATOM     13  N   LIG d   1      12.846  78.852 114.076  0.00  0.00    -0.311 N 
ATOM     14  C   LIG d   1      14.030  79.240 114.545  0.00  0.00     0.210 C 
ATOM     15  C   LIG d   1      14.618  80.483 113.870  0.00  0.00     0.109 C 
ATOM     16  O   LIG d   1      14.666  78.653 115.434  0.00  0.00    -0.276 OA
ATOM     17  H   LIG d   1      12.417  79.368 113.332  0.00  0.00     0.149 HD
ENDBRANCH   6  13
BRANCH   5  18
ATOM     18  N   LIG d   1      13.800  75.955 113.920  0.00  0.00     0.381 N 
ATOM     19  H   LIG d   1      14.109  75.592 113.040  0.00  0.00    -0.090 HD
ATOM     20  H   LIG d   1      13.866  75.221 114.603  0.00  0.00    -0.090 HD
ATOM     21  H   LIG d   1      14.374  76.723 114.191  0.00  0.00    -0.090 HD
ENDBRANCH   5  18
BRANCH   3  22
ATOM     22  C   LIG d   1       9.228  74.582 114.308  0.00  0.00     0.382 C 
ATOM     23  O   LIG d   1       9.345  73.526 114.975  0.00  0.00    -0.241 OA
ATOM     24  O   LIG d   1       8.294  74.692 113.491  0.00  0.00    -0.241 OA
ENDBRANCH   3  22
TORSDOF 7
ENDMDL
MODEL 5
REMARK VINA RESULT:      -4.6     15.077     17.467
REMARK  7 active torsions:
REMARK  status: ('A' for Active; 'I' for Inactive)
REMARK    1  A    between atoms: C_2  and  C_3 
REMARK    2  A    between atoms: C_3  and  O_6 
REMARK    3  A    between atoms: C_3  and  C_4 
REMARK    4  A    between atoms: C_7  and  O_6 
REMARK    5  A    between atoms: C_9  and  C_10 
REMARK    6  A    between atoms: N_15  and  C_14 
REMARK    7  A    between atoms: N_20  and  C_19 
REMARK       I    between atoms: C_22  and  N_20 
ROOT
ATOM      1  C   LIG d   1      10.748  75.730 115.001  0.00  0.00     0.161 C 
ATOM      2  C   LIG d   1       9.571  76.485 115.134  0.00  0.00     0.016 C 
ATOM      3  C   LIG d   1       9.543  77.898 115.087  0.00  0.00     0.038 C 
ATOM      4  C   LIG d   1      10.677  78.651 114.750  0.00  0.00     0.028 C 
ATOM      5  C   LIG d   1      11.990  77.961 115.105  0.00  0.00    -0.047 C 
ATOM      6  C   LIG d   1      11.978  76.529 114.522  0.00  0.00     0.091 C 
ENDROOT
BRANCH   1   7
ATOM      7  O   LIG d   1      10.511  74.606 114.131  0.00  0.00    -0.368 OA
BRANCH   7   8
ATOM      8  C   LIG d   1      10.469  73.305 114.768  0.00  0.00     0.119 C 
BRANCH   8   9
ATOM      9  C   LIG d   1      11.540  72.425 114.094  0.00  0.00     0.028 C 
ATOM     10  C   LIG d   1      12.752  72.175 115.007  0.00  0.00     0.006 C 
ENDBRANCH   8   9
BRANCH   8  11
ATOM     11  C   LIG d   1       9.137  72.597 114.502  0.00  0.00     0.028 C 
ATOM     12  C   LIG d   1       9.270  71.067 114.476  0.00  0.00     0.006 C 
ENDBRANCH   8  11
ENDBRANCH   7   8
ENDBRANCH   1   7
BRANCH   6  13
ATOM     13  N   LIG d   1      13.190  75.755 114.895  0.00  0.00    -0.311 N 
ATOM     14  C   LIG d   1      14.312  75.759 114.177  0.00  0.00     0.210 C 
ATOM     15  C   LIG d   1      15.435  74.875 114.728  0.00  0.00     0.109 C 
ATOM     16  O   LIG d   1      14.494  76.434 113.153  0.00  0.00    -0.276 OA
ATOM     17  H   LIG d   1      13.140  75.203 115.729  0.00  0.00     0.149 HD
ENDBRANCH   6  13
BRANCH   5  18
ATOM     18  N   LIG d   1      13.088  78.792 114.576  0.00  0.00     0.381 N 
ATOM     19  H   LIG d   1      13.966  78.442 114.905  0.00  0.00    -0.090 HD
ATOM     20  H   LIG d   1      12.976  79.731 114.913  0.00  0.00    -0.090 HD
ATOM     21  H   LIG d   1      13.071  78.784 113.580  0.00  0.00    -0.090 HD
ENDBRANCH   5  18
BRANCH   3  22
ATOM     22  C   LIG d   1       8.378  78.574 115.418  0.00  0.00     0.382 C 
ATOM     23  O   LIG d   1       7.383  78.518 114.657  0.00  0.00    -0.241 OA
ATOM     24  O   LIG d   1       8.325  79.275 116.447  0.00  0.00    -0.241 OA
ENDBRANCH   3  22
TORSDOF 7
ENDMDL
MODEL 6
REMARK VINA RESULT:      -4.6      2.902      6.297
REMARK  7 active torsions:
REMARK  status: ('A' for Active; 'I' for Inactive)
REMARK    1  A    between atoms: C_2  and  C_3 
REMARK    2  A    between atoms: C_3  and  O_6 
REMARK    3  A    between atoms: C_3  and  C_4 
REMARK    4  A    between atoms: C_7  and  O_6 
REMARK    5  A    between atoms: C_9  and  C_10 
REMARK    6  A    between atoms: N_15  and  C_14 
REMARK    7  A    between atoms: N_20  and  C_19 
REMARK       I    between atoms: C_22  and  N_20 
ROOT
ATOM      1  C   LIG d   1      -3.107  77.464 117.093  0.00  0.00     0.161 C 
ATOM      2  C   LIG d   1      -2.028  78.341 117.296  0.00  0.00     0.016 C 
ATOM      3  C   LIG d   1      -1.221  78.837 116.247  0.00  0.00     0.038 C 
ATOM      4  C   LIG d   1      -1.533  78.607 114.899  0.00  0.00     0.028 C 
ATOM      5  C   LIG d   1      -2.313  77.316 114.669  0.00  0.00    -0.047 C 
ATOM      6  C   LIG d   1      -3.532  77.291 115.620  0.00  0.00     0.091 C 
ENDROOT
BRANCH   1   7
ATOM      7  O   LIG d   1      -4.232  77.880 117.893  0.00  0.00    -0.368 OA
BRANCH   7   8
ATOM      8  C   LIG d   1      -5.245  78.659 117.211  0.00  0.00     0.119 C 
BRANCH   8   9
ATOM      9  C   LIG d   1      -4.952  80.146 117.491  0.00  0.00     0.028 C 
ATOM     10  C   LIG d   1      -6.225  80.943 117.823  0.00  0.00     0.006 C 
ENDBRANCH   8   9
BRANCH   8  11
ATOM     11  C   LIG d   1      -6.635  78.403 117.800  0.00  0.00     0.028 C 
ATOM     12  C   LIG d   1      -7.330  77.182 117.177  0.00  0.00     0.006 C 
ENDBRANCH   8  11
ENDBRANCH   7   8
ENDBRANCH   1   7
BRANCH   6  13
ATOM     13  N   LIG d   1      -4.302  76.023 115.520  0.00  0.00    -0.311 N 
ATOM     14  C   LIG d   1      -5.259  75.817 114.617  0.00  0.00     0.210 C 
ATOM     15  C   LIG d   1      -5.942  74.448 114.701  0.00  0.00     0.109 C 
ATOM     16  O   LIG d   1      -5.585  76.624 113.735  0.00  0.00    -0.276 OA
ATOM     17  H   LIG d   1      -4.080  75.302 116.178  0.00  0.00     0.149 HD
ENDBRANCH   6  13
BRANCH   5  18
ATOM     18  N   LIG d   1      -2.691  77.271 113.244  0.00  0.00     0.381 N 
ATOM     19  H   LIG d   1      -3.416  76.595 113.107  0.00  0.00    -0.090 HD
ATOM     20  H   LIG d   1      -1.891  76.990 112.704  0.00  0.00    -0.090 HD
ATOM     21  H   LIG d   1      -3.004  78.169 112.946  0.00  0.00    -0.090 HD
ENDBRANCH   5  18
BRANCH   3  22
ATOM     22  C   LIG d   1      -0.063  79.539 116.544  0.00  0.00     0.382 C 
ATOM     23  O   LIG d   1       0.081  80.061 117.675  0.00  0.00    -0.241 OA
ATOM     24  O   LIG d   1       0.821  79.695 115.680  0.00  0.00    -0.241 OA
ENDBRANCH   3  22
TORSDOF 7
ENDMDL
MODEL 7
REMARK VINA RESULT:      -4.5      2.388      5.298
REMARK  7 active torsions:
REMARK  status: ('A' for Active; 'I' for Inactive)
REMARK    1  A    between atoms: C_2  and  C_3 
REMARK    2  A    between atoms: C_3  and  O_6 
REMARK    3  A    between atoms: C_3  and  C_4 
REMARK    4  A    between atoms: C_7  and  O_6 
REMARK    5  A    between atoms: C_9  and  C_10 
REMARK    6  A    between atoms: N_15  and  C_14 
REMARK    7  A    between atoms: N_20  and  C_19 
REMARK       I    between atoms: C_22  and  N_20 
ROOT
ATOM      1  C   LIG d   1      -4.221  77.375 115.636  0.00  0.00     0.161 C 
ATOM      2  C   LIG d   1      -3.369  76.287 115.383  0.00  0.00     0.016 C 
ATOM      3  C   LIG d   1      -2.362  75.862 116.280  0.00  0.00     0.038 C 
ATOM      4  C   LIG d   1      -2.237  76.407 117.566  0.00  0.00     0.028 C 
ATOM      5  C   LIG d   1      -2.744  77.841 117.669  0.00  0.00    -0.047 C 
ATOM      6  C   LIG d   1      -4.173  77.911 117.082  0.00  0.00     0.091 C 
ENDROOT
BRANCH   1   7
ATOM      7  O   LIG d   1      -5.573  77.031 115.274  0.00  0.00    -0.368 OA
BRANCH   7   8
ATOM      8  C   LIG d   1      -6.111  75.831 115.882  0.00  0.00     0.119 C 
BRANCH   8   9
ATOM      9  C   LIG d   1      -6.100  74.725 114.809  0.00  0.00     0.028 C 
ATOM     10  C   LIG d   1      -6.638  73.386 115.342  0.00  0.00     0.006 C 
ENDBRANCH   8   9
BRANCH   8  11
ATOM     11  C   LIG d   1      -7.582  76.011 116.265  0.00  0.00     0.028 C 
ATOM     12  C   LIG d   1      -7.779  76.997 117.428  0.00  0.00     0.006 C 
ENDBRANCH   8  11
ENDBRANCH   7   8
ENDBRANCH   1   7
BRANCH   6  13
ATOM     13  N   LIG d   1      -4.712  79.296 117.067  0.00  0.00    -0.311 N 
ATOM     14  C   LIG d   1      -5.454  79.805 118.049  0.00  0.00     0.210 C 
ATOM     15  C   LIG d   1      -5.925  81.245 117.824  0.00  0.00     0.109 C 
ATOM     16  O   LIG d   1      -5.739  79.211 119.100  0.00  0.00    -0.276 OA
ATOM     17  H   LIG d   1      -4.502  79.858 116.265  0.00  0.00     0.149 HD
ENDBRANCH   6  13
BRANCH   5  18
ATOM     18  N   LIG d   1      -2.682  78.236 119.089  0.00  0.00     0.381 N 
ATOM     19  H   LIG d   1      -2.135  79.068 119.186  0.00  0.00    -0.090 HD
ATOM     20  H   LIG d   1      -2.236  77.502 119.611  0.00  0.00    -0.090 HD
ATOM     21  H   LIG d   1      -3.602  78.391 119.440  0.00  0.00    -0.090 HD
ENDBRANCH   5  18
BRANCH   3  22
ATOM     22  C   LIG d   1      -1.440  74.909 115.876  0.00  0.00     0.382 C 
ATOM     23  O   LIG d   1      -1.049  74.033 116.684  0.00  0.00    -0.241 OA
ATOM     24  O   LIG d   1      -0.961  74.939 114.726  0.00  0.00    -0.241 OA
ENDBRANCH   3  22
TORSDOF 7
ENDMDL
MODEL 8
REMARK VINA RESULT:      -4.4     16.105     19.443
REMARK  7 active torsions:
REMARK  status: ('A' for Active; 'I' for Inactive)
REMARK    1  A    between atoms: C_2  and  C_3 
REMARK    2  A    between atoms: C_3  and  O_6 
REMARK    3  A    between atoms: C_3  and  C_4 
REMARK    4  A    between atoms: C_7  and  O_6 
REMARK    5  A    between atoms: C_9  and  C_10 
REMARK    6  A    between atoms: N_15  and  C_14 
REMARK    7  A    between atoms: N_20  and  C_19 
REMARK       I    between atoms: C_22  and  N_20 
ROOT
ATOM      1  C   LIG d   1      12.156  72.487 114.290  0.00  0.00     0.161 C 
ATOM      2  C   LIG d   1      11.331  73.623 114.285  0.00  0.00     0.016 C 
ATOM      3  C   LIG d   1       9.930  73.569 114.468  0.00  0.00     0.038 C 
ATOM      4  C   LIG d   1       9.274  72.381 114.822  0.00  0.00     0.028 C 
ATOM      5  C   LIG d   1       9.994  71.125 114.342  0.00  0.00    -0.047 C 
ATOM      6  C   LIG d   1      11.473  71.194 114.785  0.00  0.00     0.091 C 
ENDROOT
BRANCH   1   7
ATOM      7  O   LIG d   1      13.346  72.750 115.058  0.00  0.00    -0.368 OA
BRANCH   7   8
ATOM      8  C   LIG d   1      14.558  72.981 114.297  0.00  0.00     0.119 C 
BRANCH   8   9
ATOM      9  C   LIG d   1      15.558  71.870 114.671  0.00  0.00     0.028 C 
ATOM     10  C   LIG d   1      15.267  71.258 116.052  0.00  0.00     0.006 C 
ENDBRANCH   8   9
BRANCH   8  11
ATOM     11  C   LIG d   1      15.234  74.292 114.711  0.00  0.00     0.028 C 
ATOM     12  C   LIG d   1      14.602  75.524 114.045  0.00  0.00     0.006 C 
ENDBRANCH   8  11
ENDBRANCH   7   8
ENDBRANCH   1   7
BRANCH   6  13
ATOM     13  N   LIG d   1      12.270  70.044 114.283  0.00  0.00    -0.311 N 
ATOM     14  C   LIG d   1      12.474  68.932 114.987  0.00  0.00     0.210 C 
ATOM     15  C   LIG d   1      13.341  67.877 114.291  0.00  0.00     0.109 C 
ATOM     16  O   LIG d   1      11.993  68.705 116.107  0.00  0.00    -0.276 OA
ATOM     17  H   LIG d   1      12.671  70.131 113.370  0.00  0.00     0.149 HD
ENDBRANCH   6  13
BRANCH   5  18
ATOM     18  N   LIG d   1       9.278  69.961 114.897  0.00  0.00     0.381 N 
ATOM     19  H   LIG d   1       9.935  69.305 115.270  0.00  0.00    -0.090 HD
ATOM     20  H   LIG d   1       8.768  69.510 114.157  0.00  0.00    -0.090 HD
ATOM     21  H   LIG d   1       8.650  70.256 115.611  0.00  0.00    -0.090 HD
ENDBRANCH   5  18
BRANCH   3  22
ATOM     22  C   LIG d   1       9.165  74.706 114.258  0.00  0.00     0.382 C 
ATOM     23  O   LIG d   1       9.382  75.742 114.932  0.00  0.00    -0.241 OA
ATOM     24  O   LIG d   1       8.231  74.696 113.434  0.00  0.00    -0.241 OA
ENDBRANCH   3  22
TORSDOF 7
ENDMDL
MODEL 9
REMARK VINA RESULT:      -4.4     16.080     18.957
REMARK  7 active torsions:
REMARK  status: ('A' for Active; 'I' for Inactive)
REMARK    1  A    between atoms: C_2  and  C_3 
REMARK    2  A    between atoms: C_3  and  O_6 
REMARK    3  A    between atoms: C_3  and  C_4 
REMARK    4  A    between atoms: C_7  and  O_6 
REMARK    5  A    between atoms: C_9  and  C_10 
REMARK    6  A    between atoms: N_15  and  C_14 
REMARK    7  A    between atoms: N_20  and  C_19 
REMARK       I    between atoms: C_22  and  N_20 
ROOT
ATOM      1  C   LIG d   1      12.135  72.511 114.361  0.00  0.00     0.161 C 
ATOM      2  C   LIG d   1      11.304  73.643 114.332  0.00  0.00     0.016 C 
ATOM      3  C   LIG d   1       9.897  73.578 114.458  0.00  0.00     0.038 C 
ATOM      4  C   LIG d   1       9.235  72.382 114.775  0.00  0.00     0.028 C 
ATOM      5  C   LIG d   1       9.982  71.136 114.313  0.00  0.00    -0.047 C 
ATOM      6  C   LIG d   1      11.442  71.210 114.817  0.00  0.00     0.091 C 
ENDROOT
BRANCH   1   7
ATOM      7  O   LIG d   1      13.292  72.775 115.179  0.00  0.00    -0.368 OA
BRANCH   7   8
ATOM      8  C   LIG d   1      13.153  73.836 116.156  0.00  0.00     0.119 C 
BRANCH   8   9
ATOM      9  C   LIG d   1      14.463  74.646 116.151  0.00  0.00     0.028 C 
ATOM     10  C   LIG d   1      14.407  75.860 117.093  0.00  0.00     0.006 C 
ENDBRANCH   8   9
BRANCH   8  11
ATOM     11  C   LIG d   1      13.030  73.273 117.575  0.00  0.00     0.028 C 
ATOM     12  C   LIG d   1      11.572  73.168 118.051  0.00  0.00     0.006 C 
ENDBRANCH   8  11
ENDBRANCH   7   8
ENDBRANCH   1   7
BRANCH   6  13
ATOM     13  N   LIG d   1      12.266  70.070 114.337  0.00  0.00    -0.311 N 
ATOM     14  C   LIG d   1      12.436  68.946 115.031  0.00  0.00     0.210 C 
ATOM     15  C   LIG d   1      13.340  67.904 114.364  0.00  0.00     0.109 C 
ATOM     16  O   LIG d   1      11.898  68.699 116.121  0.00  0.00    -0.276 OA
ATOM     17  H   LIG d   1      12.714  70.172 113.448  0.00  0.00     0.149 HD
ENDBRANCH   6  13
BRANCH   5  18
ATOM     18  N   LIG d   1       9.252  69.962 114.828  0.00  0.00     0.381 N 
ATOM     19  H   LIG d   1       8.269  70.091 114.699  0.00  0.00    -0.090 HD
ATOM     20  H   LIG d   1       9.433  69.873 115.813  0.00  0.00    -0.090 HD
ATOM     21  H   LIG d   1       9.551  69.139 114.353  0.00  0.00    -0.090 HD
ENDBRANCH   5  18
BRANCH   3  22
ATOM     22  C   LIG d   1       9.133  74.712 114.227  0.00  0.00     0.382 C 
ATOM     23  O   LIG d   1       9.360  75.763 114.873  0.00  0.00    -0.241 OA
ATOM     24  O   LIG d   1       8.191  74.684 113.413  0.00  0.00    -0.241 OA
ENDBRANCH   3  22
TORSDOF 7
ENDMDL
