MODEL 1
REMARK VINA RESULT:      -5.7      0.000      0.000
REMARK  7 active torsions:
REMARK  status: ('A' for Active; 'I' for Inactive)
REMARK    1  A    between atoms: C_2  and  C_3 
REMARK    2  A    between atoms: C_3  and  O_6 
REMARK    3  A    between atoms: C_3  and  C_4 
REMARK    4  A    between atoms: C_7  and  O_6 
REMARK    5  A    between atoms: C_9  and  C_10 
REMARK    6  A    between atoms: N_15  and  C_14 
REMARK    7  A    between atoms: N_20  and  C_19 
REMARK       I    between atoms: C_22  and  N_20 
ROOT
ATOM      1  C   LIG d   1      -4.033  74.694 116.807  0.00  0.00     0.161 C 
ATOM      2  C   LIG d   1      -3.187  74.249 117.836  0.00  0.00     0.016 C 
ATOM      3  C   LIG d   1      -1.778  74.347 117.782  0.00  0.00     0.038 C 
ATOM      4  C   LIG d   1      -1.122  75.040 116.754  0.00  0.00     0.028 C 
ATOM      5  C   LIG d   1      -1.903  75.063 115.445  0.00  0.00    -0.047 C 
ATOM      6  C   LIG d   1      -3.342  75.552 115.727  0.00  0.00     0.091 C 
ENDROOT
BRANCH   1   7
ATOM      7  O   LIG d   1      -5.155  75.403 117.369  0.00  0.00    -0.368 OA
BRANCH   7   8
ATOM      8  C   LIG d   1      -6.328  74.607 117.668  0.00  0.00     0.119 C 
BRANCH   8   9
ATOM      9  C   LIG d   1      -6.733  73.876 116.374  0.00  0.00     0.028 C 
ATOM     10  C   LIG d   1      -7.537  72.594 116.651  0.00  0.00     0.006 C 
ENDBRANCH   8   9
BRANCH   8  11
ATOM     11  C   LIG d   1      -7.525  75.491 118.027  0.00  0.00     0.028 C 
ATOM     12  C   LIG d   1      -7.946  76.420 116.877  0.00  0.00     0.006 C 
ENDBRANCH   8  11
ENDBRANCH   7   8
ENDBRANCH   1   7
BRANCH   6  13
ATOM     13  N   LIG d   1      -4.199  75.524 114.513  0.00  0.00    -0.311 N 
ATOM     14  C   LIG d   1      -5.072  76.483 114.210  0.00  0.00     0.210 C 
ATOM     15  C   LIG d   1      -5.869  76.248 112.923  0.00  0.00     0.109 C 
ATOM     16  O   LIG d   1      -5.239  77.522 114.867  0.00  0.00    -0.276 OA
ATOM     17  H   LIG d   1      -4.106  74.733 113.908  0.00  0.00     0.149 HD
ENDBRANCH   6  13
BRANCH   5  18
ATOM     18  N   LIG d   1      -1.171  75.932 114.504  0.00  0.00     0.381 N 
ATOM     19  H   LIG d   1      -1.733  76.725 114.268  0.00  0.00    -0.090 HD
ATOM     20  H   LIG d   1      -0.986  75.415 113.662  0.00  0.00    -0.090 HD
ATOM     21  H   LIG d   1      -0.314  76.232 114.913  0.00  0.00    -0.090 HD
ENDBRANCH   5  18
BRANCH   3  22
ATOM     22  C   LIG d   1      -1.007  73.714 118.745  0.00  0.00     0.382 C 
ATOM     23  O   LIG d   1       0.076  74.226 119.118  0.00  0.00    -0.241 OA
ATOM     24  O   LIG d   1      -1.360  72.615 119.214  0.00  0.00    -0.241 OA
ENDBRANCH   3  22
TORSDOF 7
ENDMDL
MODEL 2
REMARK VINA RESULT:      -5.7      2.686      5.689
REMARK  7 active torsions:
REMARK  status: ('A' for Active; 'I' for Inactive)
REMARK    1  A    between atoms: C_2  and  C_3 
REMARK    2  A    between atoms: C_3  and  O_6 
REMARK    3  A    between atoms: C_3  and  C_4 
REMARK    4  A    between atoms: C_7  and  O_6 
REMARK    5  A    between atoms: C_9  and  C_10 
REMARK    6  A    between atoms: N_15  and  C_14 
REMARK    7  A    between atoms: N_20  and  C_19 
REMARK       I    between atoms: C_22  and  N_20 
ROOT
ATOM      1  C   LIG d   1      -6.863  75.784 118.484  0.00  0.00     0.161 C 
ATOM      2  C   LIG d   1      -7.972  76.646 118.458  0.00  0.00     0.016 C 
ATOM      3  C   LIG d   1      -7.991  77.869 117.749  0.00  0.00     0.038 C 
ATOM      4  C   LIG d   1      -6.948  78.243 116.889  0.00  0.00     0.028 C 
ATOM      5  C   LIG d   1      -5.599  77.649 117.279  0.00  0.00    -0.047 C 
ATOM      6  C   LIG d   1      -5.757  76.123 117.462  0.00  0.00     0.091 C 
ENDROOT
BRANCH   1   7
ATOM      7  O   LIG d   1      -7.299  74.421 118.317  0.00  0.00    -0.368 OA
BRANCH   7   8
ATOM      8  C   LIG d   1      -7.846  74.081 117.019  0.00  0.00     0.119 C 
BRANCH   8   9
ATOM      9  C   LIG d   1      -9.146  73.289 117.258  0.00  0.00     0.028 C 
ATOM     10  C   LIG d   1     -10.401  74.096 116.886  0.00  0.00     0.006 C 
ENDBRANCH   8   9
BRANCH   8  11
ATOM     11  C   LIG d   1      -6.923  73.125 116.258  0.00  0.00     0.028 C 
ATOM     12  C   LIG d   1      -7.457  71.684 116.221  0.00  0.00     0.006 C 
ENDBRANCH   8  11
ENDBRANCH   7   8
ENDBRANCH   1   7
BRANCH   6  13
ATOM     13  N   LIG d   1      -4.502  75.474 117.926  0.00  0.00    -0.311 N 
ATOM     14  C   LIG d   1      -3.564  75.017 117.099  0.00  0.00     0.210 C 
ATOM     15  C   LIG d   1      -2.359  74.366 117.784  0.00  0.00     0.109 C 
ATOM     16  O   LIG d   1      -3.600  75.119 115.863  0.00  0.00    -0.276 OA
ATOM     17  H   LIG d   1      -4.377  75.379 118.915  0.00  0.00     0.149 HD
ENDBRANCH   6  13
BRANCH   5  18
ATOM     18  N   LIG d   1      -4.632  78.007 116.223  0.00  0.00     0.381 N 
ATOM     19  H   LIG d   1      -5.075  78.591 115.542  0.00  0.00    -0.090 HD
ATOM     20  H   LIG d   1      -4.324  77.167 115.766  0.00  0.00    -0.090 HD
ATOM     21  H   LIG d   1      -3.853  78.483 116.622  0.00  0.00    -0.090 HD
ENDBRANCH   5  18
BRANCH   3  22
ATOM     22  C   LIG d   1      -9.046  78.751 117.928  0.00  0.00     0.382 C 
ATOM     23  O   LIG d   1     -10.190  78.313 118.199  0.00  0.00    -0.241 OA
ATOM     24  O   LIG d   1      -8.877  79.976 117.779  0.00  0.00    -0.241 OA
ENDBRANCH   3  22
TORSDOF 7
ENDMDL
MODEL 3
REMARK VINA RESULT:      -5.4      3.443      6.303
REMARK  7 active torsions:
REMARK  status: ('A' for Active; 'I' for Inactive)
REMARK    1  A    between atoms: C_2  and  C_3 
REMARK    2  A    between atoms: C_3  and  O_6 
REMARK    3  A    between atoms: C_3  and  C_4 
REMARK    4  A    between atoms: C_7  and  O_6 
REMARK    5  A    between atoms: C_9  and  C_10 
REMARK    6  A    between atoms: N_15  and  C_14 
REMARK    7  A    between atoms: N_20  and  C_19 
REMARK       I    between atoms: C_22  and  N_20 
ROOT
ATOM      1  C   LIG d   1      -7.158  77.358 117.499  0.00  0.00     0.161 C 
ATOM      2  C   LIG d   1      -8.411  77.886 117.853  0.00  0.00     0.016 C 
ATOM      3  C   LIG d   1      -8.683  79.272 117.909  0.00  0.00     0.038 C 
ATOM      4  C   LIG d   1      -7.758  80.228 117.465  0.00  0.00     0.028 C 
ATOM      5  C   LIG d   1      -6.309  79.767 117.578  0.00  0.00    -0.047 C 
ATOM      6  C   LIG d   1      -6.169  78.383 116.904  0.00  0.00     0.091 C 
ENDROOT
BRANCH   1   7
ATOM      7  O   LIG d   1      -7.333  76.248 116.596  0.00  0.00    -0.368 OA
BRANCH   7   8
ATOM      8  C   LIG d   1      -7.185  74.928 117.173  0.00  0.00     0.119 C 
BRANCH   8   9
ATOM      9  C   LIG d   1      -6.397  74.068 116.165  0.00  0.00     0.028 C 
ATOM     10  C   LIG d   1      -5.765  74.910 115.044  0.00  0.00     0.006 C 
ENDBRANCH   8   9
BRANCH   8  11
ATOM     11  C   LIG d   1      -8.540  74.232 117.327  0.00  0.00     0.028 C 
ATOM     12  C   LIG d   1      -8.486  72.737 116.976  0.00  0.00     0.006 C 
ENDBRANCH   8  11
ENDBRANCH   7   8
ENDBRANCH   1   7
BRANCH   6  13
ATOM     13  N   LIG d   1      -4.801  77.820 117.043  0.00  0.00    -0.311 N 
ATOM     14  C   LIG d   1      -3.858  77.946 116.111  0.00  0.00     0.210 C 
ATOM     15  C   LIG d   1      -2.523  77.273 116.446  0.00  0.00     0.109 C 
ATOM     16  O   LIG d   1      -3.990  78.578 115.052  0.00  0.00    -0.276 OA
ATOM     17  H   LIG d   1      -4.597  77.318 117.885  0.00  0.00     0.149 HD
ENDBRANCH   6  13
BRANCH   5  18
ATOM     18  N   LIG d   1      -5.462  80.801 116.955  0.00  0.00     0.381 N 
ATOM     19  H   LIG d   1      -6.028  81.573 116.664  0.00  0.00    -0.090 HD
ATOM     20  H   LIG d   1      -5.018  80.412 116.142  0.00  0.00    -0.090 HD
ATOM     21  H   LIG d   1      -4.771  81.112 117.602  0.00  0.00    -0.090 HD
ENDBRANCH   5  18
BRANCH   3  22
ATOM     22  C   LIG d   1      -9.880  79.716 118.451  0.00  0.00     0.382 C 
ATOM     23  O   LIG d   1     -10.621  78.916 119.072  0.00  0.00    -0.241 OA
ATOM     24  O   LIG d   1     -10.248  80.894 118.289  0.00  0.00    -0.241 OA
ENDBRANCH   3  22
TORSDOF 7
ENDMDL
MODEL 4
REMARK VINA RESULT:      -5.3      2.098      4.948
REMARK  7 active torsions:
REMARK  status: ('A' for Active; 'I' for Inactive)
REMARK    1  A    between atoms: C_2  and  C_3 
REMARK    2  A    between atoms: C_3  and  O_6 
REMARK    3  A    between atoms: C_3  and  C_4 
REMARK    4  A    between atoms: C_7  and  O_6 
REMARK    5  A    between atoms: C_9  and  C_10 
REMARK    6  A    between atoms: N_15  and  C_14 
REMARK    7  A    between atoms: N_20  and  C_19 
REMARK       I    between atoms: C_22  and  N_20 
ROOT
ATOM      1  C   LIG d   1      -4.327  76.133 116.969  0.00  0.00     0.161 C 
ATOM      2  C   LIG d   1      -5.178  75.112 117.424  0.00  0.00     0.016 C 
ATOM      3  C   LIG d   1      -6.085  74.424 116.585  0.00  0.00     0.038 C 
ATOM      4  C   LIG d   1      -6.095  74.609 115.194  0.00  0.00     0.028 C 
ATOM      5  C   LIG d   1      -5.607  75.988 114.763  0.00  0.00    -0.047 C 
ATOM      6  C   LIG d   1      -4.244  76.271 115.435  0.00  0.00     0.091 C 
ENDROOT
BRANCH   1   7
ATOM      7  O   LIG d   1      -3.010  75.955 117.528  0.00  0.00    -0.368 OA
BRANCH   7   8
ATOM      8  C   LIG d   1      -2.318  74.738 117.155  0.00  0.00     0.119 C 
BRANCH   8   9
ATOM      9  C   LIG d   1      -1.889  74.032 118.455  0.00  0.00     0.028 C 
ATOM     10  C   LIG d   1      -0.390  74.207 118.751  0.00  0.00     0.006 C 
ENDBRANCH   8   9
BRANCH   8  11
ATOM     11  C   LIG d   1      -1.015  75.044 116.410  0.00  0.00     0.028 C 
ATOM     12  C   LIG d   1      -0.932  74.347 115.043  0.00  0.00     0.006 C 
ENDBRANCH   8  11
ENDBRANCH   7   8
ENDBRANCH   1   7
BRANCH   6  13
ATOM     13  N   LIG d   1      -3.736  77.634 115.133  0.00  0.00    -0.311 N 
ATOM     14  C   LIG d   1      -2.904  77.901 114.127  0.00  0.00     0.210 C 
ATOM     15  C   LIG d   1      -2.487  79.370 114.005  0.00  0.00     0.109 C 
ATOM     16  O   LIG d   1      -2.497  77.065 113.306  0.00  0.00    -0.276 OA
ATOM     17  H   LIG d   1      -4.040  78.378 115.731  0.00  0.00     0.149 HD
ENDBRANCH   6  13
BRANCH   5  18
ATOM     18  N   LIG d   1      -5.539  75.996 113.290  0.00  0.00     0.381 N 
ATOM     19  H   LIG d   1      -5.596  76.936 112.953  0.00  0.00    -0.090 HD
ATOM     20  H   LIG d   1      -6.321  75.482 112.925  0.00  0.00    -0.090 HD
ATOM     21  H   LIG d   1      -4.687  75.578 112.986  0.00  0.00    -0.090 HD
ENDBRANCH   5  18
BRANCH   3  22
ATOM     22  C   LIG d   1      -7.023  73.569 117.142  0.00  0.00     0.382 C 
ATOM     23  O   LIG d   1      -7.420  72.568 116.498  0.00  0.00    -0.241 OA
ATOM     24  O   LIG d   1      -7.511  73.810 118.263  0.00  0.00    -0.241 OA
ENDBRANCH   3  22
TORSDOF 7
ENDMDL
MODEL 5
REMARK VINA RESULT:      -5.2      2.605      5.850
REMARK  7 active torsions:
REMARK  status: ('A' for Active; 'I' for Inactive)
REMARK    1  A    between atoms: C_2  and  C_3 
REMARK    2  A    between atoms: C_3  and  O_6 
REMARK    3  A    between atoms: C_3  and  C_4 
REMARK    4  A    between atoms: C_7  and  O_6 
REMARK    5  A    between atoms: C_9  and  C_10 
REMARK    6  A    between atoms: N_15  and  C_14 
REMARK    7  A    between atoms: N_20  and  C_19 
REMARK       I    between atoms: C_22  and  N_20 
ROOT
ATOM      1  C   LIG d   1      -5.178  75.544 116.381  0.00  0.00     0.161 C 
ATOM      2  C   LIG d   1      -4.909  76.922 116.427  0.00  0.00     0.016 C 
ATOM      3  C   LIG d   1      -5.895  77.898 116.699  0.00  0.00     0.038 C 
ATOM      4  C   LIG d   1      -7.195  77.549 117.095  0.00  0.00     0.028 C 
ATOM      5  C   LIG d   1      -7.643  76.189 116.572  0.00  0.00    -0.047 C 
ATOM      6  C   LIG d   1      -6.565  75.137 116.920  0.00  0.00     0.091 C 
ENDROOT
BRANCH   1   7
ATOM      7  O   LIG d   1      -4.140  74.821 117.072  0.00  0.00    -0.368 OA
BRANCH   7   8
ATOM      8  C   LIG d   1      -2.874  75.510 117.221  0.00  0.00     0.119 C 
BRANCH   8   9
ATOM      9  C   LIG d   1      -1.870  74.846 116.260  0.00  0.00     0.028 C 
ATOM     10  C   LIG d   1      -1.691  75.642 114.956  0.00  0.00     0.006 C 
ENDBRANCH   8   9
BRANCH   8  11
ATOM     11  C   LIG d   1      -2.290  75.305 118.623  0.00  0.00     0.028 C 
ATOM     12  C   LIG d   1      -1.827  73.861 118.870  0.00  0.00     0.006 C 
ENDBRANCH   8  11
ENDBRANCH   7   8
ENDBRANCH   1   7
BRANCH   6  13
ATOM     13  N   LIG d   1      -6.885  73.794 116.371  0.00  0.00    -0.311 N 
ATOM     14  C   LIG d   1      -7.515  72.848 117.066  0.00  0.00     0.210 C 
ATOM     15  C   LIG d   1      -7.728  71.529 116.317  0.00  0.00     0.109 C 
ATOM     16  O   LIG d   1      -7.946  72.988 118.220  0.00  0.00    -0.276 OA
ATOM     17  H   LIG d   1      -6.599  73.606 115.430  0.00  0.00     0.149 HD
ENDBRANCH   6  13
BRANCH   5  18
ATOM     18  N   LIG d   1      -8.957  75.891 117.172  0.00  0.00     0.381 N 
ATOM     19  H   LIG d   1      -9.215  76.624 117.803  0.00  0.00    -0.090 HD
ATOM     20  H   LIG d   1      -8.890  75.035 117.694  0.00  0.00    -0.090 HD
ATOM     21  H   LIG d   1      -9.646  75.800 116.458  0.00  0.00    -0.090 HD
ENDBRANCH   5  18
BRANCH   3  22
ATOM     22  C   LIG d   1      -5.595  79.242 116.536  0.00  0.00     0.382 C 
ATOM     23  O   LIG d   1      -4.458  79.586 116.130  0.00  0.00    -0.241 OA
ATOM     24  O   LIG d   1      -6.431  80.117 116.831  0.00  0.00    -0.241 OA
ENDBRANCH   3  22
TORSDOF 7
ENDMDL
MODEL 6
REMARK VINA RESULT:      -5.1      2.929      5.561
REMARK  7 active torsions:
REMARK  status: ('A' for Active; 'I' for Inactive)
REMARK    1  A    between atoms: C_2  and  C_3 
REMARK    2  A    between atoms: C_3  and  O_6 
REMARK    3  A    between atoms: C_3  and  C_4 
REMARK    4  A    between atoms: C_7  and  O_6 
REMARK    5  A    between atoms: C_9  and  C_10 
REMARK    6  A    between atoms: N_15  and  C_14 
REMARK    7  A    between atoms: N_20  and  C_19 
REMARK       I    between atoms: C_22  and  N_20 
ROOT
ATOM      1  C   LIG d   1      -5.374  76.253 117.718  0.00  0.00     0.161 C 
ATOM      2  C   LIG d   1      -5.803  74.939 117.471  0.00  0.00     0.016 C 
ATOM      3  C   LIG d   1      -7.163  74.575 117.343  0.00  0.00     0.038 C 
ATOM      4  C   LIG d   1      -8.186  75.534 117.304  0.00  0.00     0.028 C 
ATOM      5  C   LIG d   1      -7.843  76.817 118.054  0.00  0.00    -0.047 C 
ATOM      6  C   LIG d   1      -6.469  77.330 117.568  0.00  0.00     0.091 C 
ENDROOT
BRANCH   1   7
ATOM      7  O   LIG d   1      -4.245  76.565 116.878  0.00  0.00    -0.368 OA
BRANCH   7   8
ATOM      8  C   LIG d   1      -3.799  75.509 115.992  0.00  0.00     0.119 C 
BRANCH   8   9
ATOM      9  C   LIG d   1      -2.303  75.269 116.276  0.00  0.00     0.028 C 
ATOM     10  C   LIG d   1      -2.075  74.379 117.509  0.00  0.00     0.006 C 
ENDBRANCH   8   9
BRANCH   8  11
ATOM     11  C   LIG d   1      -3.869  75.945 114.526  0.00  0.00     0.028 C 
ATOM     12  C   LIG d   1      -5.222  75.622 113.872  0.00  0.00     0.006 C 
ENDBRANCH   8  11
ENDBRANCH   7   8
ENDBRANCH   1   7
BRANCH   6  13
ATOM     13  N   LIG d   1      -6.019  78.536 118.311  0.00  0.00    -0.311 N 
ATOM     14  C   LIG d   1      -6.279  79.781 117.915  0.00  0.00     0.210 C 
ATOM     15  C   LIG d   1      -5.705  80.879 118.817  0.00  0.00     0.109 C 
ATOM     16  O   LIG d   1      -6.957  80.079 116.921  0.00  0.00    -0.276 OA
ATOM     17  H   LIG d   1      -5.488  78.385 119.147  0.00  0.00     0.149 HD
ENDBRANCH   6  13
BRANCH   5  18
ATOM     18  N   LIG d   1      -8.936  77.778 117.816  0.00  0.00     0.381 N 
ATOM     19  H   LIG d   1      -9.806  77.384 118.116  0.00  0.00    -0.090 HD
ATOM     20  H   LIG d   1      -8.998  77.964 116.830  0.00  0.00    -0.090 HD
ATOM     21  H   LIG d   1      -8.759  78.625 118.310  0.00  0.00    -0.090 HD
ENDBRANCH   5  18
BRANCH   3  22
ATOM     22  C   LIG d   1      -7.515  73.235 117.292  0.00  0.00     0.382 C 
ATOM     23  O   LIG d   1      -7.531  72.632 116.192  0.00  0.00    -0.241 OA
ATOM     24  O   LIG d   1      -7.859  72.633 118.327  0.00  0.00    -0.241 OA
ENDBRANCH   3  22
TORSDOF 7
ENDMDL
MODEL 7
REMARK VINA RESULT:      -5.1      3.947      6.037
REMARK  7 active torsions:
REMARK  status: ('A' for Active; 'I' for Inactive)
REMARK    1  A    between atoms: C_2  and  C_3 
REMARK    2  A    between atoms: C_3  and  O_6 
REMARK    3  A    between atoms: C_3  and  C_4 
REMARK    4  A    between atoms: C_7  and  O_6 
REMARK    5  A    between atoms: C_9  and  C_10 
REMARK    6  A    between atoms: N_15  and  C_14 
REMARK    7  A    between atoms: N_20  and  C_19 
REMARK       I    between atoms: C_22  and  N_20 
ROOT
ATOM      1  C   LIG d   1      -7.814  76.897 117.404  0.00  0.00     0.161 C 
ATOM      2  C   LIG d   1      -8.876  75.981 117.335  0.00  0.00     0.016 C 
ATOM      3  C   LIG d   1      -8.693  74.581 117.268  0.00  0.00     0.038 C 
ATOM      4  C   LIG d   1      -7.429  73.990 117.418  0.00  0.00     0.028 C 
ATOM      5  C   LIG d   1      -6.282  74.896 116.983  0.00  0.00    -0.047 C 
ATOM      6  C   LIG d   1      -6.433  76.267 117.681  0.00  0.00     0.091 C 
ENDROOT
BRANCH   1   7
ATOM      7  O   LIG d   1      -8.107  77.912 118.384  0.00  0.00    -0.368 OA
BRANCH   7   8
ATOM      8  C   LIG d   1      -8.412  79.230 117.866  0.00  0.00     0.119 C 
BRANCH   8   9
ATOM      9  C   LIG d   1      -7.376  80.210 118.451  0.00  0.00     0.028 C 
ATOM     10  C   LIG d   1      -6.557  80.919 117.360  0.00  0.00     0.006 C 
ENDBRANCH   8   9
BRANCH   8  11
ATOM     11  C   LIG d   1      -9.770  79.727 118.370  0.00  0.00     0.028 C 
ATOM     12  C   LIG d   1     -10.149  81.104 117.803  0.00  0.00     0.006 C 
ENDBRANCH   8  11
ENDBRANCH   7   8
ENDBRANCH   1   7
BRANCH   6  13
ATOM     13  N   LIG d   1      -5.398  77.241 117.246  0.00  0.00    -0.311 N 
ATOM     14  C   LIG d   1      -5.256  77.645 115.985  0.00  0.00     0.210 C 
ATOM     15  C   LIG d   1      -4.114  78.639 115.749  0.00  0.00     0.109 C 
ATOM     16  O   LIG d   1      -5.988  77.301 115.045  0.00  0.00    -0.276 OA
ATOM     17  H   LIG d   1      -4.781  77.596 117.950  0.00  0.00     0.149 HD
ENDBRANCH   6  13
BRANCH   5  18
ATOM     18  N   LIG d   1      -5.021  74.210 117.322  0.00  0.00     0.381 N 
ATOM     19  H   LIG d   1      -4.675  74.550 118.197  0.00  0.00    -0.090 HD
ATOM     20  H   LIG d   1      -4.339  74.416 116.613  0.00  0.00    -0.090 HD
ATOM     21  H   LIG d   1      -5.170  73.227 117.374  0.00  0.00    -0.090 HD
ENDBRANCH   5  18
BRANCH   3  22
ATOM     22  C   LIG d   1      -9.778  73.757 117.009  0.00  0.00     0.382 C 
ATOM     23  O   LIG d   1      -9.612  72.519 116.894  0.00  0.00    -0.241 OA
ATOM     24  O   LIG d   1     -10.914  74.242 116.843  0.00  0.00    -0.241 OA
ENDBRANCH   3  22
TORSDOF 7
ENDMDL
MODEL 8
REMARK VINA RESULT:      -5.0     15.048     16.792
REMARK  7 active torsions:
REMARK  status: ('A' for Active; 'I' for Inactive)
REMARK    1  A    between atoms: C_2  and  C_3 
REMARK    2  A    between atoms: C_3  and  O_6 
REMARK    3  A    between atoms: C_3  and  C_4 
REMARK    4  A    between atoms: C_7  and  O_6 
REMARK    5  A    between atoms: C_9  and  C_10 
REMARK    6  A    between atoms: N_15  and  C_14 
REMARK    7  A    between atoms: N_20  and  C_19 
REMARK       I    between atoms: C_22  and  N_20 
ROOT
ATOM      1  C   LIG d   1       3.674  89.346 116.129  0.00  0.00     0.161 C 
ATOM      2  C   LIG d   1       4.205  90.496 116.737  0.00  0.00     0.016 C 
ATOM      3  C   LIG d   1       3.409  91.488 117.355  0.00  0.00     0.038 C 
ATOM      4  C   LIG d   1       2.028  91.322 117.539  0.00  0.00     0.028 C 
ATOM      5  C   LIG d   1       1.383  90.415 116.497  0.00  0.00    -0.047 C 
ATOM      6  C   LIG d   1       2.180  89.093 116.418  0.00  0.00     0.091 C 
ENDROOT
BRANCH   1   7
ATOM      7  O   LIG d   1       4.458  88.193 116.496  0.00  0.00    -0.368 OA
BRANCH   7   8
ATOM      8  C   LIG d   1       5.546  87.852 115.603  0.00  0.00     0.119 C 
BRANCH   8   9
ATOM      9  C   LIG d   1       5.029  88.014 114.160  0.00  0.00     0.028 C 
ATOM     10  C   LIG d   1       6.079  88.639 113.226  0.00  0.00     0.006 C 
ENDBRANCH   8   9
BRANCH   8  11
ATOM     11  C   LIG d   1       5.932  86.376 115.732  0.00  0.00     0.028 C 
ATOM     12  C   LIG d   1       4.883  85.430 115.126  0.00  0.00     0.006 C 
ENDBRANCH   8  11
ENDBRANCH   7   8
ENDBRANCH   1   7
BRANCH   6  13
ATOM     13  N   LIG d   1       1.665  88.183 115.362  0.00  0.00    -0.311 N 
ATOM     14  C   LIG d   1       1.495  86.874 115.542  0.00  0.00     0.210 C 
ATOM     15  C   LIG d   1       0.973  86.116 114.317  0.00  0.00     0.109 C 
ATOM     16  O   LIG d   1       1.696  86.274 116.609  0.00  0.00    -0.276 OA
ATOM     17  H   LIG d   1       1.447  88.591 114.475  0.00  0.00     0.149 HD
ENDBRANCH   6  13
BRANCH   5  18
ATOM     18  N   LIG d   1      -0.026  90.219 116.888  0.00  0.00     0.381 N 
ATOM     19  H   LIG d   1      -0.080  90.005 117.864  0.00  0.00    -0.090 HD
ATOM     20  H   LIG d   1      -0.401  89.441 116.374  0.00  0.00    -0.090 HD
ATOM     21  H   LIG d   1      -0.553  91.041 116.691  0.00  0.00    -0.090 HD
ENDBRANCH   5  18
BRANCH   3  22
ATOM     22  C   LIG d   1       3.989  92.681 117.760  0.00  0.00     0.382 C 
ATOM     23  O   LIG d   1       4.007  93.665 116.981  0.00  0.00    -0.241 OA
ATOM     24  O   LIG d   1       4.532  92.772 118.876  0.00  0.00    -0.241 OA
ENDBRANCH   3  22
TORSDOF 7
ENDMDL
MODEL 9
REMARK VINA RESULT:      -5.0      4.156      6.595
REMARK  7 active torsions:
REMARK  status: ('A' for Active; 'I' for Inactive)
REMARK    1  A    between atoms: C_2  and  C_3 
REMARK    2  A    between atoms: C_3  and  O_6 
REMARK    3  A    between atoms: C_3  and  C_4 
REMARK    4  A    between atoms: C_7  and  O_6 
REMARK    5  A    between atoms: C_9  and  C_10 
REMARK    6  A    between atoms: N_15  and  C_14 
REMARK    7  A    between atoms: N_20  and  C_19 
REMARK       I    between atoms: C_22  and  N_20 
ROOT
ATOM      1  C   LIG d   1      -4.831  78.531 116.242  0.00  0.00     0.161 C 
ATOM      2  C   LIG d   1      -4.735  77.317 115.541  0.00  0.00     0.016 C 
ATOM      3  C   LIG d   1      -5.783  76.369 115.479  0.00  0.00     0.038 C 
ATOM      4  C   LIG d   1      -7.059  76.641 115.993  0.00  0.00     0.028 C 
ATOM      5  C   LIG d   1      -7.049  77.640 117.145  0.00  0.00    -0.047 C 
ATOM      6  C   LIG d   1      -6.254  78.894 116.715  0.00  0.00     0.091 C 
ENDROOT
BRANCH   1   7
ATOM      7  O   LIG d   1      -4.280  79.599 115.446  0.00  0.00    -0.368 OA
BRANCH   7   8
ATOM      8  C   LIG d   1      -2.980  80.092 115.854  0.00  0.00     0.119 C 
BRANCH   8   9
ATOM      9  C   LIG d   1      -3.179  81.516 116.410  0.00  0.00     0.028 C 
ATOM     10  C   LIG d   1      -2.771  81.631 117.889  0.00  0.00     0.006 C 
ENDBRANCH   8   9
BRANCH   8  11
ATOM     11  C   LIG d   1      -2.043  80.253 114.654  0.00  0.00     0.028 C 
ATOM     12  C   LIG d   1      -2.634  79.680 113.356  0.00  0.00     0.006 C 
ENDBRANCH   8  11
ENDBRANCH   7   8
ENDBRANCH   1   7
BRANCH   6  13
ATOM     13  N   LIG d   1      -6.123  79.887 117.813  0.00  0.00    -0.311 N 
ATOM     14  C   LIG d   1      -6.627  81.118 117.752  0.00  0.00     0.210 C 
ATOM     15  C   LIG d   1      -6.362  81.987 118.985  0.00  0.00     0.109 C 
ATOM     16  O   LIG d   1      -7.297  81.562 116.807  0.00  0.00    -0.276 OA
ATOM     17  H   LIG d   1      -5.621  79.599 118.630  0.00  0.00     0.149 HD
ENDBRANCH   6  13
BRANCH   5  18
ATOM     18  N   LIG d   1      -8.452  77.935 117.492  0.00  0.00     0.381 N 
ATOM     19  H   LIG d   1      -8.829  77.190 118.042  0.00  0.00    -0.090 HD
ATOM     20  H   LIG d   1      -8.988  78.005 116.645  0.00  0.00    -0.090 HD
ATOM     21  H   LIG d   1      -8.505  78.792 117.999  0.00  0.00    -0.090 HD
ENDBRANCH   5  18
BRANCH   3  22
ATOM     22  C   LIG d   1      -5.545  75.117 114.933  0.00  0.00     0.382 C 
ATOM     23  O   LIG d   1      -4.775  74.998 113.950  0.00  0.00    -0.241 OA
ATOM     24  O   LIG d   1      -6.126  74.111 115.383  0.00  0.00    -0.241 OA
ENDBRANCH   3  22
TORSDOF 7
ENDMDL
