MODEL 1
REMARK VINA RESULT:      -5.3      0.000      0.000
REMARK  7 active torsions:
REMARK  status: ('A' for Active; 'I' for Inactive)
REMARK    1  A    between atoms: C_2  and  C_3 
REMARK    2  A    between atoms: C_3  and  O_6 
REMARK    3  A    between atoms: C_3  and  C_4 
REMARK    4  A    between atoms: C_7  and  O_6 
REMARK    5  A    between atoms: C_9  and  C_10 
REMARK    6  A    between atoms: N_15  and  C_14 
REMARK    7  A    between atoms: N_20  and  C_19 
REMARK       I    between atoms: C_22  and  N_20 
ROOT
ATOM      1  C   LIG d   1      -6.261  78.714 117.706  0.00  0.00     0.161 C 
ATOM      2  C   LIG d   1      -7.634  78.777 117.994  0.00  0.00     0.016 C 
ATOM      3  C   LIG d   1      -8.290  79.962 118.400  0.00  0.00     0.038 C 
ATOM      4  C   LIG d   1      -7.642  81.206 118.400  0.00  0.00     0.028 C 
ATOM      5  C   LIG d   1      -6.134  81.103 118.603  0.00  0.00    -0.047 C 
ATOM      6  C   LIG d   1      -5.559  80.084 117.593  0.00  0.00     0.091 C 
ENDROOT
BRANCH   1   7
ATOM      7  O   LIG d   1      -6.047  77.942 116.508  0.00  0.00    -0.368 OA
BRANCH   7   8
ATOM      8  C   LIG d   1      -5.669  76.557 116.701  0.00  0.00     0.119 C 
BRANCH   8   9
ATOM      9  C   LIG d   1      -4.497  76.259 115.745  0.00  0.00     0.028 C 
ATOM     10  C   LIG d   1      -4.871  75.235 114.660  0.00  0.00     0.006 C 
ENDBRANCH   8   9
BRANCH   8  11
ATOM     11  C   LIG d   1      -6.792  75.607 116.274  0.00  0.00     0.028 C 
ATOM     12  C   LIG d   1      -7.558  75.016 117.468  0.00  0.00     0.006 C 
ENDBRANCH   8  11
ENDBRANCH   7   8
ENDBRANCH   1   7
BRANCH   6  13
ATOM     13  N   LIG d   1      -4.102  79.860 117.780  0.00  0.00    -0.311 N 
ATOM     14  C   LIG d   1      -3.208  79.996 116.802  0.00  0.00     0.210 C 
ATOM     15  C   LIG d   1      -1.760  79.698 117.204  0.00  0.00     0.109 C 
ATOM     16  O   LIG d   1      -3.473  80.366 115.648  0.00  0.00    -0.276 OA
ATOM     17  H   LIG d   1      -3.796  79.588 118.693  0.00  0.00     0.149 HD
ENDBRANCH   6  13
BRANCH   5  18
ATOM     18  N   LIG d   1      -5.569  82.456 118.444  0.00  0.00     0.381 N 
ATOM     19  H   LIG d   1      -5.860  83.037 119.205  0.00  0.00    -0.090 HD
ATOM     20  H   LIG d   1      -5.919  82.856 117.591  0.00  0.00    -0.090 HD
ATOM     21  H   LIG d   1      -4.574  82.409 118.414  0.00  0.00    -0.090 HD
ENDBRANCH   5  18
BRANCH   3  22
ATOM     22  C   LIG d   1      -9.600  79.903 118.850  0.00  0.00     0.382 C 
ATOM     23  O   LIG d   1     -10.318  78.915 118.562  0.00  0.00    -0.241 OA
ATOM     24  O   LIG d   1     -10.087  80.845 119.504  0.00  0.00    -0.241 OA
ENDBRANCH   3  22
TORSDOF 7
ENDMDL
MODEL 2
REMARK VINA RESULT:      -5.2      2.385      5.376
REMARK  7 active torsions:
REMARK  status: ('A' for Active; 'I' for Inactive)
REMARK    1  A    between atoms: C_2  and  C_3 
REMARK    2  A    between atoms: C_3  and  O_6 
REMARK    3  A    between atoms: C_3  and  C_4 
REMARK    4  A    between atoms: C_7  and  O_6 
REMARK    5  A    between atoms: C_9  and  C_10 
REMARK    6  A    between atoms: N_15  and  C_14 
REMARK    7  A    between atoms: N_20  and  C_19 
REMARK       I    between atoms: C_22  and  N_20 
ROOT
ATOM      1  C   LIG d   1      -7.166  76.251 117.010  0.00  0.00     0.161 C 
ATOM      2  C   LIG d   1      -6.500  75.814 115.853  0.00  0.00     0.016 C 
ATOM      3  C   LIG d   1      -5.242  76.314 115.443  0.00  0.00     0.038 C 
ATOM      4  C   LIG d   1      -4.491  77.183 116.248  0.00  0.00     0.028 C 
ATOM      5  C   LIG d   1      -5.346  78.037 117.179  0.00  0.00    -0.047 C 
ATOM      6  C   LIG d   1      -6.311  77.117 117.960  0.00  0.00     0.091 C 
ENDROOT
BRANCH   1   7
ATOM      7  O   LIG d   1      -7.711  75.120 117.717  0.00  0.00    -0.368 OA
BRANCH   7   8
ATOM      8  C   LIG d   1      -8.061  73.970 116.907  0.00  0.00     0.119 C 
BRANCH   8   9
ATOM      9  C   LIG d   1      -9.552  73.669 117.151  0.00  0.00     0.028 C 
ATOM     10  C   LIG d   1      -9.828  72.166 117.319  0.00  0.00     0.006 C 
ENDBRANCH   8   9
BRANCH   8  11
ATOM     11  C   LIG d   1      -7.313  72.715 117.368  0.00  0.00     0.028 C 
ATOM     12  C   LIG d   1      -6.366  72.158 116.294  0.00  0.00     0.006 C 
ENDBRANCH   8  11
ENDBRANCH   7   8
ENDBRANCH   1   7
BRANCH   6  13
ATOM     13  N   LIG d   1      -7.242  77.880 118.831  0.00  0.00    -0.311 N 
ATOM     14  C   LIG d   1      -7.742  79.071 118.505  0.00  0.00     0.210 C 
ATOM     15  C   LIG d   1      -8.667  79.694 119.555  0.00  0.00     0.109 C 
ATOM     16  O   LIG d   1      -7.534  79.655 117.431  0.00  0.00    -0.276 OA
ATOM     17  H   LIG d   1      -7.489  77.466 119.709  0.00  0.00     0.149 HD
ENDBRANCH   6  13
BRANCH   5  18
ATOM     18  N   LIG d   1      -4.431  78.793 118.055  0.00  0.00     0.381 N 
ATOM     19  H   LIG d   1      -4.851  79.665 118.311  0.00  0.00    -0.090 HD
ATOM     20  H   LIG d   1      -3.584  78.986 117.551  0.00  0.00    -0.090 HD
ATOM     21  H   LIG d   1      -4.227  78.262 118.873  0.00  0.00    -0.090 HD
ENDBRANCH   5  18
BRANCH   3  22
ATOM     22  C   LIG d   1      -4.742  75.976 114.194  0.00  0.00     0.382 C 
ATOM     23  O   LIG d   1      -4.797  76.803 113.252  0.00  0.00    -0.241 OA
ATOM     24  O   LIG d   1      -4.277  74.839 113.987  0.00  0.00    -0.241 OA
ENDBRANCH   3  22
TORSDOF 7
ENDMDL
MODEL 3
REMARK VINA RESULT:      -5.1      4.721      6.961
REMARK  7 active torsions:
REMARK  status: ('A' for Active; 'I' for Inactive)
REMARK    1  A    between atoms: C_2  and  C_3 
REMARK    2  A    between atoms: C_3  and  O_6 
REMARK    3  A    between atoms: C_3  and  C_4 
REMARK    4  A    between atoms: C_7  and  O_6 
REMARK    5  A    between atoms: C_9  and  C_10 
REMARK    6  A    between atoms: N_15  and  C_14 
REMARK    7  A    between atoms: N_20  and  C_19 
REMARK       I    between atoms: C_22  and  N_20 
ROOT
ATOM      1  C   LIG d   1      -1.065  77.197 115.254  0.00  0.00     0.161 C 
ATOM      2  C   LIG d   1      -2.324  76.925 114.693  0.00  0.00     0.016 C 
ATOM      3  C   LIG d   1      -3.111  75.808 115.054  0.00  0.00     0.038 C 
ATOM      4  C   LIG d   1      -2.757  74.963 116.117  0.00  0.00     0.028 C 
ATOM      5  C   LIG d   1      -1.255  74.907 116.372  0.00  0.00    -0.047 C 
ATOM      6  C   LIG d   1      -0.712  76.349 116.494  0.00  0.00     0.091 C 
ENDROOT
BRANCH   1   7
ATOM      7  O   LIG d   1      -0.959  78.601 115.561  0.00  0.00    -0.368 OA
BRANCH   7   8
ATOM      8  C   LIG d   1      -2.027  79.444 115.062  0.00  0.00     0.119 C 
BRANCH   8   9
ATOM      9  C   LIG d   1      -1.400  80.456 114.084  0.00  0.00     0.028 C 
ATOM     10  C   LIG d   1      -2.451  81.145 113.198  0.00  0.00     0.006 C 
ENDBRANCH   8   9
BRANCH   8  11
ATOM     11  C   LIG d   1      -2.639  80.290 116.183  0.00  0.00     0.028 C 
ATOM     12  C   LIG d   1      -3.820  79.593 116.878  0.00  0.00     0.006 C 
ENDBRANCH   8  11
ENDBRANCH   7   8
ENDBRANCH   1   7
BRANCH   6  13
ATOM     13  N   LIG d   1       0.764  76.387 116.660  0.00  0.00    -0.311 N 
ATOM     14  C   LIG d   1       1.367  76.467 117.845  0.00  0.00     0.210 C 
ATOM     15  C   LIG d   1       2.897  76.513 117.790  0.00  0.00     0.109 C 
ATOM     16  O   LIG d   1       0.781  76.471 118.938  0.00  0.00    -0.276 OA
ATOM     17  H   LIG d   1       1.318  76.356 115.826  0.00  0.00     0.149 HD
ENDBRANCH   6  13
BRANCH   5  18
ATOM     18  N   LIG d   1      -1.039  74.102 117.589  0.00  0.00     0.381 N 
ATOM     19  H   LIG d   1      -1.888  73.640 117.845  0.00  0.00    -0.090 HD
ATOM     20  H   LIG d   1      -0.775  74.715 118.341  0.00  0.00    -0.090 HD
ATOM     21  H   LIG d   1      -0.321  73.430 117.431  0.00  0.00    -0.090 HD
ENDBRANCH   5  18
BRANCH   3  22
ATOM     22  C   LIG d   1      -4.248  75.503 114.321  0.00  0.00     0.382 C 
ATOM     23  O   LIG d   1      -4.413  76.003 113.183  0.00  0.00    -0.241 OA
ATOM     24  O   LIG d   1      -5.132  74.769 114.803  0.00  0.00    -0.241 OA
ENDBRANCH   3  22
TORSDOF 7
ENDMDL
MODEL 4
REMARK VINA RESULT:      -5.0      2.231      3.851
REMARK  7 active torsions:
REMARK  status: ('A' for Active; 'I' for Inactive)
REMARK    1  A    between atoms: C_2  and  C_3 
REMARK    2  A    between atoms: C_3  and  O_6 
REMARK    3  A    between atoms: C_3  and  C_4 
REMARK    4  A    between atoms: C_7  and  O_6 
REMARK    5  A    between atoms: C_9  and  C_10 
REMARK    6  A    between atoms: N_15  and  C_14 
REMARK    7  A    between atoms: N_20  and  C_19 
REMARK       I    between atoms: C_22  and  N_20 
ROOT
ATOM      1  C   LIG d   1      -5.765  77.552 117.099  0.00  0.00     0.161 C 
ATOM      2  C   LIG d   1      -6.522  76.389 116.877  0.00  0.00     0.016 C 
ATOM      3  C   LIG d   1      -7.877  76.259 117.257  0.00  0.00     0.038 C 
ATOM      4  C   LIG d   1      -8.616  77.344 117.752  0.00  0.00     0.028 C 
ATOM      5  C   LIG d   1      -7.760  78.388 118.460  0.00  0.00    -0.047 C 
ATOM      6  C   LIG d   1      -6.585  78.784 117.536  0.00  0.00     0.091 C 
ENDROOT
BRANCH   1   7
ATOM      7  O   LIG d   1      -4.987  77.860 115.925  0.00  0.00    -0.368 OA
BRANCH   7   8
ATOM      8  C   LIG d   1      -3.749  77.123 115.771  0.00  0.00     0.119 C 
BRANCH   8   9
ATOM      9  C   LIG d   1      -2.594  78.080 116.124  0.00  0.00     0.028 C 
ATOM     10  C   LIG d   1      -2.917  79.544 115.779  0.00  0.00     0.006 C 
ENDBRANCH   8   9
BRANCH   8  11
ATOM     11  C   LIG d   1      -3.514  76.728 114.310  0.00  0.00     0.028 C 
ATOM     12  C   LIG d   1      -4.816  76.376 113.571  0.00  0.00     0.006 C 
ENDBRANCH   8  11
ENDBRANCH   7   8
ENDBRANCH   1   7
BRANCH   6  13
ATOM     13  N   LIG d   1      -5.650  79.739 118.186  0.00  0.00    -0.311 N 
ATOM     14  C   LIG d   1      -5.812  81.061 118.152  0.00  0.00     0.210 C 
ATOM     15  C   LIG d   1      -4.722  81.864 118.869  0.00  0.00     0.109 C 
ATOM     16  O   LIG d   1      -6.772  81.643 117.625  0.00  0.00    -0.276 OA
ATOM     17  H   LIG d   1      -4.860  79.351 118.663  0.00  0.00     0.149 HD
ENDBRANCH   6  13
BRANCH   5  18
ATOM     18  N   LIG d   1      -8.635  79.525 118.803  0.00  0.00     0.381 N 
ATOM     19  H   LIG d   1      -8.992  79.410 119.730  0.00  0.00    -0.090 HD
ATOM     20  H   LIG d   1      -9.411  79.541 118.165  0.00  0.00    -0.090 HD
ATOM     21  H   LIG d   1      -8.125  80.378 118.739  0.00  0.00    -0.090 HD
ENDBRANCH   5  18
BRANCH   3  22
ATOM     22  C   LIG d   1      -8.496  75.020 117.180  0.00  0.00     0.382 C 
ATOM     23  O   LIG d   1      -7.814  73.972 117.276  0.00  0.00    -0.241 OA
ATOM     24  O   LIG d   1      -9.722  74.938 116.972  0.00  0.00    -0.241 OA
ENDBRANCH   3  22
TORSDOF 7
ENDMDL
MODEL 5
REMARK VINA RESULT:      -5.0      2.211      3.256
REMARK  7 active torsions:
REMARK  status: ('A' for Active; 'I' for Inactive)
REMARK    1  A    between atoms: C_2  and  C_3 
REMARK    2  A    between atoms: C_3  and  O_6 
REMARK    3  A    between atoms: C_3  and  C_4 
REMARK    4  A    between atoms: C_7  and  O_6 
REMARK    5  A    between atoms: C_9  and  C_10 
REMARK    6  A    between atoms: N_15  and  C_14 
REMARK    7  A    between atoms: N_20  and  C_19 
REMARK       I    between atoms: C_22  and  N_20 
ROOT
ATOM      1  C   LIG d   1      -5.671  77.589 116.872  0.00  0.00     0.161 C 
ATOM      2  C   LIG d   1      -6.666  76.612 116.701  0.00  0.00     0.016 C 
ATOM      3  C   LIG d   1      -7.946  76.691 117.295  0.00  0.00     0.038 C 
ATOM      4  C   LIG d   1      -8.373  77.836 117.984  0.00  0.00     0.028 C 
ATOM      5  C   LIG d   1      -7.230  78.630 118.609  0.00  0.00    -0.047 C 
ATOM      6  C   LIG d   1      -6.157  78.898 117.529  0.00  0.00     0.091 C 
ENDROOT
BRANCH   1   7
ATOM      7  O   LIG d   1      -5.037  77.868 115.609  0.00  0.00    -0.368 OA
BRANCH   7   8
ATOM      8  C   LIG d   1      -3.686  77.369 115.449  0.00  0.00     0.119 C 
BRANCH   8   9
ATOM      9  C   LIG d   1      -3.722  76.274 114.366  0.00  0.00     0.028 C 
ATOM     10  C   LIG d   1      -4.927  76.421 113.422  0.00  0.00     0.006 C 
ENDBRANCH   8   9
BRANCH   8  11
ATOM     11  C   LIG d   1      -3.198  76.666 116.720  0.00  0.00     0.028 C 
ATOM     12  C   LIG d   1      -2.616  75.271 116.443  0.00  0.00     0.006 C 
ENDBRANCH   8  11
ENDBRANCH   7   8
ENDBRANCH   1   7
BRANCH   6  13
ATOM     13  N   LIG d   1      -4.965  79.596 118.076  0.00  0.00    -0.311 N 
ATOM     14  C   LIG d   1      -4.829  80.921 118.081  0.00  0.00     0.210 C 
ATOM     15  C   LIG d   1      -3.513  81.434 118.674  0.00  0.00     0.109 C 
ATOM     16  O   LIG d   1      -5.687  81.721 117.679  0.00  0.00    -0.276 OA
ATOM     17  H   LIG d   1      -4.233  79.024 118.451  0.00  0.00     0.149 HD
ENDBRANCH   6  13
BRANCH   5  18
ATOM     18  N   LIG d   1      -7.803  79.866 119.175  0.00  0.00     0.381 N 
ATOM     19  H   LIG d   1      -7.858  79.789 120.171  0.00  0.00    -0.090 HD
ATOM     20  H   LIG d   1      -8.734  79.987 118.816  0.00  0.00    -0.090 HD
ATOM     21  H   LIG d   1      -7.239  80.648 118.925  0.00  0.00    -0.090 HD
ENDBRANCH   5  18
BRANCH   3  22
ATOM     22  C   LIG d   1      -8.800  75.601 117.238  0.00  0.00     0.382 C 
ATOM     23  O   LIG d   1      -8.330  74.440 117.156  0.00  0.00    -0.241 OA
ATOM     24  O   LIG d   1     -10.035  75.765 117.221  0.00  0.00    -0.241 OA
ENDBRANCH   3  22
TORSDOF 7
ENDMDL
MODEL 6
REMARK VINA RESULT:      -4.8      2.711      3.906
REMARK  7 active torsions:
REMARK  status: ('A' for Active; 'I' for Inactive)
REMARK    1  A    between atoms: C_2  and  C_3 
REMARK    2  A    between atoms: C_3  and  O_6 
REMARK    3  A    between atoms: C_3  and  C_4 
REMARK    4  A    between atoms: C_7  and  O_6 
REMARK    5  A    between atoms: C_9  and  C_10 
REMARK    6  A    between atoms: N_15  and  C_14 
REMARK    7  A    between atoms: N_20  and  C_19 
REMARK       I    between atoms: C_22  and  N_20 
ROOT
ATOM      1  C   LIG d   1      -5.549  75.731 116.584  0.00  0.00     0.161 C 
ATOM      2  C   LIG d   1      -6.781  75.064 116.491  0.00  0.00     0.016 C 
ATOM      3  C   LIG d   1      -8.006  75.630 116.913  0.00  0.00     0.038 C 
ATOM      4  C   LIG d   1      -8.103  76.969 117.320  0.00  0.00     0.028 C 
ATOM      5  C   LIG d   1      -6.808  77.519 117.906  0.00  0.00    -0.047 C 
ATOM      6  C   LIG d   1      -5.651  77.234 116.922  0.00  0.00     0.091 C 
ENDROOT
BRANCH   1   7
ATOM      7  O   LIG d   1      -4.797  75.541 115.369  0.00  0.00    -0.368 OA
BRANCH   7   8
ATOM      8  C   LIG d   1      -4.768  76.665 114.455  0.00  0.00     0.119 C 
BRANCH   8   9
ATOM      9  C   LIG d   1      -5.542  76.252 113.188  0.00  0.00     0.028 C 
ATOM     10  C   LIG d   1      -6.895  76.973 113.065  0.00  0.00     0.006 C 
ENDBRANCH   8   9
BRANCH   8  11
ATOM     11  C   LIG d   1      -3.342  76.961 113.981  0.00  0.00     0.028 C 
ATOM     12  C   LIG d   1      -2.271  76.306 114.868  0.00  0.00     0.006 C 
ENDBRANCH   8  11
ENDBRANCH   7   8
ENDBRANCH   1   7
BRANCH   6  13
ATOM     13  N   LIG d   1      -4.332  77.665 117.456  0.00  0.00    -0.311 N 
ATOM     14  C   LIG d   1      -3.796  78.859 117.209  0.00  0.00     0.210 C 
ATOM     15  C   LIG d   1      -2.420  79.093 117.840  0.00  0.00     0.109 C 
ATOM     16  O   LIG d   1      -4.344  79.758 116.554  0.00  0.00    -0.276 OA
ATOM     17  H   LIG d   1      -3.833  77.008 118.024  0.00  0.00     0.149 HD
ENDBRANCH   6  13
BRANCH   5  18
ATOM     18  N   LIG d   1      -7.009  78.958 118.160  0.00  0.00     0.381 N 
ATOM     19  H   LIG d   1      -6.969  79.463 117.297  0.00  0.00    -0.090 HD
ATOM     20  H   LIG d   1      -6.270  79.290 118.754  0.00  0.00    -0.090 HD
ATOM     21  H   LIG d   1      -7.890  79.107 118.600  0.00  0.00    -0.090 HD
ENDBRANCH   5  18
BRANCH   3  22
ATOM     22  C   LIG d   1      -9.145  74.840 116.969  0.00  0.00     0.382 C 
ATOM     23  O   LIG d   1     -10.274  75.355 116.785  0.00  0.00    -0.241 OA
ATOM     24  O   LIG d   1      -9.061  73.628 117.244  0.00  0.00    -0.241 OA
ENDBRANCH   3  22
TORSDOF 7
ENDMDL
MODEL 7
REMARK VINA RESULT:      -4.7      2.279      5.487
REMARK  7 active torsions:
REMARK  status: ('A' for Active; 'I' for Inactive)
REMARK    1  A    between atoms: C_2  and  C_3 
REMARK    2  A    between atoms: C_3  and  O_6 
REMARK    3  A    between atoms: C_3  and  C_4 
REMARK    4  A    between atoms: C_7  and  O_6 
REMARK    5  A    between atoms: C_9  and  C_10 
REMARK    6  A    between atoms: N_15  and  C_14 
REMARK    7  A    between atoms: N_20  and  C_19 
REMARK       I    between atoms: C_22  and  N_20 
ROOT
ATOM      1  C   LIG d   1      -4.988  76.984 116.253  0.00  0.00     0.161 C 
ATOM      2  C   LIG d   1      -3.795  76.545 115.656  0.00  0.00     0.016 C 
ATOM      3  C   LIG d   1      -2.607  77.310 115.637  0.00  0.00     0.038 C 
ATOM      4  C   LIG d   1      -2.487  78.512 116.351  0.00  0.00     0.028 C 
ATOM      5  C   LIG d   1      -3.816  79.235 116.546  0.00  0.00    -0.047 C 
ATOM      6  C   LIG d   1      -4.846  78.243 117.133  0.00  0.00     0.091 C 
ENDROOT
BRANCH   1   7
ATOM      7  O   LIG d   1      -5.581  75.909 117.009  0.00  0.00    -0.368 OA
BRANCH   7   8
ATOM      8  C   LIG d   1      -6.518  75.067 116.293  0.00  0.00     0.119 C 
BRANCH   8   9
ATOM      9  C   LIG d   1      -7.770  74.912 117.179  0.00  0.00     0.028 C 
ATOM     10  C   LIG d   1      -8.674  76.155 117.141  0.00  0.00     0.006 C 
ENDBRANCH   8   9
BRANCH   8  11
ATOM     11  C   LIG d   1      -5.969  73.649 116.114  0.00  0.00     0.028 C 
ATOM     12  C   LIG d   1      -6.809  72.588 116.843  0.00  0.00     0.006 C 
ENDBRANCH   8  11
ENDBRANCH   7   8
ENDBRANCH   1   7
BRANCH   6  13
ATOM     13  N   LIG d   1      -6.196  78.847 117.276  0.00  0.00    -0.311 N 
ATOM     14  C   LIG d   1      -6.625  79.427 118.396  0.00  0.00     0.210 C 
ATOM     15  C   LIG d   1      -8.057  79.967 118.337  0.00  0.00     0.109 C 
ATOM     16  O   LIG d   1      -5.944  79.573 119.423  0.00  0.00    -0.276 OA
ATOM     17  H   LIG d   1      -6.803  78.801 116.482  0.00  0.00     0.149 HD
ENDBRANCH   6  13
BRANCH   5  18
ATOM     18  N   LIG d   1      -3.567  80.396 117.421  0.00  0.00     0.381 N 
ATOM     19  H   LIG d   1      -4.177  80.360 118.213  0.00  0.00    -0.090 HD
ATOM     20  H   LIG d   1      -3.765  81.238 116.909  0.00  0.00    -0.090 HD
ATOM     21  H   LIG d   1      -2.618  80.398 117.724  0.00  0.00    -0.090 HD
ENDBRANCH   5  18
BRANCH   3  22
ATOM     22  C   LIG d   1      -1.533  76.894 114.865  0.00  0.00     0.382 C 
ATOM     23  O   LIG d   1      -1.685  76.697 113.635  0.00  0.00    -0.241 OA
ATOM     24  O   LIG d   1      -0.426  76.670 115.390  0.00  0.00    -0.241 OA
ENDBRANCH   3  22
TORSDOF 7
ENDMDL
MODEL 8
REMARK VINA RESULT:      -4.7      2.415      3.736
REMARK  7 active torsions:
REMARK  status: ('A' for Active; 'I' for Inactive)
REMARK    1  A    between atoms: C_2  and  C_3 
REMARK    2  A    between atoms: C_3  and  O_6 
REMARK    3  A    between atoms: C_3  and  C_4 
REMARK    4  A    between atoms: C_7  and  O_6 
REMARK    5  A    between atoms: C_9  and  C_10 
REMARK    6  A    between atoms: N_15  and  C_14 
REMARK    7  A    between atoms: N_20  and  C_19 
REMARK       I    between atoms: C_22  and  N_20 
ROOT
ATOM      1  C   LIG d   1      -4.857  77.443 117.703  0.00  0.00     0.161 C 
ATOM      2  C   LIG d   1      -5.632  78.597 117.906  0.00  0.00     0.016 C 
ATOM      3  C   LIG d   1      -5.142  79.908 117.708  0.00  0.00     0.038 C 
ATOM      4  C   LIG d   1      -3.880  80.151 117.144  0.00  0.00     0.028 C 
ATOM      5  C   LIG d   1      -2.878  79.030 117.397  0.00  0.00    -0.047 C 
ATOM      6  C   LIG d   1      -3.514  77.684 116.982  0.00  0.00     0.091 C 
ENDROOT
BRANCH   1   7
ATOM      7  O   LIG d   1      -5.632  76.451 117.001  0.00  0.00    -0.368 OA
BRANCH   7   8
ATOM      8  C   LIG d   1      -6.737  76.950 116.208  0.00  0.00     0.119 C 
BRANCH   8   9
ATOM      9  C   LIG d   1      -8.017  76.251 116.705  0.00  0.00     0.028 C 
ATOM     10  C   LIG d   1      -7.717  74.940 117.451  0.00  0.00     0.006 C 
ENDBRANCH   8   9
BRANCH   8  11
ATOM     11  C   LIG d   1      -6.598  76.543 114.738  0.00  0.00     0.028 C 
ATOM     12  C   LIG d   1      -5.385  75.633 114.485  0.00  0.00     0.006 C 
ENDBRANCH   8  11
ENDBRANCH   7   8
ENDBRANCH   1   7
BRANCH   6  13
ATOM     13  N   LIG d   1      -2.632  76.525 117.275  0.00  0.00    -0.311 N 
ATOM     14  C   LIG d   1      -1.993  75.833 116.333  0.00  0.00     0.210 C 
ATOM     15  C   LIG d   1      -1.150  74.663 116.850  0.00  0.00     0.109 C 
ATOM     16  O   LIG d   1      -2.018  76.097 115.122  0.00  0.00    -0.276 OA
ATOM     17  H   LIG d   1      -2.529  76.261 118.236  0.00  0.00     0.149 HD
ENDBRANCH   6  13
BRANCH   5  18
ATOM     18  N   LIG d   1      -1.652  79.348 116.640  0.00  0.00     0.381 N 
ATOM     19  H   LIG d   1      -1.138  80.063 117.114  0.00  0.00    -0.090 HD
ATOM     20  H   LIG d   1      -1.911  79.694 115.733  0.00  0.00    -0.090 HD
ATOM     21  H   LIG d   1      -1.089  78.532 116.544  0.00  0.00    -0.090 HD
ENDBRANCH   5  18
BRANCH   3  22
ATOM     22  C   LIG d   1      -5.902  80.995 118.113  0.00  0.00     0.382 C 
ATOM     23  O   LIG d   1      -5.615  82.147 117.707  0.00  0.00    -0.241 OA
ATOM     24  O   LIG d   1      -6.844  80.844 118.914  0.00  0.00    -0.241 OA
ENDBRANCH   3  22
TORSDOF 7
ENDMDL
MODEL 9
REMARK VINA RESULT:      -4.7     14.848     17.744
REMARK  7 active torsions:
REMARK  status: ('A' for Active; 'I' for Inactive)
REMARK    1  A    between atoms: C_2  and  C_3 
REMARK    2  A    between atoms: C_3  and  O_6 
REMARK    3  A    between atoms: C_3  and  C_4 
REMARK    4  A    between atoms: C_7  and  O_6 
REMARK    5  A    between atoms: C_9  and  C_10 
REMARK    6  A    between atoms: N_15  and  C_14 
REMARK    7  A    between atoms: N_20  and  C_19 
REMARK       I    between atoms: C_22  and  N_20 
ROOT
ATOM      1  C   LIG d   1     -15.752  64.379 115.664  0.00  0.00     0.161 C 
ATOM      2  C   LIG d   1     -15.916  65.581 114.954  0.00  0.00     0.016 C 
ATOM      3  C   LIG d   1     -15.296  66.795 115.328  0.00  0.00     0.038 C 
ATOM      4  C   LIG d   1     -14.344  66.856 116.356  0.00  0.00     0.028 C 
ATOM      5  C   LIG d   1     -14.530  65.778 117.418  0.00  0.00    -0.047 C 
ATOM      6  C   LIG d   1     -14.630  64.401 116.723  0.00  0.00     0.091 C 
ENDROOT
BRANCH   1   7
ATOM      7  O   LIG d   1     -15.549  63.291 114.741  0.00  0.00    -0.368 OA
BRANCH   7   8
ATOM      8  C   LIG d   1     -16.617  62.315 114.662  0.00  0.00     0.119 C 
BRANCH   8   9
ATOM      9  C   LIG d   1     -17.754  62.797 115.583  0.00  0.00     0.028 C 
ATOM     10  C   LIG d   1     -19.101  62.903 114.848  0.00  0.00     0.006 C 
ENDBRANCH   8   9
BRANCH   8  11
ATOM     11  C   LIG d   1     -16.180  60.962 115.231  0.00  0.00     0.028 C 
ATOM     12  C   LIG d   1     -16.610  59.778 114.351  0.00  0.00     0.006 C 
ENDBRANCH   8  11
ENDBRANCH   7   8
ENDBRANCH   1   7
BRANCH   6  13
ATOM     13  N   LIG d   1     -14.897  63.299 117.683  0.00  0.00    -0.311 N 
ATOM     14  C   LIG d   1     -14.013  62.345 117.968  0.00  0.00     0.210 C 
ATOM     15  C   LIG d   1     -14.497  61.292 118.971  0.00  0.00     0.109 C 
ATOM     16  O   LIG d   1     -12.861  62.288 117.511  0.00  0.00    -0.276 OA
ATOM     17  H   LIG d   1     -15.796  63.286 118.124  0.00  0.00     0.149 HD
ENDBRANCH   6  13
BRANCH   5  18
ATOM     18  N   LIG d   1     -13.392  65.872 118.353  0.00  0.00     0.381 N 
ATOM     19  H   LIG d   1     -13.614  65.397 119.205  0.00  0.00    -0.090 HD
ATOM     20  H   LIG d   1     -13.225  66.840 118.565  0.00  0.00    -0.090 HD
ATOM     21  H   LIG d   1     -12.579  65.469 117.941  0.00  0.00    -0.090 HD
ENDBRANCH   5  18
BRANCH   3  22
ATOM     22  C   LIG d   1     -15.657  67.975 114.694  0.00  0.00     0.382 C 
ATOM     23  O   LIG d   1     -15.918  68.997 115.374  0.00  0.00    -0.241 OA
ATOM     24  O   LIG d   1     -15.770  68.017 113.455  0.00  0.00    -0.241 OA
ENDBRANCH   3  22
TORSDOF 7
ENDMDL
