MODEL 1
REMARK VINA RESULT:      -5.2      0.000      0.000
REMARK  7 active torsions:
REMARK  status: ('A' for Active; 'I' for Inactive)
REMARK    1  A    between atoms: C_2  and  C_3 
REMARK    2  A    between atoms: C_3  and  O_6 
REMARK    3  A    between atoms: C_3  and  C_4 
REMARK    4  A    between atoms: C_7  and  O_6 
REMARK    5  A    between atoms: C_9  and  C_10 
REMARK    6  A    between atoms: N_15  and  C_14 
REMARK    7  A    between atoms: N_20  and  C_19 
REMARK       I    between atoms: C_22  and  N_20 
ROOT
ATOM      1  C   LIG d   1      -7.753  77.084 117.247  0.00  0.00     0.161 C 
ATOM      2  C   LIG d   1      -7.256  78.394 117.353  0.00  0.00     0.016 C 
ATOM      3  C   LIG d   1      -7.941  79.435 118.020  0.00  0.00     0.038 C 
ATOM      4  C   LIG d   1      -9.108  79.198 118.762  0.00  0.00     0.028 C 
ATOM      5  C   LIG d   1      -9.911  78.002 118.263  0.00  0.00    -0.047 C 
ATOM      6  C   LIG d   1      -8.971  76.780 118.145  0.00  0.00     0.091 C 
ENDROOT
BRANCH   1   7
ATOM      7  O   LIG d   1      -6.696  76.138 117.499  0.00  0.00    -0.368 OA
BRANCH   7   8
ATOM      8  C   LIG d   1      -5.767  75.914 116.410  0.00  0.00     0.119 C 
BRANCH   8   9
ATOM      9  C   LIG d   1      -6.493  75.061 115.351  0.00  0.00     0.028 C 
ATOM     10  C   LIG d   1      -6.938  73.696 115.902  0.00  0.00     0.006 C 
ENDBRANCH   8   9
BRANCH   8  11
ATOM     11  C   LIG d   1      -4.572  75.069 116.861  0.00  0.00     0.028 C 
ATOM     12  C   LIG d   1      -3.419  75.078 115.846  0.00  0.00     0.006 C 
ENDBRANCH   8  11
ENDBRANCH   7   8
ENDBRANCH   1   7
BRANCH   6  13
ATOM     13  N   LIG d   1      -9.658  75.588 117.583  0.00  0.00    -0.311 N 
ATOM     14  C   LIG d   1      -9.769  74.432 118.233  0.00  0.00     0.210 C 
ATOM     15  C   LIG d   1     -10.498  73.325 117.465  0.00  0.00     0.109 C 
ATOM     16  O   LIG d   1      -9.362  74.227 119.387  0.00  0.00    -0.276 OA
ATOM     17  H   LIG d   1     -10.045  75.676 116.664  0.00  0.00     0.149 HD
ENDBRANCH   6  13
BRANCH   5  18
ATOM     18  N   LIG d   1     -11.023  77.786 119.207  0.00  0.00     0.381 N 
ATOM     19  H   LIG d   1     -11.889  78.043 118.776  0.00  0.00    -0.090 HD
ATOM     20  H   LIG d   1     -10.885  78.372 120.012  0.00  0.00    -0.090 HD
ATOM     21  H   LIG d   1     -11.054  76.830 119.485  0.00  0.00    -0.090 HD
ENDBRANCH   5  18
BRANCH   3  22
ATOM     22  C   LIG d   1      -7.480  80.738 117.916  0.00  0.00     0.382 C 
ATOM     23  O   LIG d   1      -6.510  81.118 118.614  0.00  0.00    -0.241 OA
ATOM     24  O   LIG d   1      -8.051  81.552 117.164  0.00  0.00    -0.241 OA
ENDBRANCH   3  22
TORSDOF 7
ENDMDL
MODEL 2
REMARK VINA RESULT:      -5.1      1.816      4.688
REMARK  7 active torsions:
REMARK  status: ('A' for Active; 'I' for Inactive)
REMARK    1  A    between atoms: C_2  and  C_3 
REMARK    2  A    between atoms: C_3  and  O_6 
REMARK    3  A    between atoms: C_3  and  C_4 
REMARK    4  A    between atoms: C_7  and  O_6 
REMARK    5  A    between atoms: C_9  and  C_10 
REMARK    6  A    between atoms: N_15  and  C_14 
REMARK    7  A    between atoms: N_20  and  C_19 
REMARK       I    between atoms: C_22  and  N_20 
ROOT
ATOM      1  C   LIG d   1      -8.479  76.863 117.383  0.00  0.00     0.161 C 
ATOM      2  C   LIG d   1      -9.486  75.898 117.215  0.00  0.00     0.016 C 
ATOM      3  C   LIG d   1     -10.788  76.030 117.752  0.00  0.00     0.038 C 
ATOM      4  C   LIG d   1     -11.218  77.213 118.370  0.00  0.00     0.028 C 
ATOM      5  C   LIG d   1     -10.085  78.012 119.005  0.00  0.00    -0.047 C 
ATOM      6  C   LIG d   1      -8.963  78.210 117.959  0.00  0.00     0.091 C 
ENDROOT
BRANCH   1   7
ATOM      7  O   LIG d   1      -7.789  77.071 116.135  0.00  0.00    -0.368 OA
BRANCH   7   8
ATOM      8  C   LIG d   1      -6.433  76.564 116.064  0.00  0.00     0.119 C 
BRANCH   8   9
ATOM      9  C   LIG d   1      -6.434  75.378 115.080  0.00  0.00     0.028 C 
ATOM     10  C   LIG d   1      -6.508  74.020 115.798  0.00  0.00     0.006 C 
ENDBRANCH   8   9
BRANCH   8  11
ATOM     11  C   LIG d   1      -5.987  75.977 117.406  0.00  0.00     0.028 C 
ATOM     12  C   LIG d   1      -4.836  76.767 118.049  0.00  0.00     0.006 C 
ENDBRANCH   8  11
ENDBRANCH   7   8
ENDBRANCH   1   7
BRANCH   6  13
ATOM     13  N   LIG d   1      -7.780  78.909 118.523  0.00  0.00    -0.311 N 
ATOM     14  C   LIG d   1      -7.409  80.135 118.156  0.00  0.00     0.210 C 
ATOM     15  C   LIG d   1      -6.147  80.662 118.847  0.00  0.00     0.109 C 
ATOM     16  O   LIG d   1      -8.023  80.848 117.349  0.00  0.00    -0.276 OA
ATOM     17  H   LIG d   1      -7.242  78.416 119.208  0.00  0.00     0.149 HD
ENDBRANCH   6  13
BRANCH   5  18
ATOM     18  N   LIG d   1     -10.653  79.284 119.490  0.00  0.00     0.381 N 
ATOM     19  H   LIG d   1     -11.637  79.180 119.638  0.00  0.00    -0.090 HD
ATOM     20  H   LIG d   1     -10.512  79.991 118.791  0.00  0.00    -0.090 HD
ATOM     21  H   LIG d   1     -10.209  79.553 120.340  0.00  0.00    -0.090 HD
ENDBRANCH   5  18
BRANCH   3  22
ATOM     22  C   LIG d   1     -11.661  74.954 117.708  0.00  0.00     0.382 C 
ATOM     23  O   LIG d   1     -12.876  75.121 117.975  0.00  0.00    -0.241 OA
ATOM     24  O   LIG d   1     -11.242  73.810 117.448  0.00  0.00    -0.241 OA
ENDBRANCH   3  22
TORSDOF 7
ENDMDL
MODEL 3
REMARK VINA RESULT:      -4.9     13.288     15.325
REMARK  7 active torsions:
REMARK  status: ('A' for Active; 'I' for Inactive)
REMARK    1  A    between atoms: C_2  and  C_3 
REMARK    2  A    between atoms: C_3  and  O_6 
REMARK    3  A    between atoms: C_3  and  C_4 
REMARK    4  A    between atoms: C_7  and  O_6 
REMARK    5  A    between atoms: C_9  and  C_10 
REMARK    6  A    between atoms: N_15  and  C_14 
REMARK    7  A    between atoms: N_20  and  C_19 
REMARK       I    between atoms: C_22  and  N_20 
ROOT
ATOM      1  C   LIG d   1       1.421  87.885 116.200  0.00  0.00     0.161 C 
ATOM      2  C   LIG d   1       0.210  87.714 116.891  0.00  0.00     0.016 C 
ATOM      3  C   LIG d   1      -0.469  88.768 117.544  0.00  0.00     0.038 C 
ATOM      4  C   LIG d   1      -0.057  90.104 117.422  0.00  0.00     0.028 C 
ATOM      5  C   LIG d   1       1.437  90.255 117.156  0.00  0.00    -0.047 C 
ATOM      6  C   LIG d   1       1.828  89.355 115.961  0.00  0.00     0.091 C 
ENDROOT
BRANCH   1   7
ATOM      7  O   LIG d   1       1.376  87.169 114.950  0.00  0.00    -0.368 OA
BRANCH   7   8
ATOM      8  C   LIG d   1       1.752  85.771 115.002  0.00  0.00     0.119 C 
BRANCH   8   9
ATOM      9  C   LIG d   1       3.282  85.697 114.829  0.00  0.00     0.028 C 
ATOM     10  C   LIG d   1       3.718  85.909 113.370  0.00  0.00     0.006 C 
ENDBRANCH   8   9
BRANCH   8  11
ATOM     11  C   LIG d   1       1.172  84.993 113.817  0.00  0.00     0.028 C 
ATOM     12  C   LIG d   1      -0.167  85.566 113.326  0.00  0.00     0.006 C 
ENDBRANCH   8  11
ENDBRANCH   7   8
ENDBRANCH   1   7
BRANCH   6  13
ATOM     13  N   LIG d   1       3.288  89.378 115.687  0.00  0.00    -0.311 N 
ATOM     14  C   LIG d   1       3.803  89.446 114.461  0.00  0.00     0.210 C 
ATOM     15  C   LIG d   1       5.334  89.438 114.401  0.00  0.00     0.109 C 
ATOM     16  O   LIG d   1       3.137  89.544 113.419  0.00  0.00    -0.276 OA
ATOM     17  H   LIG d   1       3.901  89.334 116.478  0.00  0.00     0.149 HD
ENDBRANCH   6  13
BRANCH   5  18
ATOM     18  N   LIG d   1       1.704  91.685 116.914  0.00  0.00     0.381 N 
ATOM     19  H   LIG d   1       1.344  91.950 116.018  0.00  0.00    -0.090 HD
ATOM     20  H   LIG d   1       2.698  91.834 116.911  0.00  0.00    -0.090 HD
ATOM     21  H   LIG d   1       1.281  92.237 117.627  0.00  0.00    -0.090 HD
ENDBRANCH   5  18
BRANCH   3  22
ATOM     22  C   LIG d   1      -1.551  88.485 118.364  0.00  0.00     0.382 C 
ATOM     23  O   LIG d   1      -2.717  88.715 117.963  0.00  0.00    -0.241 OA
ATOM     24  O   LIG d   1      -1.373  88.045 119.515  0.00  0.00    -0.241 OA
ENDBRANCH   3  22
TORSDOF 7
ENDMDL
MODEL 4
REMARK VINA RESULT:      -4.8      2.536      5.738
REMARK  7 active torsions:
REMARK  status: ('A' for Active; 'I' for Inactive)
REMARK    1  A    between atoms: C_2  and  C_3 
REMARK    2  A    between atoms: C_3  and  O_6 
REMARK    3  A    between atoms: C_3  and  C_4 
REMARK    4  A    between atoms: C_7  and  O_6 
REMARK    5  A    between atoms: C_9  and  C_10 
REMARK    6  A    between atoms: N_15  and  C_14 
REMARK    7  A    between atoms: N_20  and  C_19 
REMARK       I    between atoms: C_22  and  N_20 
ROOT
ATOM      1  C   LIG d   1      -8.946  78.172 118.285  0.00  0.00     0.161 C 
ATOM      2  C   LIG d   1     -10.243  77.667 118.478  0.00  0.00     0.016 C 
ATOM      3  C   LIG d   1     -10.644  76.375 118.069  0.00  0.00     0.038 C 
ATOM      4  C   LIG d   1      -9.726  75.437 117.572  0.00  0.00     0.028 C 
ATOM      5  C   LIG d   1      -8.517  76.073 116.894  0.00  0.00    -0.047 C 
ATOM      6  C   LIG d   1      -7.903  77.124 117.846  0.00  0.00     0.091 C 
ENDROOT
BRANCH   1   7
ATOM      7  O   LIG d   1      -8.504  78.850 119.478  0.00  0.00    -0.368 OA
BRANCH   7   8
ATOM      8  C   LIG d   1      -8.460  80.297 119.410  0.00  0.00     0.119 C 
BRANCH   8   9
ATOM      9  C   LIG d   1      -9.162  80.720 118.105  0.00  0.00     0.028 C 
ATOM     10  C   LIG d   1     -10.460  81.503 118.364  0.00  0.00     0.006 C 
ENDBRANCH   8   9
BRANCH   8  11
ATOM     11  C   LIG d   1      -7.021  80.805 119.280  0.00  0.00     0.028 C 
ATOM     12  C   LIG d   1      -6.740  81.454 117.916  0.00  0.00     0.006 C 
ENDBRANCH   8  11
ENDBRANCH   7   8
ENDBRANCH   1   7
BRANCH   6  13
ATOM     13  N   LIG d   1      -6.766  77.854 117.227  0.00  0.00    -0.311 N 
ATOM     14  C   LIG d   1      -5.521  77.806 117.698  0.00  0.00     0.210 C 
ATOM     15  C   LIG d   1      -4.503  78.648 116.922  0.00  0.00     0.109 C 
ATOM     16  O   LIG d   1      -5.156  77.121 118.665  0.00  0.00    -0.276 OA
ATOM     17  H   LIG d   1      -6.966  78.410 116.419  0.00  0.00     0.149 HD
ENDBRANCH   6  13
BRANCH   5  18
ATOM     18  N   LIG d   1      -7.579  74.989 116.547  0.00  0.00     0.381 N 
ATOM     19  H   LIG d   1      -6.955  75.298 115.829  0.00  0.00    -0.090 HD
ATOM     20  H   LIG d   1      -8.102  74.206 116.195  0.00  0.00    -0.090 HD
ATOM     21  H   LIG d   1      -7.061  74.715 117.353  0.00  0.00    -0.090 HD
ENDBRANCH   5  18
BRANCH   3  22
ATOM     22  C   LIG d   1     -11.984  76.022 118.118  0.00  0.00     0.382 C 
ATOM     23  O   LIG d   1     -12.846  76.879 118.431  0.00  0.00    -0.241 OA
ATOM     24  O   LIG d   1     -12.337  74.849 117.898  0.00  0.00    -0.241 OA
ENDBRANCH   3  22
TORSDOF 7
ENDMDL
MODEL 5
REMARK VINA RESULT:      -4.7      2.530      4.445
REMARK  7 active torsions:
REMARK  status: ('A' for Active; 'I' for Inactive)
REMARK    1  A    between atoms: C_2  and  C_3 
REMARK    2  A    between atoms: C_3  and  O_6 
REMARK    3  A    between atoms: C_3  and  C_4 
REMARK    4  A    between atoms: C_7  and  O_6 
REMARK    5  A    between atoms: C_9  and  C_10 
REMARK    6  A    between atoms: N_15  and  C_14 
REMARK    7  A    between atoms: N_20  and  C_19 
REMARK       I    between atoms: C_22  and  N_20 
ROOT
ATOM      1  C   LIG d   1      -7.011  76.459 118.102  0.00  0.00     0.161 C 
ATOM      2  C   LIG d   1      -8.388  76.184 118.123  0.00  0.00     0.016 C 
ATOM      3  C   LIG d   1      -9.382  77.189 118.078  0.00  0.00     0.038 C 
ATOM      4  C   LIG d   1      -9.065  78.537 117.856  0.00  0.00     0.028 C 
ATOM      5  C   LIG d   1      -7.668  78.917 118.335  0.00  0.00    -0.047 C 
ATOM      6  C   LIG d   1      -6.647  77.916 117.748  0.00  0.00     0.091 C 
ENDROOT
BRANCH   1   7
ATOM      7  O   LIG d   1      -6.344  75.545 117.210  0.00  0.00    -0.368 OA
BRANCH   7   8
ATOM      8  C   LIG d   1      -7.107  75.108 116.058  0.00  0.00     0.119 C 
BRANCH   8   9
ATOM      9  C   LIG d   1      -6.949  73.579 115.951  0.00  0.00     0.028 C 
ATOM     10  C   LIG d   1      -8.192  72.824 116.451  0.00  0.00     0.006 C 
ENDBRANCH   8   9
BRANCH   8  11
ATOM     11  C   LIG d   1      -6.523  75.668 114.758  0.00  0.00     0.028 C 
ATOM     12  C   LIG d   1      -4.987  75.714 114.765  0.00  0.00     0.006 C 
ENDBRANCH   8  11
ENDBRANCH   7   8
ENDBRANCH   1   7
BRANCH   6  13
ATOM     13  N   LIG d   1      -5.265  78.165 118.235  0.00  0.00    -0.311 N 
ATOM     14  C   LIG d   1      -4.282  78.613 117.455  0.00  0.00     0.210 C 
ATOM     15  C   LIG d   1      -2.929  78.782 118.152  0.00  0.00     0.109 C 
ATOM     16  O   LIG d   1      -4.411  78.917 116.259  0.00  0.00    -0.276 OA
ATOM     17  H   LIG d   1      -5.080  77.975 119.200  0.00  0.00     0.149 HD
ENDBRANCH   6  13
BRANCH   5  18
ATOM     18  N   LIG d   1      -7.417  80.310 117.918  0.00  0.00     0.381 N 
ATOM     19  H   LIG d   1      -7.075  80.325 116.977  0.00  0.00    -0.090 HD
ATOM     20  H   LIG d   1      -6.714  80.707 118.516  0.00  0.00    -0.090 HD
ATOM     21  H   LIG d   1      -8.257  80.841 117.982  0.00  0.00    -0.090 HD
ENDBRANCH   5  18
BRANCH   3  22
ATOM     22  C   LIG d   1     -10.710  76.852 118.297  0.00  0.00     0.382 C 
ATOM     23  O   LIG d   1     -11.064  75.649 118.268  0.00  0.00    -0.241 OA
ATOM     24  O   LIG d   1     -11.565  77.739 118.479  0.00  0.00    -0.241 OA
ENDBRANCH   3  22
TORSDOF 7
ENDMDL
MODEL 6
REMARK VINA RESULT:      -4.7     12.822     16.312
REMARK  7 active torsions:
REMARK  status: ('A' for Active; 'I' for Inactive)
REMARK    1  A    between atoms: C_2  and  C_3 
REMARK    2  A    between atoms: C_3  and  O_6 
REMARK    3  A    between atoms: C_3  and  C_4 
REMARK    4  A    between atoms: C_7  and  O_6 
REMARK    5  A    between atoms: C_9  and  C_10 
REMARK    6  A    between atoms: N_15  and  C_14 
REMARK    7  A    between atoms: N_20  and  C_19 
REMARK       I    between atoms: C_22  and  N_20 
ROOT
ATOM      1  C   LIG d   1     -16.617  63.919 116.590  0.00  0.00     0.161 C 
ATOM      2  C   LIG d   1     -16.078  65.175 116.914  0.00  0.00     0.016 C 
ATOM      3  C   LIG d   1     -15.857  66.197 115.962  0.00  0.00     0.038 C 
ATOM      4  C   LIG d   1     -16.303  66.084 114.637  0.00  0.00     0.028 C 
ATOM      5  C   LIG d   1     -16.395  64.642 114.149  0.00  0.00    -0.047 C 
ATOM      6  C   LIG d   1     -17.213  63.818 115.170  0.00  0.00     0.091 C 
ENDROOT
BRANCH   1   7
ATOM      7  O   LIG d   1     -17.601  63.540 117.573  0.00  0.00    -0.368 OA
BRANCH   7   8
ATOM      8  C   LIG d   1     -17.154  62.619 118.599  0.00  0.00     0.119 C 
BRANCH   8   9
ATOM      9  C   LIG d   1     -15.921  61.876 118.049  0.00  0.00     0.028 C 
ATOM     10  C   LIG d   1     -14.709  61.973 118.990  0.00  0.00     0.006 C 
ENDBRANCH   8   9
BRANCH   8  11
ATOM     11  C   LIG d   1     -18.199  61.531 118.863  0.00  0.00     0.028 C 
ATOM     12  C   LIG d   1     -17.843  60.190 118.202  0.00  0.00     0.006 C 
ENDBRANCH   8  11
ENDBRANCH   7   8
ENDBRANCH   1   7
BRANCH   6  13
ATOM     13  N   LIG d   1     -17.280  62.378 114.811  0.00  0.00    -0.311 N 
ATOM     14  C   LIG d   1     -18.272  61.845 114.099  0.00  0.00     0.210 C 
ATOM     15  C   LIG d   1     -18.157  60.336 113.859  0.00  0.00     0.109 C 
ATOM     16  O   LIG d   1     -19.219  62.484 113.617  0.00  0.00    -0.276 OA
ATOM     17  H   LIG d   1     -16.536  61.792 115.136  0.00  0.00     0.149 HD
ENDBRANCH   6  13
BRANCH   5  18
ATOM     18  N   LIG d   1     -17.003  64.665 112.805  0.00  0.00     0.381 N 
ATOM     19  H   LIG d   1     -17.193  65.609 112.535  0.00  0.00    -0.090 HD
ATOM     20  H   LIG d   1     -17.873  64.163 112.833  0.00  0.00    -0.090 HD
ATOM     21  H   LIG d   1     -16.388  64.241 112.146  0.00  0.00    -0.090 HD
ENDBRANCH   5  18
BRANCH   3  22
ATOM     22  C   LIG d   1     -15.146  67.331 116.324  0.00  0.00     0.382 C 
ATOM     23  O   LIG d   1     -15.152  68.339 115.577  0.00  0.00    -0.241 OA
ATOM     24  O   LIG d   1     -14.464  67.343 117.366  0.00  0.00    -0.241 OA
ENDBRANCH   3  22
TORSDOF 7
ENDMDL
MODEL 7
REMARK VINA RESULT:      -4.7     16.670     18.792
REMARK  7 active torsions:
REMARK  status: ('A' for Active; 'I' for Inactive)
REMARK    1  A    between atoms: C_2  and  C_3 
REMARK    2  A    between atoms: C_3  and  O_6 
REMARK    3  A    between atoms: C_3  and  C_4 
REMARK    4  A    between atoms: C_7  and  O_6 
REMARK    5  A    between atoms: C_9  and  C_10 
REMARK    6  A    between atoms: N_15  and  C_14 
REMARK    7  A    between atoms: N_20  and  C_19 
REMARK       I    between atoms: C_22  and  N_20 
ROOT
ATOM      1  C   LIG d   1     -23.886  83.810 114.194  0.00  0.00     0.161 C 
ATOM      2  C   LIG d   1     -23.013  84.903 114.320  0.00  0.00     0.016 C 
ATOM      3  C   LIG d   1     -23.398  86.239 114.062  0.00  0.00     0.038 C 
ATOM      4  C   LIG d   1     -24.732  86.591 113.807  0.00  0.00     0.028 C 
ATOM      5  C   LIG d   1     -25.544  85.465 113.175  0.00  0.00    -0.047 C 
ATOM      6  C   LIG d   1     -25.373  84.185 114.025  0.00  0.00     0.091 C 
ENDROOT
BRANCH   1   7
ATOM      7  O   LIG d   1     -23.718  82.920 115.316  0.00  0.00    -0.368 OA
BRANCH   7   8
ATOM      8  C   LIG d   1     -24.533  83.203 116.480  0.00  0.00     0.119 C 
BRANCH   8   9
ATOM      9  C   LIG d   1     -23.583  83.609 117.623  0.00  0.00     0.028 C 
ATOM     10  C   LIG d   1     -22.185  82.985 117.474  0.00  0.00     0.006 C 
ENDBRANCH   8   9
BRANCH   8  11
ATOM     11  C   LIG d   1     -25.250  81.944 116.977  0.00  0.00     0.028 C 
ATOM     12  C   LIG d   1     -24.908  80.696 116.148  0.00  0.00     0.006 C 
ENDBRANCH   8  11
ENDBRANCH   7   8
ENDBRANCH   1   7
BRANCH   6  13
ATOM     13  N   LIG d   1     -26.067  83.013 113.430  0.00  0.00    -0.311 N 
ATOM     14  C   LIG d   1     -27.277  82.607 113.812  0.00  0.00     0.210 C 
ATOM     15  C   LIG d   1     -27.801  81.365 113.083  0.00  0.00     0.109 C 
ATOM     16  O   LIG d   1     -27.979  83.176 114.661  0.00  0.00    -0.276 OA
ATOM     17  H   LIG d   1     -25.582  82.512 112.712  0.00  0.00     0.149 HD
ENDBRANCH   6  13
BRANCH   5  18
ATOM     18  N   LIG d   1     -26.945  85.920 113.090  0.00  0.00     0.381 N 
ATOM     19  H   LIG d   1     -27.551  85.131 112.979  0.00  0.00    -0.090 HD
ATOM     20  H   LIG d   1     -27.046  86.512 112.285  0.00  0.00    -0.090 HD
ATOM     21  H   LIG d   1     -27.190  86.423 113.914  0.00  0.00    -0.090 HD
ENDBRANCH   5  18
BRANCH   3  22
ATOM     22  C   LIG d   1     -22.435  87.236 114.020  0.00  0.00     0.382 C 
ATOM     23  O   LIG d   1     -21.330  87.017 113.467  0.00  0.00    -0.241 OA
ATOM     24  O   LIG d   1     -22.640  88.336 114.567  0.00  0.00    -0.241 OA
ENDBRANCH   3  22
TORSDOF 7
ENDMDL
MODEL 8
REMARK VINA RESULT:      -4.6      2.466      5.563
REMARK  7 active torsions:
REMARK  status: ('A' for Active; 'I' for Inactive)
REMARK    1  A    between atoms: C_2  and  C_3 
REMARK    2  A    between atoms: C_3  and  O_6 
REMARK    3  A    between atoms: C_3  and  C_4 
REMARK    4  A    between atoms: C_7  and  O_6 
REMARK    5  A    between atoms: C_9  and  C_10 
REMARK    6  A    between atoms: N_15  and  C_14 
REMARK    7  A    between atoms: N_20  and  C_19 
REMARK       I    between atoms: C_22  and  N_20 
ROOT
ATOM      1  C   LIG d   1      -7.623  76.791 117.007  0.00  0.00     0.161 C 
ATOM      2  C   LIG d   1      -8.941  76.557 117.434  0.00  0.00     0.016 C 
ATOM      3  C   LIG d   1      -9.550  75.281 117.418  0.00  0.00     0.038 C 
ATOM      4  C   LIG d   1      -8.826  74.118 117.114  0.00  0.00     0.028 C 
ATOM      5  C   LIG d   1      -7.637  74.369 116.192  0.00  0.00    -0.047 C 
ATOM      6  C   LIG d   1      -6.783  75.517 116.777  0.00  0.00     0.091 C 
ENDROOT
BRANCH   1   7
ATOM      7  O   LIG d   1      -6.957  77.669 117.936  0.00  0.00    -0.368 OA
BRANCH   7   8
ATOM      8  C   LIG d   1      -6.677  79.008 117.458  0.00  0.00     0.119 C 
BRANCH   8   9
ATOM      9  C   LIG d   1      -5.263  79.386 117.941  0.00  0.00     0.028 C 
ATOM     10  C   LIG d   1      -4.176  79.024 116.915  0.00  0.00     0.006 C 
ENDBRANCH   8   9
BRANCH   8  11
ATOM     11  C   LIG d   1      -7.613  80.036 118.100  0.00  0.00     0.028 C 
ATOM     12  C   LIG d   1      -7.244  81.484 117.741  0.00  0.00     0.006 C 
ENDBRANCH   8  11
ENDBRANCH   7   8
ENDBRANCH   1   7
BRANCH   6  13
ATOM     13  N   LIG d   1      -5.645  75.883 115.893  0.00  0.00    -0.311 N 
ATOM     14  C   LIG d   1      -4.432  75.342 115.998  0.00  0.00     0.210 C 
ATOM     15  C   LIG d   1      -3.398  75.875 115.002  0.00  0.00     0.109 C 
ATOM     16  O   LIG d   1      -4.123  74.448 116.800  0.00  0.00    -0.276 OA
ATOM     17  H   LIG d   1      -5.816  76.578 115.194  0.00  0.00     0.149 HD
ENDBRANCH   6  13
BRANCH   5  18
ATOM     18  N   LIG d   1      -6.894  73.100 116.069  0.00  0.00     0.381 N 
ATOM     19  H   LIG d   1      -7.235  72.583 115.284  0.00  0.00    -0.090 HD
ATOM     20  H   LIG d   1      -7.045  72.553 116.898  0.00  0.00    -0.090 HD
ATOM     21  H   LIG d   1      -5.921  73.285 115.957  0.00  0.00    -0.090 HD
ENDBRANCH   5  18
BRANCH   3  22
ATOM     22  C   LIG d   1     -10.908  75.164 117.671  0.00  0.00     0.382 C 
ATOM     23  O   LIG d   1     -11.520  76.094 118.251  0.00  0.00    -0.241 OA
ATOM     24  O   LIG d   1     -11.520  74.123 117.366  0.00  0.00    -0.241 OA
ENDBRANCH   3  22
TORSDOF 7
ENDMDL
MODEL 9
REMARK VINA RESULT:      -4.5     16.269     19.452
REMARK  7 active torsions:
REMARK  status: ('A' for Active; 'I' for Inactive)
REMARK    1  A    between atoms: C_2  and  C_3 
REMARK    2  A    between atoms: C_3  and  O_6 
REMARK    3  A    between atoms: C_3  and  C_4 
REMARK    4  A    between atoms: C_7  and  O_6 
REMARK    5  A    between atoms: C_9  and  C_10 
REMARK    6  A    between atoms: N_15  and  C_14 
REMARK    7  A    between atoms: N_20  and  C_19 
REMARK       I    between atoms: C_22  and  N_20 
ROOT
ATOM      1  C   LIG d   1      10.409  79.379 114.216  0.00  0.00     0.161 C 
ATOM      2  C   LIG d   1       9.067  79.451 114.625  0.00  0.00     0.016 C 
ATOM      3  C   LIG d   1       8.369  78.362 115.196  0.00  0.00     0.038 C 
ATOM      4  C   LIG d   1       9.014  77.165 115.539  0.00  0.00     0.028 C 
ATOM      5  C   LIG d   1      10.242  76.872 114.683  0.00  0.00    -0.047 C 
ATOM      6  C   LIG d   1      11.161  78.115 114.684  0.00  0.00     0.091 C 
ENDROOT
BRANCH   1   7
ATOM      7  O   LIG d   1      11.112  80.565 114.637  0.00  0.00    -0.368 OA
BRANCH   7   8
ATOM      8  C   LIG d   1      11.414  80.659 116.051  0.00  0.00     0.119 C 
BRANCH   8   9
ATOM      9  C   LIG d   1      10.772  81.958 116.576  0.00  0.00     0.028 C 
ATOM     10  C   LIG d   1      10.254  82.857 115.441  0.00  0.00     0.006 C 
ENDBRANCH   8   9
BRANCH   8  11
ATOM     11  C   LIG d   1      12.918  80.824 116.290  0.00  0.00     0.028 C 
ATOM     12  C   LIG d   1      13.691  81.166 115.007  0.00  0.00     0.006 C 
ENDBRANCH   8  11
ENDBRANCH   7   8
ENDBRANCH   1   7
BRANCH   6  13
ATOM     13  N   LIG d   1      12.346  77.945 113.802  0.00  0.00    -0.311 N 
ATOM     14  C   LIG d   1      13.539  77.553 114.245  0.00  0.00     0.210 C 
ATOM     15  C   LIG d   1      14.629  77.461 113.172  0.00  0.00     0.109 C 
ATOM     16  O   LIG d   1      13.790  77.242 115.419  0.00  0.00    -0.276 OA
ATOM     17  H   LIG d   1      12.223  78.146 112.829  0.00  0.00     0.149 HD
ENDBRANCH   6  13
BRANCH   5  18
ATOM     18  N   LIG d   1      10.895  75.671 115.236  0.00  0.00     0.381 N 
ATOM     19  H   LIG d   1      10.212  75.085 115.674  0.00  0.00    -0.090 HD
ATOM     20  H   LIG d   1      11.560  75.954 115.934  0.00  0.00    -0.090 HD
ATOM     21  H   LIG d   1      11.357  75.169 114.510  0.00  0.00    -0.090 HD
ENDBRANCH   5  18
BRANCH   3  22
ATOM     22  C   LIG d   1       6.999  78.452 115.394  0.00  0.00     0.382 C 
ATOM     23  O   LIG d   1       6.268  78.946 114.502  0.00  0.00    -0.241 OA
ATOM     24  O   LIG d   1       6.491  78.087 116.471  0.00  0.00    -0.241 OA
ENDBRANCH   3  22
TORSDOF 7
ENDMDL
