MODEL 1
REMARK VINA RESULT:      -5.5      0.000      0.000
REMARK  7 active torsions:
REMARK  status: ('A' for Active; 'I' for Inactive)
REMARK    1  A    between atoms: C_2  and  C_3 
REMARK    2  A    between atoms: C_3  and  O_6 
REMARK    3  A    between atoms: C_3  and  C_4 
REMARK    4  A    between atoms: C_7  and  O_6 
REMARK    5  A    between atoms: C_9  and  C_10 
REMARK    6  A    between atoms: N_15  and  C_14 
REMARK    7  A    between atoms: N_20  and  C_19 
REMARK       I    between atoms: C_22  and  N_20 
ROOT
ATOM      1  C   LIG d   1      -2.948  76.041 116.429  0.00  0.00     0.161 C 
ATOM      2  C   LIG d   1      -2.936  77.127 115.538  0.00  0.00     0.016 C 
ATOM      3  C   LIG d   1      -1.964  77.292 114.525  0.00  0.00     0.038 C 
ATOM      4  C   LIG d   1      -1.019  76.296 114.235  0.00  0.00     0.028 C 
ATOM      5  C   LIG d   1      -0.679  75.417 115.434  0.00  0.00    -0.047 C 
ATOM      6  C   LIG d   1      -1.991  74.889 116.057  0.00  0.00     0.091 C 
ENDROOT
BRANCH   1   7
ATOM      7  O   LIG d   1      -4.294  75.546 116.578  0.00  0.00    -0.368 OA
BRANCH   7   8
ATOM      8  C   LIG d   1      -5.212  75.861 115.502  0.00  0.00     0.119 C 
BRANCH   8   9
ATOM      9  C   LIG d   1      -6.583  76.162 116.137  0.00  0.00     0.028 C 
ATOM     10  C   LIG d   1      -6.482  77.148 117.313  0.00  0.00     0.006 C 
ENDBRANCH   8   9
BRANCH   8  11
ATOM     11  C   LIG d   1      -5.443  74.650 114.594  0.00  0.00     0.028 C 
ATOM     12  C   LIG d   1      -5.969  73.424 115.357  0.00  0.00     0.006 C 
ENDBRANCH   8  11
ENDBRANCH   7   8
ENDBRANCH   1   7
BRANCH   6  13
ATOM     13  N   LIG d   1      -1.753  74.088 117.286  0.00  0.00    -0.311 N 
ATOM     14  C   LIG d   1      -1.082  74.547 118.342  0.00  0.00     0.210 C 
ATOM     15  C   LIG d   1      -0.934  73.551 119.496  0.00  0.00     0.109 C 
ATOM     16  O   LIG d   1      -0.624  75.695 118.444  0.00  0.00    -0.276 OA
ATOM     17  H   LIG d   1      -2.117  73.156 117.301  0.00  0.00     0.149 HD
ENDBRANCH   6  13
BRANCH   5  18
ATOM     18  N   LIG d   1       0.210  74.340 114.959  0.00  0.00     0.381 N 
ATOM     19  H   LIG d   1      -0.190  73.901 114.154  0.00  0.00    -0.090 HD
ATOM     20  H   LIG d   1       0.300  73.649 115.683  0.00  0.00    -0.090 HD
ATOM     21  H   LIG d   1       1.106  74.712 114.732  0.00  0.00    -0.090 HD
ENDBRANCH   5  18
BRANCH   3  22
ATOM     22  C   LIG d   1      -1.906  78.481 113.815  0.00  0.00     0.382 C 
ATOM     23  O   LIG d   1      -2.823  78.776 113.010  0.00  0.00    -0.241 OA
ATOM     24  O   LIG d   1      -0.927  79.242 113.935  0.00  0.00    -0.241 OA
ENDBRANCH   3  22
TORSDOF 7
ENDMDL
MODEL 2
REMARK VINA RESULT:      -5.1      2.280      4.034
REMARK  7 active torsions:
REMARK  status: ('A' for Active; 'I' for Inactive)
REMARK    1  A    between atoms: C_2  and  C_3 
REMARK    2  A    between atoms: C_3  and  O_6 
REMARK    3  A    between atoms: C_3  and  C_4 
REMARK    4  A    between atoms: C_7  and  O_6 
REMARK    5  A    between atoms: C_9  and  C_10 
REMARK    6  A    between atoms: N_15  and  C_14 
REMARK    7  A    between atoms: N_20  and  C_19 
REMARK       I    between atoms: C_22  and  N_20 
ROOT
ATOM      1  C   LIG d   1      -3.720  77.072 117.178  0.00  0.00     0.161 C 
ATOM      2  C   LIG d   1      -2.752  77.985 117.629  0.00  0.00     0.016 C 
ATOM      3  C   LIG d   1      -1.394  77.936 117.239  0.00  0.00     0.038 C 
ATOM      4  C   LIG d   1      -0.939  77.055 116.246  0.00  0.00     0.028 C 
ATOM      5  C   LIG d   1      -1.775  75.784 116.135  0.00  0.00    -0.047 C 
ATOM      6  C   LIG d   1      -3.265  76.173 116.009  0.00  0.00     0.091 C 
ENDROOT
BRANCH   1   7
ATOM      7  O   LIG d   1      -4.929  77.774 116.829  0.00  0.00    -0.368 OA
BRANCH   7   8
ATOM      8  C   LIG d   1      -6.050  77.598 117.730  0.00  0.00     0.119 C 
BRANCH   8   9
ATOM      9  C   LIG d   1      -7.110  76.757 116.991  0.00  0.00     0.028 C 
ATOM     10  C   LIG d   1      -8.386  76.558 117.825  0.00  0.00     0.006 C 
ENDBRANCH   8   9
BRANCH   8  11
ATOM     11  C   LIG d   1      -6.734  78.934 118.035  0.00  0.00     0.028 C 
ATOM     12  C   LIG d   1      -6.021  79.730 119.140  0.00  0.00     0.006 C 
ENDBRANCH   8  11
ENDBRANCH   7   8
ENDBRANCH   1   7
BRANCH   6  13
ATOM     13  N   LIG d   1      -4.160  74.987 115.980  0.00  0.00    -0.311 N 
ATOM     14  C   LIG d   1      -4.972  74.705 114.962  0.00  0.00     0.210 C 
ATOM     15  C   LIG d   1      -5.824  73.445 115.144  0.00  0.00     0.109 C 
ATOM     16  O   LIG d   1      -5.044  75.362 113.912  0.00  0.00    -0.276 OA
ATOM     17  H   LIG d   1      -4.143  74.382 116.778  0.00  0.00     0.149 HD
ENDBRANCH   6  13
BRANCH   5  18
ATOM     18  N   LIG d   1      -1.276  75.022 114.974  0.00  0.00     0.381 N 
ATOM     19  H   LIG d   1      -1.942  74.321 114.717  0.00  0.00    -0.090 HD
ATOM     20  H   LIG d   1      -0.418  74.565 115.230  0.00  0.00    -0.090 HD
ATOM     21  H   LIG d   1      -1.116  75.637 114.206  0.00  0.00    -0.090 HD
ENDBRANCH   5  18
BRANCH   3  22
ATOM     22  C   LIG d   1      -0.467  78.748 117.873  0.00  0.00     0.382 C 
ATOM     23  O   LIG d   1       0.366  79.397 117.196  0.00  0.00    -0.241 OA
ATOM     24  O   LIG d   1      -0.423  78.805 119.117  0.00  0.00    -0.241 OA
ENDBRANCH   3  22
TORSDOF 7
ENDMDL
MODEL 3
REMARK VINA RESULT:      -4.9     12.358     14.754
REMARK  7 active torsions:
REMARK  status: ('A' for Active; 'I' for Inactive)
REMARK    1  A    between atoms: C_2  and  C_3 
REMARK    2  A    between atoms: C_3  and  O_6 
REMARK    3  A    between atoms: C_3  and  C_4 
REMARK    4  A    between atoms: C_7  and  O_6 
REMARK    5  A    between atoms: C_9  and  C_10 
REMARK    6  A    between atoms: N_15  and  C_14 
REMARK    7  A    between atoms: N_20  and  C_19 
REMARK       I    between atoms: C_22  and  N_20 
ROOT
ATOM      1  C   LIG d   1      10.608  79.371 114.239  0.00  0.00     0.161 C 
ATOM      2  C   LIG d   1       9.292  79.472 114.721  0.00  0.00     0.016 C 
ATOM      3  C   LIG d   1       8.618  78.413 115.372  0.00  0.00     0.038 C 
ATOM      4  C   LIG d   1       9.272  77.223 115.722  0.00  0.00     0.028 C 
ATOM      5  C   LIG d   1      10.447  76.886 114.810  0.00  0.00    -0.047 C 
ATOM      6  C   LIG d   1      11.375  78.118 114.711  0.00  0.00     0.091 C 
ENDROOT
BRANCH   1   7
ATOM      7  O   LIG d   1      11.344  80.564 114.574  0.00  0.00    -0.368 OA
BRANCH   7   8
ATOM      8  C   LIG d   1      11.488  80.849 115.987  0.00  0.00     0.119 C 
BRANCH   8   9
ATOM      9  C   LIG d   1      11.188  82.346 116.192  0.00  0.00     0.028 C 
ATOM     10  C   LIG d   1      10.192  82.892 115.154  0.00  0.00     0.006 C 
ENDBRANCH   8   9
BRANCH   8  11
ATOM     11  C   LIG d   1      12.936  80.659 116.449  0.00  0.00     0.028 C 
ATOM     12  C   LIG d   1      13.961  81.058 115.375  0.00  0.00     0.006 C 
ENDBRANCH   8  11
ENDBRANCH   7   8
ENDBRANCH   1   7
BRANCH   6  13
ATOM     13  N   LIG d   1      12.505  77.902 113.771  0.00  0.00    -0.311 N 
ATOM     14  C   LIG d   1      13.726  77.541 114.163  0.00  0.00     0.210 C 
ATOM     15  C   LIG d   1      14.750  77.392 113.033  0.00  0.00     0.109 C 
ATOM     16  O   LIG d   1      14.049  77.298 115.335  0.00  0.00    -0.276 OA
ATOM     17  H   LIG d   1      12.323  78.047 112.797  0.00  0.00     0.149 HD
ENDBRANCH   6  13
BRANCH   5  18
ATOM     18  N   LIG d   1      11.120  75.699 115.370  0.00  0.00     0.381 N 
ATOM     19  H   LIG d   1      10.446  75.102 115.807  0.00  0.00    -0.090 HD
ATOM     20  H   LIG d   1      11.777  75.997 116.070  0.00  0.00    -0.090 HD
ATOM     21  H   LIG d   1      11.595  75.203 114.648  0.00  0.00    -0.090 HD
ENDBRANCH   5  18
BRANCH   3  22
ATOM     22  C   LIG d   1       7.263  78.525 115.644  0.00  0.00     0.382 C 
ATOM     23  O   LIG d   1       6.845  78.377 116.817  0.00  0.00    -0.241 OA
ATOM     24  O   LIG d   1       6.449  78.728 114.723  0.00  0.00    -0.241 OA
ENDBRANCH   3  22
TORSDOF 7
ENDMDL
MODEL 4
REMARK VINA RESULT:      -4.8      2.849      4.945
REMARK  7 active torsions:
REMARK  status: ('A' for Active; 'I' for Inactive)
REMARK    1  A    between atoms: C_2  and  C_3 
REMARK    2  A    between atoms: C_3  and  O_6 
REMARK    3  A    between atoms: C_3  and  C_4 
REMARK    4  A    between atoms: C_7  and  O_6 
REMARK    5  A    between atoms: C_9  and  C_10 
REMARK    6  A    between atoms: N_15  and  C_14 
REMARK    7  A    between atoms: N_20  and  C_19 
REMARK       I    between atoms: C_22  and  N_20 
ROOT
ATOM      1  C   LIG d   1      -2.456  75.518 116.598  0.00  0.00     0.161 C 
ATOM      2  C   LIG d   1      -1.442  74.818 115.923  0.00  0.00     0.016 C 
ATOM      3  C   LIG d   1      -0.866  75.261 114.709  0.00  0.00     0.038 C 
ATOM      4  C   LIG d   1      -1.162  76.519 114.164  0.00  0.00     0.028 C 
ATOM      5  C   LIG d   1      -2.547  77.032 114.541  0.00  0.00    -0.047 C 
ATOM      6  C   LIG d   1      -2.712  76.947 116.076  0.00  0.00     0.091 C 
ENDROOT
BRANCH   1   7
ATOM      7  O   LIG d   1      -2.174  75.544 118.011  0.00  0.00    -0.368 OA
BRANCH   7   8
ATOM      8  C   LIG d   1      -0.774  75.517 118.382  0.00  0.00     0.119 C 
BRANCH   8   9
ATOM      9  C   LIG d   1      -0.625  74.528 119.555  0.00  0.00     0.028 C 
ATOM     10  C   LIG d   1      -1.557  73.312 119.419  0.00  0.00     0.006 C 
ENDBRANCH   8   9
BRANCH   8  11
ATOM     11  C   LIG d   1      -0.317  76.871 118.933  0.00  0.00     0.028 C 
ATOM     12  C   LIG d   1       0.318  77.767 117.859  0.00  0.00     0.006 C 
ENDBRANCH   8  11
ENDBRANCH   7   8
ENDBRANCH   1   7
BRANCH   6  13
ATOM     13  N   LIG d   1      -4.071  77.352 116.523  0.00  0.00    -0.311 N 
ATOM     14  C   LIG d   1      -4.292  78.143 117.572  0.00  0.00     0.210 C 
ATOM     15  C   LIG d   1      -5.769  78.419 117.872  0.00  0.00     0.109 C 
ATOM     16  O   LIG d   1      -3.405  78.667 118.262  0.00  0.00    -0.276 OA
ATOM     17  H   LIG d   1      -4.848  76.997 116.000  0.00  0.00     0.149 HD
ENDBRANCH   6  13
BRANCH   5  18
ATOM     18  N   LIG d   1      -2.669  78.407 114.022  0.00  0.00     0.381 N 
ATOM     19  H   LIG d   1      -2.804  78.384 113.031  0.00  0.00    -0.090 HD
ATOM     20  H   LIG d   1      -1.817  78.904 114.213  0.00  0.00    -0.090 HD
ATOM     21  H   LIG d   1      -3.437  78.870 114.458  0.00  0.00    -0.090 HD
ENDBRANCH   5  18
BRANCH   3  22
ATOM     22  C   LIG d   1      -0.013  74.422 114.008  0.00  0.00     0.382 C 
ATOM     23  O   LIG d   1       1.218  74.433 114.253  0.00  0.00    -0.241 OA
ATOM     24  O   LIG d   1      -0.452  73.688 113.102  0.00  0.00    -0.241 OA
ENDBRANCH   3  22
TORSDOF 7
ENDMDL
MODEL 5
REMARK VINA RESULT:      -4.7      2.366      4.005
REMARK  7 active torsions:
REMARK  status: ('A' for Active; 'I' for Inactive)
REMARK    1  A    between atoms: C_2  and  C_3 
REMARK    2  A    between atoms: C_3  and  O_6 
REMARK    3  A    between atoms: C_3  and  C_4 
REMARK    4  A    between atoms: C_7  and  O_6 
REMARK    5  A    between atoms: C_9  and  C_10 
REMARK    6  A    between atoms: N_15  and  C_14 
REMARK    7  A    between atoms: N_20  and  C_19 
REMARK       I    between atoms: C_22  and  N_20 
ROOT
ATOM      1  C   LIG d   1      -2.357  75.497 116.381  0.00  0.00     0.161 C 
ATOM      2  C   LIG d   1      -3.106  76.297 117.260  0.00  0.00     0.016 C 
ATOM      3  C   LIG d   1      -2.544  77.336 118.037  0.00  0.00     0.038 C 
ATOM      4  C   LIG d   1      -1.213  77.747 117.874  0.00  0.00     0.028 C 
ATOM      5  C   LIG d   1      -0.295  76.640 117.367  0.00  0.00    -0.047 C 
ATOM      6  C   LIG d   1      -0.925  76.003 116.107  0.00  0.00     0.091 C 
ENDROOT
BRANCH   1   7
ATOM      7  O   LIG d   1      -3.074  75.328 115.142  0.00  0.00    -0.368 OA
BRANCH   7   8
ATOM      8  C   LIG d   1      -3.979  76.400 114.778  0.00  0.00     0.119 C 
BRANCH   8   9
ATOM      9  C   LIG d   1      -5.286  75.753 114.281  0.00  0.00     0.028 C 
ATOM     10  C   LIG d   1      -5.577  74.411 114.973  0.00  0.00     0.006 C 
ENDBRANCH   8   9
BRANCH   8  11
ATOM     11  C   LIG d   1      -3.444  77.200 113.587  0.00  0.00     0.028 C 
ATOM     12  C   LIG d   1      -2.462  78.306 114.005  0.00  0.00     0.006 C 
ENDBRANCH   8  11
ENDBRANCH   7   8
ENDBRANCH   1   7
BRANCH   6  13
ATOM     13  N   LIG d   1      -0.133  74.854 115.596  0.00  0.00    -0.311 N 
ATOM     14  C   LIG d   1       0.034  74.598 114.299  0.00  0.00     0.210 C 
ATOM     15  C   LIG d   1       0.870  73.353 113.989  0.00  0.00     0.109 C 
ATOM     16  O   LIG d   1      -0.405  75.302 113.377  0.00  0.00    -0.276 OA
ATOM     17  H   LIG d   1       0.285  74.249 116.275  0.00  0.00     0.149 HD
ENDBRANCH   6  13
BRANCH   5  18
ATOM     18  N   LIG d   1       1.028  77.240 117.111  0.00  0.00     0.381 N 
ATOM     19  H   LIG d   1       1.192  77.985 117.757  0.00  0.00    -0.090 HD
ATOM     20  H   LIG d   1       1.038  77.620 116.181  0.00  0.00    -0.090 HD
ATOM     21  H   LIG d   1       1.739  76.548 117.203  0.00  0.00    -0.090 HD
ENDBRANCH   5  18
BRANCH   3  22
ATOM     22  C   LIG d   1      -3.307  77.950 119.018  0.00  0.00     0.382 C 
ATOM     23  O   LIG d   1      -4.420  77.468 119.341  0.00  0.00    -0.241 OA
ATOM     24  O   LIG d   1      -2.917  79.004 119.555  0.00  0.00    -0.241 OA
ENDBRANCH   3  22
TORSDOF 7
ENDMDL
MODEL 6
REMARK VINA RESULT:      -4.7     10.862     13.657
REMARK  7 active torsions:
REMARK  status: ('A' for Active; 'I' for Inactive)
REMARK    1  A    between atoms: C_2  and  C_3 
REMARK    2  A    between atoms: C_3  and  O_6 
REMARK    3  A    between atoms: C_3  and  C_4 
REMARK    4  A    between atoms: C_7  and  O_6 
REMARK    5  A    between atoms: C_9  and  C_10 
REMARK    6  A    between atoms: N_15  and  C_14 
REMARK    7  A    between atoms: N_20  and  C_19 
REMARK       I    between atoms: C_22  and  N_20 
ROOT
ATOM      1  C   LIG d   1       2.514  87.201 115.402  0.00  0.00     0.161 C 
ATOM      2  C   LIG d   1       1.430  87.054 116.283  0.00  0.00     0.016 C 
ATOM      3  C   LIG d   1       0.967  88.088 117.128  0.00  0.00     0.038 C 
ATOM      4  C   LIG d   1       1.464  89.397 117.038  0.00  0.00     0.028 C 
ATOM      5  C   LIG d   1       2.898  89.466 116.522  0.00  0.00    -0.047 C 
ATOM      6  C   LIG d   1       2.998  88.654 115.210  0.00  0.00     0.091 C 
ENDROOT
BRANCH   1   7
ATOM      7  O   LIG d   1       2.193  86.608 114.128  0.00  0.00    -0.368 OA
BRANCH   7   8
ATOM      8  C   LIG d   1       2.090  85.163 114.106  0.00  0.00     0.119 C 
BRANCH   8   9
ATOM      9  C   LIG d   1       3.516  84.600 113.955  0.00  0.00     0.028 C 
ATOM     10  C   LIG d   1       4.291  85.266 112.805  0.00  0.00     0.006 C 
ENDBRANCH   8   9
BRANCH   8  11
ATOM     11  C   LIG d   1       1.329  84.678 112.869  0.00  0.00     0.028 C 
ATOM     12  C   LIG d   1      -0.078  84.157 113.201  0.00  0.00     0.006 C 
ENDBRANCH   8  11
ENDBRANCH   7   8
ENDBRANCH   1   7
BRANCH   6  13
ATOM     13  N   LIG d   1       4.386  88.599 114.682  0.00  0.00    -0.311 N 
ATOM     14  C   LIG d   1       4.757  89.166 113.535  0.00  0.00     0.210 C 
ATOM     15  C   LIG d   1       6.231  88.973 113.166  0.00  0.00     0.109 C 
ATOM     16  O   LIG d   1       4.013  89.838 112.805  0.00  0.00    -0.276 OA
ATOM     17  H   LIG d   1       5.062  88.101 115.227  0.00  0.00     0.149 HD
ENDBRANCH   6  13
BRANCH   5  18
ATOM     18  N   LIG d   1       3.241  90.890 116.348  0.00  0.00     0.381 N 
ATOM     19  H   LIG d   1       2.974  91.404 117.164  0.00  0.00    -0.090 HD
ATOM     20  H   LIG d   1       2.729  91.254 115.564  0.00  0.00    -0.090 HD
ATOM     21  H   LIG d   1       4.219  90.988 116.190  0.00  0.00    -0.090 HD
ENDBRANCH   5  18
BRANCH   3  22
ATOM     22  C   LIG d   1       0.021  87.808 118.103  0.00  0.00     0.382 C 
ATOM     23  O   LIG d   1       0.378  87.306 119.196  0.00  0.00    -0.241 OA
ATOM     24  O   LIG d   1      -1.188  88.011 117.887  0.00  0.00    -0.241 OA
ENDBRANCH   3  22
TORSDOF 7
ENDMDL
MODEL 7
REMARK VINA RESULT:      -4.7      2.639      5.239
REMARK  7 active torsions:
REMARK  status: ('A' for Active; 'I' for Inactive)
REMARK    1  A    between atoms: C_2  and  C_3 
REMARK    2  A    between atoms: C_3  and  O_6 
REMARK    3  A    between atoms: C_3  and  C_4 
REMARK    4  A    between atoms: C_7  and  O_6 
REMARK    5  A    between atoms: C_9  and  C_10 
REMARK    6  A    between atoms: N_15  and  C_14 
REMARK    7  A    between atoms: N_20  and  C_19 
REMARK       I    between atoms: C_22  and  N_20 
ROOT
ATOM      1  C   LIG d   1      -3.275  77.091 117.122  0.00  0.00     0.161 C 
ATOM      2  C   LIG d   1      -4.428  77.663 117.685  0.00  0.00     0.016 C 
ATOM      3  C   LIG d   1      -5.740  77.324 117.285  0.00  0.00     0.038 C 
ATOM      4  C   LIG d   1      -5.995  76.271 116.393  0.00  0.00     0.028 C 
ATOM      5  C   LIG d   1      -4.848  76.008 115.423  0.00  0.00    -0.047 C 
ATOM      6  C   LIG d   1      -3.535  75.861 116.227  0.00  0.00     0.091 C 
ENDROOT
BRANCH   1   7
ATOM      7  O   LIG d   1      -2.333  76.763 118.162  0.00  0.00    -0.368 OA
BRANCH   7   8
ATOM      8  C   LIG d   1      -1.375  77.795 118.503  0.00  0.00     0.119 C 
BRANCH   8   9
ATOM      9  C   LIG d   1      -0.588  78.136 117.223  0.00  0.00     0.028 C 
ATOM     10  C   LIG d   1       0.671  78.970 117.513  0.00  0.00     0.006 C 
ENDBRANCH   8   9
BRANCH   8  11
ATOM     11  C   LIG d   1      -0.330  77.278 119.496  0.00  0.00     0.028 C 
ATOM     12  C   LIG d   1      -0.104  75.762 119.389  0.00  0.00     0.006 C 
ENDBRANCH   8  11
ENDBRANCH   7   8
ENDBRANCH   1   7
BRANCH   6  13
ATOM     13  N   LIG d   1      -2.350  75.686 115.348  0.00  0.00    -0.311 N 
ATOM     14  C   LIG d   1      -1.371  74.819 115.601  0.00  0.00     0.210 C 
ATOM     15  C   LIG d   1      -0.232  74.812 114.577  0.00  0.00     0.109 C 
ATOM     16  O   LIG d   1      -1.354  74.032 116.560  0.00  0.00    -0.276 OA
ATOM     17  H   LIG d   1      -2.298  76.262 114.531  0.00  0.00     0.149 HD
ENDBRANCH   6  13
BRANCH   5  18
ATOM     18  N   LIG d   1      -5.189  74.802 114.647  0.00  0.00     0.381 N 
ATOM     19  H   LIG d   1      -4.754  74.000 115.058  0.00  0.00    -0.090 HD
ATOM     20  H   LIG d   1      -4.836  74.906 113.712  0.00  0.00    -0.090 HD
ATOM     21  H   LIG d   1      -6.177  74.678 114.624  0.00  0.00    -0.090 HD
ENDBRANCH   5  18
BRANCH   3  22
ATOM     22  C   LIG d   1      -6.814  78.068 117.749  0.00  0.00     0.382 C 
ATOM     23  O   LIG d   1      -6.752  79.321 117.758  0.00  0.00    -0.241 OA
ATOM     24  O   LIG d   1      -7.828  77.501 118.200  0.00  0.00    -0.241 OA
ENDBRANCH   3  22
TORSDOF 7
ENDMDL
MODEL 8
REMARK VINA RESULT:      -4.6     13.237     15.718
REMARK  7 active torsions:
REMARK  status: ('A' for Active; 'I' for Inactive)
REMARK    1  A    between atoms: C_2  and  C_3 
REMARK    2  A    between atoms: C_3  and  O_6 
REMARK    3  A    between atoms: C_3  and  C_4 
REMARK    4  A    between atoms: C_7  and  O_6 
REMARK    5  A    between atoms: C_9  and  C_10 
REMARK    6  A    between atoms: N_15  and  C_14 
REMARK    7  A    between atoms: N_20  and  C_19 
REMARK       I    between atoms: C_22  and  N_20 
ROOT
ATOM      1  C   LIG d   1       4.846  89.862 115.218  0.00  0.00     0.161 C 
ATOM      2  C   LIG d   1       3.956  89.015 114.536  0.00  0.00     0.016 C 
ATOM      3  C   LIG d   1       4.063  87.605 114.547  0.00  0.00     0.038 C 
ATOM      4  C   LIG d   1       4.983  86.937 115.368  0.00  0.00     0.028 C 
ATOM      5  C   LIG d   1       6.226  87.762 115.682  0.00  0.00    -0.047 C 
ATOM      6  C   LIG d   1       5.788  89.148 116.209  0.00  0.00     0.091 C 
ENDROOT
BRANCH   1   7
ATOM      7  O   LIG d   1       4.110  90.905 115.889  0.00  0.00    -0.368 OA
BRANCH   7   8
ATOM      8  C   LIG d   1       3.347  90.499 117.052  0.00  0.00     0.119 C 
BRANCH   8   9
ATOM      9  C   LIG d   1       1.896  90.975 116.843  0.00  0.00     0.028 C 
ATOM     10  C   LIG d   1       0.952  89.824 116.457  0.00  0.00     0.006 C 
ENDBRANCH   8   9
BRANCH   8  11
ATOM     11  C   LIG d   1       3.832  91.219 118.314  0.00  0.00     0.028 C 
ATOM     12  C   LIG d   1       4.643  92.487 118.003  0.00  0.00     0.006 C 
ENDBRANCH   8  11
ENDBRANCH   7   8
ENDBRANCH   1   7
BRANCH   6  13
ATOM     13  N   LIG d   1       6.943  90.049 116.461  0.00  0.00    -0.311 N 
ATOM     14  C   LIG d   1       7.517  90.189 117.655  0.00  0.00     0.210 C 
ATOM     15  C   LIG d   1       8.680  91.184 117.700  0.00  0.00     0.109 C 
ATOM     16  O   LIG d   1       7.194  89.558 118.673  0.00  0.00    -0.276 OA
ATOM     17  H   LIG d   1       7.289  90.575 115.683  0.00  0.00     0.149 HD
ENDBRANCH   6  13
BRANCH   5  18
ATOM     18  N   LIG d   1       7.032  87.001 116.655  0.00  0.00     0.381 N 
ATOM     19  H   LIG d   1       7.948  86.844 116.286  0.00  0.00    -0.090 HD
ATOM     20  H   LIG d   1       6.597  86.109 116.811  0.00  0.00    -0.090 HD
ATOM     21  H   LIG d   1       7.093  87.503 117.513  0.00  0.00    -0.090 HD
ENDBRANCH   5  18
BRANCH   3  22
ATOM     22  C   LIG d   1       3.268  86.850 113.697  0.00  0.00     0.382 C 
ATOM     23  O   LIG d   1       2.588  87.415 112.807  0.00  0.00    -0.241 OA
ATOM     24  O   LIG d   1       3.189  85.615 113.838  0.00  0.00    -0.241 OA
ENDBRANCH   3  22
TORSDOF 7
ENDMDL
MODEL 9
REMARK VINA RESULT:      -4.6     12.125     14.447
REMARK  7 active torsions:
REMARK  status: ('A' for Active; 'I' for Inactive)
REMARK    1  A    between atoms: C_2  and  C_3 
REMARK    2  A    between atoms: C_3  and  O_6 
REMARK    3  A    between atoms: C_3  and  C_4 
REMARK    4  A    between atoms: C_7  and  O_6 
REMARK    5  A    between atoms: C_9  and  C_10 
REMARK    6  A    between atoms: N_15  and  C_14 
REMARK    7  A    between atoms: N_20  and  C_19 
REMARK       I    between atoms: C_22  and  N_20 
ROOT
ATOM      1  C   LIG d   1      10.508  77.780 114.728  0.00  0.00     0.161 C 
ATOM      2  C   LIG d   1       9.159  78.173 114.743  0.00  0.00     0.016 C 
ATOM      3  C   LIG d   1       8.411  78.343 115.931  0.00  0.00     0.038 C 
ATOM      4  C   LIG d   1       9.008  78.276 117.198  0.00  0.00     0.028 C 
ATOM      5  C   LIG d   1      10.246  77.387 117.239  0.00  0.00    -0.047 C 
ATOM      6  C   LIG d   1      11.206  77.811 116.104  0.00  0.00     0.091 C 
ENDROOT
BRANCH   1   7
ATOM      7  O   LIG d   1      11.240  78.579 113.777  0.00  0.00    -0.368 OA
BRANCH   7   8
ATOM      8  C   LIG d   1      11.716  79.861 114.255  0.00  0.00     0.119 C 
BRANCH   8   9
ATOM      9  C   LIG d   1      10.834  80.951 113.614  0.00  0.00     0.028 C 
ATOM     10  C   LIG d   1      10.260  81.928 114.653  0.00  0.00     0.006 C 
ENDBRANCH   8   9
BRANCH   8  11
ATOM     11  C   LIG d   1      13.137  80.147 113.762  0.00  0.00     0.028 C 
ATOM     12  C   LIG d   1      13.762  78.954 113.022  0.00  0.00     0.006 C 
ENDBRANCH   8  11
ENDBRANCH   7   8
ENDBRANCH   1   7
BRANCH   6  13
ATOM     13  N   LIG d   1      12.405  76.937 116.020  0.00  0.00    -0.311 N 
ATOM     14  C   LIG d   1      13.632  77.342 116.342  0.00  0.00     0.210 C 
ATOM     15  C   LIG d   1      14.729  76.288 116.164  0.00  0.00     0.109 C 
ATOM     16  O   LIG d   1      13.911  78.465 116.790  0.00  0.00    -0.276 OA
ATOM     17  H   LIG d   1      12.265  76.000 115.695  0.00  0.00     0.149 HD
ENDBRANCH   6  13
BRANCH   5  18
ATOM     18  N   LIG d   1      10.844  77.517 118.581  0.00  0.00     0.381 N 
ATOM     19  H   LIG d   1      10.366  78.228 119.098  0.00  0.00    -0.090 HD
ATOM     20  H   LIG d   1      11.806  77.792 118.483  0.00  0.00    -0.090 HD
ATOM     21  H   LIG d   1      10.788  76.649 119.066  0.00  0.00    -0.090 HD
ENDBRANCH   5  18
BRANCH   3  22
ATOM     22  C   LIG d   1       7.041  78.543 115.857  0.00  0.00     0.382 C 
ATOM     23  O   LIG d   1       6.342  78.480 116.897  0.00  0.00    -0.241 OA
ATOM     24  O   LIG d   1       6.490  78.742 114.758  0.00  0.00    -0.241 OA
ENDBRANCH   3  22
TORSDOF 7
ENDMDL
