MODEL 1
REMARK VINA RESULT:      -5.7      0.000      0.000
REMARK  7 active torsions:
REMARK  status: ('A' for Active; 'I' for Inactive)
REMARK    1  A    between atoms: C_2  and  C_3 
REMARK    2  A    between atoms: C_3  and  O_6 
REMARK    3  A    between atoms: C_3  and  C_4 
REMARK    4  A    between atoms: C_7  and  O_6 
REMARK    5  A    between atoms: C_9  and  C_10 
REMARK    6  A    between atoms: N_15  and  C_14 
REMARK    7  A    between atoms: N_20  and  C_19 
REMARK       I    between atoms: C_22  and  N_20 
ROOT
ATOM      1  C   LIG d   1      -6.005  74.758 116.251  0.00  0.00     0.161 C 
ATOM      2  C   LIG d   1      -6.685  73.543 116.064  0.00  0.00     0.016 C 
ATOM      3  C   LIG d   1      -7.896  73.220 116.719  0.00  0.00     0.038 C 
ATOM      4  C   LIG d   1      -8.592  74.159 117.495  0.00  0.00     0.028 C 
ATOM      5  C   LIG d   1      -7.689  75.220 118.115  0.00  0.00    -0.047 C 
ATOM      6  C   LIG d   1      -6.806  75.838 117.007  0.00  0.00     0.091 C 
ENDROOT
BRANCH   1   7
ATOM      7  O   LIG d   1      -5.555  75.266 114.979  0.00  0.00    -0.368 OA
BRANCH   7   8
ATOM      8  C   LIG d   1      -4.123  75.257 114.759  0.00  0.00     0.119 C 
BRANCH   8   9
ATOM      9  C   LIG d   1      -3.472  74.570 115.976  0.00  0.00     0.028 C 
ATOM     10  C   LIG d   1      -1.938  74.528 115.875  0.00  0.00     0.006 C 
ENDBRANCH   8   9
BRANCH   8  11
ATOM     11  C   LIG d   1      -3.553  76.678 114.743  0.00  0.00     0.028 C 
ATOM     12  C   LIG d   1      -3.101  77.123 113.343  0.00  0.00     0.006 C 
ENDBRANCH   8  11
ENDBRANCH   7   8
ENDBRANCH   1   7
BRANCH   6  13
ATOM     13  N   LIG d   1      -5.834  76.826 117.542  0.00  0.00    -0.311 N 
ATOM     14  C   LIG d   1      -5.854  78.120 117.226  0.00  0.00     0.210 C 
ATOM     15  C   LIG d   1      -4.750  78.961 117.873  0.00  0.00     0.109 C 
ATOM     16  O   LIG d   1      -6.702  78.656 116.496  0.00  0.00    -0.276 OA
ATOM     17  H   LIG d   1      -5.130  76.483 118.166  0.00  0.00     0.149 HD
ENDBRANCH   6  13
BRANCH   5  18
ATOM     18  N   LIG d   1      -8.557  76.210 118.781  0.00  0.00     0.381 N 
ATOM     19  H   LIG d   1      -8.031  77.034 118.992  0.00  0.00    -0.090 HD
ATOM     20  H   LIG d   1      -8.893  75.820 119.644  0.00  0.00    -0.090 HD
ATOM     21  H   LIG d   1      -9.327  76.440 118.191  0.00  0.00    -0.090 HD
ENDBRANCH   5  18
BRANCH   3  22
ATOM     22  C   LIG d   1      -8.402  71.932 116.633  0.00  0.00     0.382 C 
ATOM     23  O   LIG d   1      -7.687  71.007 116.179  0.00  0.00    -0.241 OA
ATOM     24  O   LIG d   1      -9.579  71.693 116.961  0.00  0.00    -0.241 OA
ENDBRANCH   3  22
TORSDOF 7
ENDMDL
MODEL 2
REMARK VINA RESULT:      -5.0      2.271      4.291
REMARK  7 active torsions:
REMARK  status: ('A' for Active; 'I' for Inactive)
REMARK    1  A    between atoms: C_2  and  C_3 
REMARK    2  A    between atoms: C_3  and  O_6 
REMARK    3  A    between atoms: C_3  and  C_4 
REMARK    4  A    between atoms: C_7  and  O_6 
REMARK    5  A    between atoms: C_9  and  C_10 
REMARK    6  A    between atoms: N_15  and  C_14 
REMARK    7  A    between atoms: N_20  and  C_19 
REMARK       I    between atoms: C_22  and  N_20 
ROOT
ATOM      1  C   LIG d   1      -5.906  76.593 115.274  0.00  0.00     0.161 C 
ATOM      2  C   LIG d   1      -6.712  75.508 115.656  0.00  0.00     0.016 C 
ATOM      3  C   LIG d   1      -6.196  74.238 116.001  0.00  0.00     0.038 C 
ATOM      4  C   LIG d   1      -4.818  74.010 116.135  0.00  0.00     0.028 C 
ATOM      5  C   LIG d   1      -3.964  74.932 115.271  0.00  0.00    -0.047 C 
ATOM      6  C   LIG d   1      -4.396  76.395 115.521  0.00  0.00     0.091 C 
ENDROOT
BRANCH   1   7
ATOM      7  O   LIG d   1      -6.366  77.796 115.922  0.00  0.00    -0.368 OA
BRANCH   7   8
ATOM      8  C   LIG d   1      -6.636  77.692 117.342  0.00  0.00     0.119 C 
BRANCH   8   9
ATOM      9  C   LIG d   1      -8.066  78.214 117.581  0.00  0.00     0.028 C 
ATOM     10  C   LIG d   1      -9.043  77.093 117.973  0.00  0.00     0.006 C 
ENDBRANCH   8   9
BRANCH   8  11
ATOM     11  C   LIG d   1      -5.725  78.619 118.152  0.00  0.00     0.028 C 
ATOM     12  C   LIG d   1      -5.475  79.966 117.456  0.00  0.00     0.006 C 
ENDBRANCH   8  11
ENDBRANCH   7   8
ENDBRANCH   1   7
BRANCH   6  13
ATOM     13  N   LIG d   1      -3.668  77.357 114.653  0.00  0.00    -0.311 N 
ATOM     14  C   LIG d   1      -2.830  78.280 115.123  0.00  0.00     0.210 C 
ATOM     15  C   LIG d   1      -2.200  79.183 114.058  0.00  0.00     0.109 C 
ATOM     16  O   LIG d   1      -2.524  78.415 116.317  0.00  0.00    -0.276 OA
ATOM     17  H   LIG d   1      -3.834  77.298 113.668  0.00  0.00     0.149 HD
ENDBRANCH   6  13
BRANCH   5  18
ATOM     18  N   LIG d   1      -2.551  74.680 115.611  0.00  0.00     0.381 N 
ATOM     19  H   LIG d   1      -1.993  74.707 114.781  0.00  0.00    -0.090 HD
ATOM     20  H   LIG d   1      -2.473  73.762 116.014  0.00  0.00    -0.090 HD
ATOM     21  H   LIG d   1      -2.229  75.364 116.259  0.00  0.00    -0.090 HD
ENDBRANCH   5  18
BRANCH   3  22
ATOM     22  C   LIG d   1      -7.061  73.169 116.178  0.00  0.00     0.382 C 
ATOM     23  O   LIG d   1      -8.060  73.289 116.928  0.00  0.00    -0.241 OA
ATOM     24  O   LIG d   1      -6.831  72.073 115.633  0.00  0.00    -0.241 OA
ENDBRANCH   3  22
TORSDOF 7
ENDMDL
MODEL 3
REMARK VINA RESULT:      -4.5     12.688     16.527
REMARK  7 active torsions:
REMARK  status: ('A' for Active; 'I' for Inactive)
REMARK    1  A    between atoms: C_2  and  C_3 
REMARK    2  A    between atoms: C_3  and  O_6 
REMARK    3  A    between atoms: C_3  and  C_4 
REMARK    4  A    between atoms: C_7  and  O_6 
REMARK    5  A    between atoms: C_9  and  C_10 
REMARK    6  A    between atoms: N_15  and  C_14 
REMARK    7  A    between atoms: N_20  and  C_19 
REMARK       I    between atoms: C_22  and  N_20 
ROOT
ATOM      1  C   LIG d   1     -17.526  64.447 116.610  0.00  0.00     0.161 C 
ATOM      2  C   LIG d   1     -16.821  65.619 116.930  0.00  0.00     0.016 C 
ATOM      3  C   LIG d   1     -15.870  66.215 116.070  0.00  0.00     0.038 C 
ATOM      4  C   LIG d   1     -15.668  65.759 114.759  0.00  0.00     0.028 C 
ATOM      5  C   LIG d   1     -15.988  64.279 114.576  0.00  0.00    -0.047 C 
ATOM      6  C   LIG d   1     -17.400  63.998 115.139  0.00  0.00     0.091 C 
ENDROOT
BRANCH   1   7
ATOM      7  O   LIG d   1     -18.913  64.596 116.971  0.00  0.00    -0.368 OA
BRANCH   7   8
ATOM      8  C   LIG d   1     -19.625  65.683 116.330  0.00  0.00     0.119 C 
BRANCH   8   9
ATOM      9  C   LIG d   1     -20.358  66.471 117.434  0.00  0.00     0.028 C 
ATOM     10  C   LIG d   1     -19.790  67.888 117.618  0.00  0.00     0.006 C 
ENDBRANCH   8   9
BRANCH   8  11
ATOM     11  C   LIG d   1     -20.727  65.159 115.406  0.00  0.00     0.028 C 
ATOM     12  C   LIG d   1     -20.530  65.585 113.942  0.00  0.00     0.006 C 
ENDBRANCH   8  11
ENDBRANCH   7   8
ENDBRANCH   1   7
BRANCH   6  13
ATOM     13  N   LIG d   1     -17.758  62.557 115.076  0.00  0.00    -0.311 N 
ATOM     14  C   LIG d   1     -18.409  62.007 114.052  0.00  0.00     0.210 C 
ATOM     15  C   LIG d   1     -18.697  60.509 114.198  0.00  0.00     0.109 C 
ATOM     16  O   LIG d   1     -18.746  62.610 113.023  0.00  0.00    -0.276 OA
ATOM     17  H   LIG d   1     -17.495  61.987 115.856  0.00  0.00     0.149 HD
ENDBRANCH   6  13
BRANCH   5  18
ATOM     18  N   LIG d   1     -15.867  63.971 113.138  0.00  0.00     0.381 N 
ATOM     19  H   LIG d   1     -15.824  64.821 112.612  0.00  0.00    -0.090 HD
ATOM     20  H   LIG d   1     -16.680  63.459 112.846  0.00  0.00    -0.090 HD
ATOM     21  H   LIG d   1     -15.047  63.429 112.974  0.00  0.00    -0.090 HD
ENDBRANCH   5  18
BRANCH   3  22
ATOM     22  C   LIG d   1     -15.080  67.255 116.534  0.00  0.00     0.382 C 
ATOM     23  O   LIG d   1     -13.843  67.091 116.669  0.00  0.00    -0.241 OA
ATOM     24  O   LIG d   1     -15.594  68.341 116.862  0.00  0.00    -0.241 OA
ENDBRANCH   3  22
TORSDOF 7
ENDMDL
MODEL 4
REMARK VINA RESULT:      -4.4     11.957     15.544
REMARK  7 active torsions:
REMARK  status: ('A' for Active; 'I' for Inactive)
REMARK    1  A    between atoms: C_2  and  C_3 
REMARK    2  A    between atoms: C_3  and  O_6 
REMARK    3  A    between atoms: C_3  and  C_4 
REMARK    4  A    between atoms: C_7  and  O_6 
REMARK    5  A    between atoms: C_9  and  C_10 
REMARK    6  A    between atoms: N_15  and  C_14 
REMARK    7  A    between atoms: N_20  and  C_19 
REMARK       I    between atoms: C_22  and  N_20 
ROOT
ATOM      1  C   LIG d   1     -16.344  64.806 115.356  0.00  0.00     0.161 C 
ATOM      2  C   LIG d   1     -15.820  65.746 114.454  0.00  0.00     0.016 C 
ATOM      3  C   LIG d   1     -15.080  66.882 114.856  0.00  0.00     0.038 C 
ATOM      4  C   LIG d   1     -14.684  67.075 116.188  0.00  0.00     0.028 C 
ATOM      5  C   LIG d   1     -15.618  66.419 117.199  0.00  0.00    -0.047 C 
ATOM      6  C   LIG d   1     -15.827  64.940 116.803  0.00  0.00     0.091 C 
ENDROOT
BRANCH   1   7
ATOM      7  O   LIG d   1     -16.111  63.472 114.862  0.00  0.00    -0.368 OA
BRANCH   7   8
ATOM      8  C   LIG d   1     -17.282  62.743 114.417  0.00  0.00     0.119 C 
BRANCH   8   9
ATOM      9  C   LIG d   1     -18.476  63.716 114.459  0.00  0.00     0.028 C 
ATOM     10  C   LIG d   1     -19.127  63.906 113.078  0.00  0.00     0.006 C 
ENDBRANCH   8   9
BRANCH   8  11
ATOM     11  C   LIG d   1     -17.641  61.618 115.392  0.00  0.00     0.028 C 
ATOM     12  C   LIG d   1     -17.780  60.252 114.701  0.00  0.00     0.006 C 
ENDBRANCH   8  11
ENDBRANCH   7   8
ENDBRANCH   1   7
BRANCH   6  13
ATOM     13  N   LIG d   1     -16.796  64.246 117.693  0.00  0.00    -0.311 N 
ATOM     14  C   LIG d   1     -16.455  63.260 118.520  0.00  0.00     0.210 C 
ATOM     15  C   LIG d   1     -17.611  62.669 119.333  0.00  0.00     0.109 C 
ATOM     16  O   LIG d   1     -15.299  62.839 118.680  0.00  0.00    -0.276 OA
ATOM     17  H   LIG d   1     -17.750  64.546 117.649  0.00  0.00     0.149 HD
ENDBRANCH   6  13
BRANCH   5  18
ATOM     18  N   LIG d   1     -15.013  66.580 118.535  0.00  0.00     0.381 N 
ATOM     19  H   LIG d   1     -14.119  67.021 118.451  0.00  0.00    -0.090 HD
ATOM     20  H   LIG d   1     -14.880  65.672 118.943  0.00  0.00    -0.090 HD
ATOM     21  H   LIG d   1     -15.609  67.129 119.115  0.00  0.00    -0.090 HD
ENDBRANCH   5  18
BRANCH   3  22
ATOM     22  C   LIG d   1     -14.764  67.861 113.927  0.00  0.00     0.382 C 
ATOM     23  O   LIG d   1     -14.304  67.536 112.806  0.00  0.00    -0.241 OA
ATOM     24  O   LIG d   1     -14.890  69.067 114.211  0.00  0.00    -0.241 OA
ENDBRANCH   3  22
TORSDOF 7
ENDMDL
MODEL 5
REMARK VINA RESULT:      -4.3     13.391     15.467
REMARK  7 active torsions:
REMARK  status: ('A' for Active; 'I' for Inactive)
REMARK    1  A    between atoms: C_2  and  C_3 
REMARK    2  A    between atoms: C_3  and  O_6 
REMARK    3  A    between atoms: C_3  and  C_4 
REMARK    4  A    between atoms: C_7  and  O_6 
REMARK    5  A    between atoms: C_9  and  C_10 
REMARK    6  A    between atoms: N_15  and  C_14 
REMARK    7  A    between atoms: N_20  and  C_19 
REMARK       I    between atoms: C_22  and  N_20 
ROOT
ATOM      1  C   LIG d   1       2.486  87.144 115.241  0.00  0.00     0.161 C 
ATOM      2  C   LIG d   1       1.410  86.791 116.072  0.00  0.00     0.016 C 
ATOM      3  C   LIG d   1       0.860  87.658 117.044  0.00  0.00     0.038 C 
ATOM      4  C   LIG d   1       1.254  89.000 117.148  0.00  0.00     0.028 C 
ATOM      5  C   LIG d   1       2.682  89.251 116.674  0.00  0.00    -0.047 C 
ATOM      6  C   LIG d   1       2.857  88.642 115.264  0.00  0.00     0.091 C 
ENDROOT
BRANCH   1   7
ATOM      7  O   LIG d   1       2.223  86.713 113.891  0.00  0.00    -0.368 OA
BRANCH   7   8
ATOM      8  C   LIG d   1       3.139  85.732 113.345  0.00  0.00     0.119 C 
BRANCH   8   9
ATOM      9  C   LIG d   1       2.311  84.495 112.950  0.00  0.00     0.028 C 
ATOM     10  C   LIG d   1       0.813  84.813 112.806  0.00  0.00     0.006 C 
ENDBRANCH   8   9
BRANCH   8  11
ATOM     11  C   LIG d   1       4.125  85.238 114.408  0.00  0.00     0.028 C 
ATOM     12  C   LIG d   1       4.154  83.706 114.526  0.00  0.00     0.006 C 
ENDBRANCH   8  11
ENDBRANCH   7   8
ENDBRANCH   1   7
BRANCH   6  13
ATOM     13  N   LIG d   1       4.249  88.769 114.760  0.00  0.00    -0.311 N 
ATOM     14  C   LIG d   1       4.597  89.581 113.764  0.00  0.00     0.210 C 
ATOM     15  C   LIG d   1       6.081  89.544 113.387  0.00  0.00     0.109 C 
ATOM     16  O   LIG d   1       3.823  90.353 113.177  0.00  0.00    -0.276 OA
ATOM     17  H   LIG d   1       4.947  88.202 115.200  0.00  0.00     0.149 HD
ENDBRANCH   6  13
BRANCH   5  18
ATOM     18  N   LIG d   1       2.914  90.707 116.707  0.00  0.00     0.381 N 
ATOM     19  H   LIG d   1       2.991  91.059 115.774  0.00  0.00    -0.090 HD
ATOM     20  H   LIG d   1       3.779  90.888 117.186  0.00  0.00    -0.090 HD
ATOM     21  H   LIG d   1       2.163  91.161 117.180  0.00  0.00    -0.090 HD
ENDBRANCH   5  18
BRANCH   3  22
ATOM     22  C   LIG d   1      -0.068  87.172 117.952  0.00  0.00     0.382 C 
ATOM     23  O   LIG d   1      -0.920  87.945 118.452  0.00  0.00    -0.241 OA
ATOM     24  O   LIG d   1      -0.035  85.980 118.312  0.00  0.00    -0.241 OA
ENDBRANCH   3  22
TORSDOF 7
ENDMDL
MODEL 6
REMARK VINA RESULT:      -4.3     13.294     15.624
REMARK  7 active torsions:
REMARK  status: ('A' for Active; 'I' for Inactive)
REMARK    1  A    between atoms: C_2  and  C_3 
REMARK    2  A    between atoms: C_3  and  O_6 
REMARK    3  A    between atoms: C_3  and  C_4 
REMARK    4  A    between atoms: C_7  and  O_6 
REMARK    5  A    between atoms: C_9  and  C_10 
REMARK    6  A    between atoms: N_15  and  C_14 
REMARK    7  A    between atoms: N_20  and  C_19 
REMARK       I    between atoms: C_22  and  N_20 
ROOT
ATOM      1  C   LIG d   1       0.742  88.317 117.253  0.00  0.00     0.161 C 
ATOM      2  C   LIG d   1      -0.631  88.129 117.484  0.00  0.00     0.016 C 
ATOM      3  C   LIG d   1      -1.525  89.186 117.770  0.00  0.00     0.038 C 
ATOM      4  C   LIG d   1      -1.130  90.531 117.696  0.00  0.00     0.028 C 
ATOM      5  C   LIG d   1       0.356  90.741 117.963  0.00  0.00    -0.047 C 
ATOM      6  C   LIG d   1       1.169  89.787 117.058  0.00  0.00     0.091 C 
ENDROOT
BRANCH   1   7
ATOM      7  O   LIG d   1       1.162  87.520 116.129  0.00  0.00    -0.368 OA
BRANCH   7   8
ATOM      8  C   LIG d   1       2.233  86.576 116.381  0.00  0.00     0.119 C 
BRANCH   8   9
ATOM      9  C   LIG d   1       3.236  86.693 115.218  0.00  0.00     0.028 C 
ATOM     10  C   LIG d   1       4.697  86.615 115.693  0.00  0.00     0.006 C 
ENDBRANCH   8   9
BRANCH   8  11
ATOM     11  C   LIG d   1       1.725  85.132 116.335  0.00  0.00     0.028 C 
ATOM     12  C   LIG d   1       1.297  84.607 117.715  0.00  0.00     0.006 C 
ENDBRANCH   8  11
ENDBRANCH   7   8
ENDBRANCH   1   7
BRANCH   6  13
ATOM     13  N   LIG d   1       2.630  89.868 117.317  0.00  0.00    -0.311 N 
ATOM     14  C   LIG d   1       3.525  90.174 116.378  0.00  0.00     0.210 C 
ATOM     15  C   LIG d   1       4.981  90.184 116.852  0.00  0.00     0.109 C 
ATOM     16  O   LIG d   1       3.247  90.470 115.206  0.00  0.00    -0.276 OA
ATOM     17  H   LIG d   1       2.940  89.674 118.249  0.00  0.00     0.149 HD
ENDBRANCH   6  13
BRANCH   5  18
ATOM     18  N   LIG d   1       0.656  92.165 117.718  0.00  0.00     0.381 N 
ATOM     19  H   LIG d   1       1.624  92.273 117.490  0.00  0.00    -0.090 HD
ATOM     20  H   LIG d   1       0.469  92.685 118.557  0.00  0.00    -0.090 HD
ATOM     21  H   LIG d   1       0.091  92.509 116.972  0.00  0.00    -0.090 HD
ENDBRANCH   5  18
BRANCH   3  22
ATOM     22  C   LIG d   1      -2.820  88.901 118.174  0.00  0.00     0.382 C 
ATOM     23  O   LIG d   1      -3.025  88.034 119.057  0.00  0.00    -0.241 OA
ATOM     24  O   LIG d   1      -3.789  89.469 117.636  0.00  0.00    -0.241 OA
ENDBRANCH   3  22
TORSDOF 7
ENDMDL
MODEL 7
REMARK VINA RESULT:      -4.3     13.903     17.107
REMARK  7 active torsions:
REMARK  status: ('A' for Active; 'I' for Inactive)
REMARK    1  A    between atoms: C_2  and  C_3 
REMARK    2  A    between atoms: C_3  and  O_6 
REMARK    3  A    between atoms: C_3  and  C_4 
REMARK    4  A    between atoms: C_7  and  O_6 
REMARK    5  A    between atoms: C_9  and  C_10 
REMARK    6  A    between atoms: N_15  and  C_14 
REMARK    7  A    between atoms: N_20  and  C_19 
REMARK       I    between atoms: C_22  and  N_20 
ROOT
ATOM      1  C   LIG d   1       4.504  87.144 116.359  0.00  0.00     0.161 C 
ATOM      2  C   LIG d   1       3.785  87.749 115.315  0.00  0.00     0.016 C 
ATOM      3  C   LIG d   1       4.328  88.747 114.473  0.00  0.00     0.038 C 
ATOM      4  C   LIG d   1       5.684  89.101 114.522  0.00  0.00     0.028 C 
ATOM      5  C   LIG d   1       6.319  88.881 115.891  0.00  0.00    -0.047 C 
ATOM      6  C   LIG d   1       6.019  87.437 116.356  0.00  0.00     0.091 C 
ENDROOT
BRANCH   1   7
ATOM      7  O   LIG d   1       4.270  85.721 116.353  0.00  0.00    -0.368 OA
BRANCH   7   8
ATOM      8  C   LIG d   1       3.548  85.199 115.210  0.00  0.00     0.119 C 
BRANCH   8   9
ATOM      9  C   LIG d   1       2.497  84.205 115.741  0.00  0.00     0.028 C 
ATOM     10  C   LIG d   1       1.751  84.743 116.974  0.00  0.00     0.006 C 
ENDBRANCH   8   9
BRANCH   8  11
ATOM     11  C   LIG d   1       4.464  84.374 114.302  0.00  0.00     0.028 C 
ATOM     12  C   LIG d   1       4.254  84.677 112.810  0.00  0.00     0.006 C 
ENDBRANCH   8  11
ENDBRANCH   7   8
ENDBRANCH   1   7
BRANCH   6  13
ATOM     13  N   LIG d   1       6.533  87.165 117.724  0.00  0.00    -0.311 N 
ATOM     14  C   LIG d   1       7.724  86.619 117.965  0.00  0.00     0.210 C 
ATOM     15  C   LIG d   1       8.049  86.405 119.446  0.00  0.00     0.109 C 
ATOM     16  O   LIG d   1       8.554  86.321 117.093  0.00  0.00    -0.276 OA
ATOM     17  H   LIG d   1       5.936  87.404 118.491  0.00  0.00     0.149 HD
ENDBRANCH   6  13
BRANCH   5  18
ATOM     18  N   LIG d   1       7.762  89.159 115.763  0.00  0.00     0.381 N 
ATOM     19  H   LIG d   1       7.913  89.845 115.050  0.00  0.00    -0.090 HD
ATOM     20  H   LIG d   1       8.233  88.314 115.493  0.00  0.00    -0.090 HD
ATOM     21  H   LIG d   1       8.124  89.488 116.631  0.00  0.00    -0.090 HD
ENDBRANCH   5  18
BRANCH   3  22
ATOM     22  C   LIG d   1       3.500  89.430 113.595  0.00  0.00     0.382 C 
ATOM     23  O   LIG d   1       3.890  90.501 113.070  0.00  0.00    -0.241 OA
ATOM     24  O   LIG d   1       2.351  89.014 113.357  0.00  0.00    -0.241 OA
ENDBRANCH   3  22
TORSDOF 7
ENDMDL
MODEL 8
REMARK VINA RESULT:      -4.2     13.213     15.950
REMARK  7 active torsions:
REMARK  status: ('A' for Active; 'I' for Inactive)
REMARK    1  A    between atoms: C_2  and  C_3 
REMARK    2  A    between atoms: C_3  and  O_6 
REMARK    3  A    between atoms: C_3  and  C_4 
REMARK    4  A    between atoms: C_7  and  O_6 
REMARK    5  A    between atoms: C_9  and  C_10 
REMARK    6  A    between atoms: N_15  and  C_14 
REMARK    7  A    between atoms: N_20  and  C_19 
REMARK       I    between atoms: C_22  and  N_20 
ROOT
ATOM      1  C   LIG d   1       2.413  86.852 115.139  0.00  0.00     0.161 C 
ATOM      2  C   LIG d   1       3.241  87.525 114.225  0.00  0.00     0.016 C 
ATOM      3  C   LIG d   1       3.643  88.870 114.384  0.00  0.00     0.038 C 
ATOM      4  C   LIG d   1       3.367  89.594 115.554  0.00  0.00     0.028 C 
ATOM      5  C   LIG d   1       2.110  89.120 116.276  0.00  0.00    -0.047 C 
ATOM      6  C   LIG d   1       2.193  87.589 116.477  0.00  0.00     0.091 C 
ENDROOT
BRANCH   1   7
ATOM      7  O   LIG d   1       2.925  85.525 115.377  0.00  0.00    -0.368 OA
BRANCH   7   8
ATOM      8  C   LIG d   1       4.353  85.353 115.206  0.00  0.00     0.119 C 
BRANCH   8   9
ATOM      9  C   LIG d   1       4.577  83.992 114.520  0.00  0.00     0.028 C 
ATOM     10  C   LIG d   1       4.478  84.084 112.988  0.00  0.00     0.006 C 
ENDBRANCH   8   9
BRANCH   8  11
ATOM     11  C   LIG d   1       5.068  85.248 116.557  0.00  0.00     0.028 C 
ATOM     12  C   LIG d   1       5.841  86.525 116.923  0.00  0.00     0.006 C 
ENDBRANCH   8  11
ENDBRANCH   7   8
ENDBRANCH   1   7
BRANCH   6  13
ATOM     13  N   LIG d   1       0.965  87.032 117.101  0.00  0.00    -0.311 N 
ATOM     14  C   LIG d   1       0.970  86.341 118.239  0.00  0.00     0.210 C 
ATOM     15  C   LIG d   1      -0.403  85.839 118.698  0.00  0.00     0.109 C 
ATOM     16  O   LIG d   1       1.977  86.124 118.930  0.00  0.00    -0.276 OA
ATOM     17  H   LIG d   1       0.099  87.189 116.623  0.00  0.00     0.149 HD
ENDBRANCH   6  13
BRANCH   5  18
ATOM     18  N   LIG d   1       2.018  89.865 117.546  0.00  0.00     0.381 N 
ATOM     19  H   LIG d   1       1.060  89.945 117.823  0.00  0.00    -0.090 HD
ATOM     20  H   LIG d   1       2.384  90.791 117.407  0.00  0.00    -0.090 HD
ATOM     21  H   LIG d   1       2.538  89.397 118.254  0.00  0.00    -0.090 HD
ENDBRANCH   5  18
BRANCH   3  22
ATOM     22  C   LIG d   1       4.297  89.519 113.348  0.00  0.00     0.382 C 
ATOM     23  O   LIG d   1       5.296  88.987 112.806  0.00  0.00    -0.241 OA
ATOM     24  O   LIG d   1       3.928  90.650 112.978  0.00  0.00    -0.241 OA
ENDBRANCH   3  22
TORSDOF 7
ENDMDL
MODEL 9
REMARK VINA RESULT:      -4.2     14.272     16.153
REMARK  7 active torsions:
REMARK  status: ('A' for Active; 'I' for Inactive)
REMARK    1  A    between atoms: C_2  and  C_3 
REMARK    2  A    between atoms: C_3  and  O_6 
REMARK    3  A    between atoms: C_3  and  C_4 
REMARK    4  A    between atoms: C_7  and  O_6 
REMARK    5  A    between atoms: C_9  and  C_10 
REMARK    6  A    between atoms: N_15  and  C_14 
REMARK    7  A    between atoms: N_20  and  C_19 
REMARK       I    between atoms: C_22  and  N_20 
ROOT
ATOM      1  C   LIG d   1       3.772  86.417 115.923  0.00  0.00     0.161 C 
ATOM      2  C   LIG d   1       4.129  85.274 115.187  0.00  0.00     0.016 C 
ATOM      3  C   LIG d   1       4.060  85.204 113.777  0.00  0.00     0.038 C 
ATOM      4  C   LIG d   1       3.772  86.330 112.991  0.00  0.00     0.028 C 
ATOM      5  C   LIG d   1       2.916  87.367 113.711  0.00  0.00    -0.047 C 
ATOM      6  C   LIG d   1       3.562  87.690 115.077  0.00  0.00     0.091 C 
ENDROOT
BRANCH   1   7
ATOM      7  O   LIG d   1       4.748  86.656 116.956  0.00  0.00    -0.368 OA
BRANCH   7   8
ATOM      8  C   LIG d   1       6.089  86.972 116.506  0.00  0.00     0.119 C 
BRANCH   8   9
ATOM      9  C   LIG d   1       7.072  86.187 117.395  0.00  0.00     0.028 C 
ATOM     10  C   LIG d   1       7.288  84.746 116.902  0.00  0.00     0.006 C 
ENDBRANCH   8   9
BRANCH   8  11
ATOM     11  C   LIG d   1       6.422  88.448 116.738  0.00  0.00     0.028 C 
ATOM     12  C   LIG d   1       7.002  89.132 115.490  0.00  0.00     0.006 C 
ENDBRANCH   8  11
ENDBRANCH   7   8
ENDBRANCH   1   7
BRANCH   6  13
ATOM     13  N   LIG d   1       2.744  88.634 115.882  0.00  0.00    -0.311 N 
ATOM     14  C   LIG d   1       2.883  89.958 115.826  0.00  0.00     0.210 C 
ATOM     15  C   LIG d   1       1.953  90.746 116.753  0.00  0.00     0.109 C 
ATOM     16  O   LIG d   1       3.666  90.555 115.072  0.00  0.00    -0.276 OA
ATOM     17  H   LIG d   1       2.062  88.236 116.498  0.00  0.00     0.149 HD
ENDBRANCH   6  13
BRANCH   5  18
ATOM     18  N   LIG d   1       2.808  88.545 112.829  0.00  0.00     0.381 N 
ATOM     19  H   LIG d   1       3.368  88.409 112.012  0.00  0.00    -0.090 HD
ATOM     20  H   LIG d   1       3.156  89.351 113.319  0.00  0.00    -0.090 HD
ATOM     21  H   LIG d   1       1.858  88.691 112.569  0.00  0.00    -0.090 HD
ENDBRANCH   5  18
BRANCH   3  22
ATOM     22  C   LIG d   1       4.242  83.986 113.139  0.00  0.00     0.382 C 
ATOM     23  O   LIG d   1       3.259  83.236 112.927  0.00  0.00    -0.241 OA
ATOM     24  O   LIG d   1       5.383  83.608 112.814  0.00  0.00    -0.241 OA
ENDBRANCH   3  22
TORSDOF 7
ENDMDL
