MODEL 1
REMARK VINA RESULT:      -5.3      0.000      0.000
REMARK  7 active torsions:
REMARK  status: ('A' for Active; 'I' for Inactive)
REMARK    1  A    between atoms: C_2  and  C_3 
REMARK    2  A    between atoms: C_3  and  O_6 
REMARK    3  A    between atoms: C_3  and  C_4 
REMARK    4  A    between atoms: C_7  and  O_6 
REMARK    5  A    between atoms: C_9  and  C_10 
REMARK    6  A    between atoms: N_15  and  C_14 
REMARK    7  A    between atoms: N_20  and  C_19 
REMARK       I    between atoms: C_22  and  N_20 
ROOT
ATOM      1  C   LIG d   1      -6.693  77.309 117.430  0.00  0.00     0.161 C 
ATOM      2  C   LIG d   1      -7.996  77.677 117.804  0.00  0.00     0.016 C 
ATOM      3  C   LIG d   1      -8.413  79.020 117.954  0.00  0.00     0.038 C 
ATOM      4  C   LIG d   1      -7.589  80.097 117.592  0.00  0.00     0.028 C 
ATOM      5  C   LIG d   1      -6.100  79.781 117.692  0.00  0.00    -0.047 C 
ATOM      6  C   LIG d   1      -5.813  78.471 116.924  0.00  0.00     0.091 C 
ENDROOT
BRANCH   1   7
ATOM      7  O   LIG d   1      -6.745  76.255 116.449  0.00  0.00    -0.368 OA
BRANCH   7   8
ATOM      8  C   LIG d   1      -6.263  74.958 116.879  0.00  0.00     0.119 C 
BRANCH   8   9
ATOM      9  C   LIG d   1      -5.618  74.275 115.658  0.00  0.00     0.028 C 
ATOM     10  C   LIG d   1      -5.336  75.264 114.514  0.00  0.00     0.006 C 
ENDBRANCH   8   9
BRANCH   8  11
ATOM     11  C   LIG d   1      -7.419  74.043 117.293  0.00  0.00     0.028 C 
ATOM     12  C   LIG d   1      -7.283  72.620 116.727  0.00  0.00     0.006 C 
ENDBRANCH   8  11
ENDBRANCH   7   8
ENDBRANCH   1   7
BRANCH   6  13
ATOM     13  N   LIG d   1      -4.394  78.044 117.042  0.00  0.00    -0.311 N 
ATOM     14  C   LIG d   1      -3.535  78.064 116.024  0.00  0.00     0.210 C 
ATOM     15  C   LIG d   1      -2.126  77.564 116.356  0.00  0.00     0.109 C 
ATOM     16  O   LIG d   1      -3.798  78.478 114.885  0.00  0.00    -0.276 OA
ATOM     17  H   LIG d   1      -4.087  77.723 117.939  0.00  0.00     0.149 HD
ENDBRANCH   6  13
BRANCH   5  18
ATOM     18  N   LIG d   1      -5.362  80.940 117.155  0.00  0.00     0.381 N 
ATOM     19  H   LIG d   1      -4.470  81.010 117.604  0.00  0.00    -0.090 HD
ATOM     20  H   LIG d   1      -5.882  81.776 117.353  0.00  0.00    -0.090 HD
ATOM     21  H   LIG d   1      -5.240  80.841 116.172  0.00  0.00    -0.090 HD
ENDBRANCH   5  18
BRANCH   3  22
ATOM     22  C   LIG d   1      -9.652  79.297 118.509  0.00  0.00     0.382 C 
ATOM     23  O   LIG d   1     -10.573  78.448 118.443  0.00  0.00    -0.241 OA
ATOM     24  O   LIG d   1      -9.875  80.403 119.037  0.00  0.00    -0.241 OA
ENDBRANCH   3  22
TORSDOF 7
ENDMDL
MODEL 2
REMARK VINA RESULT:      -4.9      1.229      1.735
REMARK  7 active torsions:
REMARK  status: ('A' for Active; 'I' for Inactive)
REMARK    1  A    between atoms: C_2  and  C_3 
REMARK    2  A    between atoms: C_3  and  O_6 
REMARK    3  A    between atoms: C_3  and  C_4 
REMARK    4  A    between atoms: C_7  and  O_6 
REMARK    5  A    between atoms: C_9  and  C_10 
REMARK    6  A    between atoms: N_15  and  C_14 
REMARK    7  A    between atoms: N_20  and  C_19 
REMARK       I    between atoms: C_22  and  N_20 
ROOT
ATOM      1  C   LIG d   1      -6.446  78.175 117.376  0.00  0.00     0.161 C 
ATOM      2  C   LIG d   1      -7.817  78.332 117.640  0.00  0.00     0.016 C 
ATOM      3  C   LIG d   1      -8.419  79.582 117.910  0.00  0.00     0.038 C 
ATOM      4  C   LIG d   1      -7.713  80.788 117.784  0.00  0.00     0.028 C 
ATOM      5  C   LIG d   1      -6.213  80.638 118.015  0.00  0.00    -0.047 C 
ATOM      6  C   LIG d   1      -5.681  79.492 117.126  0.00  0.00     0.091 C 
ENDROOT
BRANCH   1   7
ATOM      7  O   LIG d   1      -6.261  77.270 116.270  0.00  0.00    -0.368 OA
BRANCH   7   8
ATOM      8  C   LIG d   1      -6.103  75.871 116.611  0.00  0.00     0.119 C 
BRANCH   8   9
ATOM      9  C   LIG d   1      -5.173  75.795 117.837  0.00  0.00     0.028 C 
ATOM     10  C   LIG d   1      -3.732  75.412 117.457  0.00  0.00     0.006 C 
ENDBRANCH   8   9
BRANCH   8  11
ATOM     11  C   LIG d   1      -5.375  75.106 115.501  0.00  0.00     0.028 C 
ATOM     12  C   LIG d   1      -5.438  75.823 114.143  0.00  0.00     0.006 C 
ENDBRANCH   8  11
ENDBRANCH   7   8
ENDBRANCH   1   7
BRANCH   6  13
ATOM     13  N   LIG d   1      -4.237  79.223 117.352  0.00  0.00    -0.311 N 
ATOM     14  C   LIG d   1      -3.370  78.995 116.367  0.00  0.00     0.210 C 
ATOM     15  C   LIG d   1      -1.933  78.720 116.821  0.00  0.00     0.109 C 
ATOM     16  O   LIG d   1      -3.648  79.027 115.159  0.00  0.00    -0.276 OA
ATOM     17  H   LIG d   1      -3.918  79.210 118.302  0.00  0.00     0.149 HD
ENDBRANCH   6  13
BRANCH   5  18
ATOM     18  N   LIG d   1      -5.585  81.940 117.719  0.00  0.00     0.381 N 
ATOM     19  H   LIG d   1      -5.448  82.033 116.732  0.00  0.00    -0.090 HD
ATOM     20  H   LIG d   1      -4.686  81.976 118.167  0.00  0.00    -0.090 HD
ATOM     21  H   LIG d   1      -6.161  82.681 118.053  0.00  0.00    -0.090 HD
ENDBRANCH   5  18
BRANCH   3  22
ATOM     22  C   LIG d   1      -9.733  79.631 118.349  0.00  0.00     0.382 C 
ATOM     23  O   LIG d   1     -10.411  78.577 118.418  0.00  0.00    -0.241 OA
ATOM     24  O   LIG d   1     -10.264  80.721 118.634  0.00  0.00    -0.241 OA
ENDBRANCH   3  22
TORSDOF 7
ENDMDL
MODEL 3
REMARK VINA RESULT:      -4.9      1.466      1.861
REMARK  7 active torsions:
REMARK  status: ('A' for Active; 'I' for Inactive)
REMARK    1  A    between atoms: C_2  and  C_3 
REMARK    2  A    between atoms: C_3  and  O_6 
REMARK    3  A    between atoms: C_3  and  C_4 
REMARK    4  A    between atoms: C_7  and  O_6 
REMARK    5  A    between atoms: C_9  and  C_10 
REMARK    6  A    between atoms: N_15  and  C_14 
REMARK    7  A    between atoms: N_20  and  C_19 
REMARK       I    between atoms: C_22  and  N_20 
ROOT
ATOM      1  C   LIG d   1      -6.466  78.486 117.455  0.00  0.00     0.161 C 
ATOM      2  C   LIG d   1      -7.833  78.471 117.776  0.00  0.00     0.016 C 
ATOM      3  C   LIG d   1      -8.560  79.629 118.137  0.00  0.00     0.038 C 
ATOM      4  C   LIG d   1      -8.000  80.912 118.054  0.00  0.00     0.028 C 
ATOM      5  C   LIG d   1      -6.484  80.924 118.221  0.00  0.00    -0.047 C 
ATOM      6  C   LIG d   1      -5.865  79.892 117.251  0.00  0.00     0.091 C 
ENDROOT
BRANCH   1   7
ATOM      7  O   LIG d   1      -6.228  77.666 116.294  0.00  0.00    -0.368 OA
BRANCH   7   8
ATOM      8  C   LIG d   1      -5.444  76.467 116.510  0.00  0.00     0.119 C 
BRANCH   8   9
ATOM      9  C   LIG d   1      -4.719  76.143 115.189  0.00  0.00     0.028 C 
ATOM     10  C   LIG d   1      -3.705  77.230 114.794  0.00  0.00     0.006 C 
ENDBRANCH   8   9
BRANCH   8  11
ATOM     11  C   LIG d   1      -6.341  75.257 116.788  0.00  0.00     0.028 C 
ATOM     12  C   LIG d   1      -5.811  73.964 116.149  0.00  0.00     0.006 C 
ENDBRANCH   8  11
ENDBRANCH   7   8
ENDBRANCH   1   7
BRANCH   6  13
ATOM     13  N   LIG d   1      -4.391  79.779 117.409  0.00  0.00    -0.311 N 
ATOM     14  C   LIG d   1      -3.520  80.481 116.687  0.00  0.00     0.210 C 
ATOM     15  C   LIG d   1      -2.047  80.198 116.996  0.00  0.00     0.109 C 
ATOM     16  O   LIG d   1      -3.828  81.336 115.842  0.00  0.00    -0.276 OA
ATOM     17  H   LIG d   1      -4.055  79.132 118.095  0.00  0.00     0.149 HD
ENDBRANCH   6  13
BRANCH   5  18
ATOM     18  N   LIG d   1      -6.019  82.302 117.975  0.00  0.00     0.381 N 
ATOM     19  H   LIG d   1      -6.516  82.938 118.566  0.00  0.00    -0.090 HD
ATOM     20  H   LIG d   1      -6.212  82.544 117.019  0.00  0.00    -0.090 HD
ATOM     21  H   LIG d   1      -5.041  82.368 118.151  0.00  0.00    -0.090 HD
ENDBRANCH   5  18
BRANCH   3  22
ATOM     22  C   LIG d   1      -9.852  79.505 118.625  0.00  0.00     0.382 C 
ATOM     23  O   LIG d   1     -10.338  80.407 119.349  0.00  0.00    -0.241 OA
ATOM     24  O   LIG d   1     -10.521  78.481 118.388  0.00  0.00    -0.241 OA
ENDBRANCH   3  22
TORSDOF 7
ENDMDL
MODEL 4
REMARK VINA RESULT:      -4.7     15.313     18.149
REMARK  7 active torsions:
REMARK  status: ('A' for Active; 'I' for Inactive)
REMARK    1  A    between atoms: C_2  and  C_3 
REMARK    2  A    between atoms: C_3  and  O_6 
REMARK    3  A    between atoms: C_3  and  C_4 
REMARK    4  A    between atoms: C_7  and  O_6 
REMARK    5  A    between atoms: C_9  and  C_10 
REMARK    6  A    between atoms: N_15  and  C_14 
REMARK    7  A    between atoms: N_20  and  C_19 
REMARK       I    between atoms: C_22  and  N_20 
ROOT
ATOM      1  C   LIG d   1      11.119  77.416 115.289  0.00  0.00     0.161 C 
ATOM      2  C   LIG d   1       9.747  77.720 115.281  0.00  0.00     0.016 C 
ATOM      3  C   LIG d   1       9.224  78.941 114.798  0.00  0.00     0.038 C 
ATOM      4  C   LIG d   1      10.029  79.887 114.147  0.00  0.00     0.028 C 
ATOM      5  C   LIG d   1      11.489  79.844 114.585  0.00  0.00    -0.047 C 
ATOM      6  C   LIG d   1      12.002  78.390 114.480  0.00  0.00     0.091 C 
ENDROOT
BRANCH   1   7
ATOM      7  O   LIG d   1      11.322  76.062 114.837  0.00  0.00    -0.368 OA
BRANCH   7   8
ATOM      8  C   LIG d   1      11.587  75.079 115.867  0.00  0.00     0.119 C 
BRANCH   8   9
ATOM      9  C   LIG d   1      13.058  74.641 115.722  0.00  0.00     0.028 C 
ATOM     10  C   LIG d   1      13.937  75.144 116.879  0.00  0.00     0.006 C 
ENDBRANCH   8   9
BRANCH   8  11
ATOM     11  C   LIG d   1      10.762  73.807 115.650  0.00  0.00     0.028 C 
ATOM     12  C   LIG d   1      11.616  72.614 115.193  0.00  0.00     0.006 C 
ENDBRANCH   8  11
ENDBRANCH   7   8
ENDBRANCH   1   7
BRANCH   6  13
ATOM     13  N   LIG d   1      13.397  78.244 114.970  0.00  0.00    -0.311 N 
ATOM     14  C   LIG d   1      14.419  77.909 114.184  0.00  0.00     0.210 C 
ATOM     15  C   LIG d   1      15.771  77.794 114.895  0.00  0.00     0.109 C 
ATOM     16  O   LIG d   1      14.340  77.728 112.960  0.00  0.00    -0.276 OA
ATOM     17  H   LIG d   1      13.557  78.403 115.946  0.00  0.00     0.149 HD
ENDBRANCH   6  13
BRANCH   5  18
ATOM     18  N   LIG d   1      12.239  80.784 113.730  0.00  0.00     0.381 N 
ATOM     19  H   LIG d   1      12.215  81.700 114.132  0.00  0.00    -0.090 HD
ATOM     20  H   LIG d   1      11.799  80.824 112.828  0.00  0.00    -0.090 HD
ATOM     21  H   LIG d   1      13.182  80.480 113.635  0.00  0.00    -0.090 HD
ENDBRANCH   5  18
BRANCH   3  22
ATOM     22  C   LIG d   1       7.886  79.243 115.001  0.00  0.00     0.382 C 
ATOM     23  O   LIG d   1       7.560  80.107 115.851  0.00  0.00    -0.241 OA
ATOM     24  O   LIG d   1       6.998  78.631 114.377  0.00  0.00    -0.241 OA
ENDBRANCH   3  22
TORSDOF 7
ENDMDL
MODEL 5
REMARK VINA RESULT:      -4.7     12.611     14.777
REMARK  7 active torsions:
REMARK  status: ('A' for Active; 'I' for Inactive)
REMARK    1  A    between atoms: C_2  and  C_3 
REMARK    2  A    between atoms: C_3  and  O_6 
REMARK    3  A    between atoms: C_3  and  C_4 
REMARK    4  A    between atoms: C_7  and  O_6 
REMARK    5  A    between atoms: C_9  and  C_10 
REMARK    6  A    between atoms: N_15  and  C_14 
REMARK    7  A    between atoms: N_20  and  C_19 
REMARK       I    between atoms: C_22  and  N_20 
ROOT
ATOM      1  C   LIG d   1       2.260  87.866 115.834  0.00  0.00     0.161 C 
ATOM      2  C   LIG d   1       2.137  89.250 116.038  0.00  0.00     0.016 C 
ATOM      3  C   LIG d   1       2.964  89.984 116.919  0.00  0.00     0.038 C 
ATOM      4  C   LIG d   1       4.076  89.404 117.548  0.00  0.00     0.028 C 
ATOM      5  C   LIG d   1       3.934  87.901 117.764  0.00  0.00    -0.047 C 
ATOM      6  C   LIG d   1       3.538  87.236 116.426  0.00  0.00     0.091 C 
ENDROOT
BRANCH   1   7
ATOM      7  O   LIG d   1       2.160  87.568 114.427  0.00  0.00    -0.368 OA
BRANCH   7   8
ATOM      8  C   LIG d   1       3.411  87.339 113.734  0.00  0.00     0.119 C 
BRANCH   8   9
ATOM      9  C   LIG d   1       3.654  88.544 112.806  0.00  0.00     0.028 C 
ATOM     10  C   LIG d   1       4.652  89.552 113.401  0.00  0.00     0.006 C 
ENDBRANCH   8   9
BRANCH   8  11
ATOM     11  C   LIG d   1       3.319  86.124 112.806  0.00  0.00     0.028 C 
ATOM     12  C   LIG d   1       2.162  85.181 113.171  0.00  0.00     0.006 C 
ENDBRANCH   8  11
ENDBRANCH   7   8
ENDBRANCH   1   7
BRANCH   6  13
ATOM     13  N   LIG d   1       3.297  85.777 116.568  0.00  0.00    -0.311 N 
ATOM     14  C   LIG d   1       4.206  84.851 116.267  0.00  0.00     0.210 C 
ATOM     15  C   LIG d   1       3.745  83.404 116.467  0.00  0.00     0.109 C 
ATOM     16  O   LIG d   1       5.361  85.091 115.885  0.00  0.00    -0.276 OA
ATOM     17  H   LIG d   1       2.396  85.494 116.901  0.00  0.00     0.149 HD
ENDBRANCH   6  13
BRANCH   5  18
ATOM     18  N   LIG d   1       5.216  87.405 118.300  0.00  0.00     0.381 N 
ATOM     19  H   LIG d   1       5.791  88.177 118.571  0.00  0.00    -0.090 HD
ATOM     20  H   LIG d   1       5.693  86.894 117.578  0.00  0.00    -0.090 HD
ATOM     21  H   LIG d   1       5.051  86.813 119.084  0.00  0.00    -0.090 HD
ENDBRANCH   5  18
BRANCH   3  22
ATOM     22  C   LIG d   1       2.657  91.304 117.211  0.00  0.00     0.382 C 
ATOM     23  O   LIG d   1       1.539  91.594 117.702  0.00  0.00    -0.241 OA
ATOM     24  O   LIG d   1       3.466  92.214 116.948  0.00  0.00    -0.241 OA
ENDBRANCH   3  22
TORSDOF 7
ENDMDL
MODEL 6
REMARK VINA RESULT:      -4.5     13.965     17.020
REMARK  7 active torsions:
REMARK  status: ('A' for Active; 'I' for Inactive)
REMARK    1  A    between atoms: C_2  and  C_3 
REMARK    2  A    between atoms: C_3  and  O_6 
REMARK    3  A    between atoms: C_3  and  C_4 
REMARK    4  A    between atoms: C_7  and  O_6 
REMARK    5  A    between atoms: C_9  and  C_10 
REMARK    6  A    between atoms: N_15  and  C_14 
REMARK    7  A    between atoms: N_20  and  C_19 
REMARK       I    between atoms: C_22  and  N_20 
ROOT
ATOM      1  C   LIG d   1     -16.221  64.319 116.458  0.00  0.00     0.161 C 
ATOM      2  C   LIG d   1     -15.616  65.452 117.026  0.00  0.00     0.016 C 
ATOM      3  C   LIG d   1     -15.455  66.676 116.336  0.00  0.00     0.038 C 
ATOM      4  C   LIG d   1     -16.029  66.898 115.076  0.00  0.00     0.028 C 
ATOM      5  C   LIG d   1     -16.211  65.622 114.260  0.00  0.00    -0.047 C 
ATOM      6  C   LIG d   1     -16.952  64.576 115.123  0.00  0.00     0.091 C 
ENDROOT
BRANCH   1   7
ATOM      7  O   LIG d   1     -17.116  63.713 117.411  0.00  0.00    -0.368 OA
BRANCH   7   8
ATOM      8  C   LIG d   1     -18.384  64.386 117.611  0.00  0.00     0.119 C 
BRANCH   8   9
ATOM      9  C   LIG d   1     -18.425  64.873 119.072  0.00  0.00     0.028 C 
ATOM     10  C   LIG d   1     -18.556  66.402 119.178  0.00  0.00     0.006 C 
ENDBRANCH   8   9
BRANCH   8  11
ATOM     11  C   LIG d   1     -19.559  63.413 117.475  0.00  0.00     0.028 C 
ATOM     12  C   LIG d   1     -19.107  61.965 117.225  0.00  0.00     0.006 C 
ENDBRANCH   8  11
ENDBRANCH   7   8
ENDBRANCH   1   7
BRANCH   6  13
ATOM     13  N   LIG d   1     -17.096  63.269 114.431  0.00  0.00    -0.311 N 
ATOM     14  C   LIG d   1     -18.194  62.907 113.769  0.00  0.00     0.210 C 
ATOM     15  C   LIG d   1     -18.142  61.510 113.144  0.00  0.00     0.109 C 
ATOM     16  O   LIG d   1     -19.194  63.624 113.613  0.00  0.00    -0.276 OA
ATOM     17  H   LIG d   1     -16.320  62.638 114.480  0.00  0.00     0.149 HD
ENDBRANCH   6  13
BRANCH   5  18
ATOM     18  N   LIG d   1     -16.943  65.980 113.030  0.00  0.00     0.381 N 
ATOM     19  H   LIG d   1     -16.520  66.781 112.606  0.00  0.00    -0.090 HD
ATOM     20  H   LIG d   1     -17.890  66.213 113.272  0.00  0.00    -0.090 HD
ATOM     21  H   LIG d   1     -16.934  65.214 112.393  0.00  0.00    -0.090 HD
ENDBRANCH   5  18
BRANCH   3  22
ATOM     22  C   LIG d   1     -14.680  67.682 116.893  0.00  0.00     0.382 C 
ATOM     23  O   LIG d   1     -13.552  67.944 116.409  0.00  0.00    -0.241 OA
ATOM     24  O   LIG d   1     -15.074  68.300 117.900  0.00  0.00    -0.241 OA
ENDBRANCH   3  22
TORSDOF 7
ENDMDL
MODEL 7
REMARK VINA RESULT:      -4.5     15.017     18.606
REMARK  7 active torsions:
REMARK  status: ('A' for Active; 'I' for Inactive)
REMARK    1  A    between atoms: C_2  and  C_3 
REMARK    2  A    between atoms: C_3  and  O_6 
REMARK    3  A    between atoms: C_3  and  C_4 
REMARK    4  A    between atoms: C_7  and  O_6 
REMARK    5  A    between atoms: C_9  and  C_10 
REMARK    6  A    between atoms: N_15  and  C_14 
REMARK    7  A    between atoms: N_20  and  C_19 
REMARK       I    between atoms: C_22  and  N_20 
ROOT
ATOM      1  C   LIG d   1      11.212  79.808 114.154  0.00  0.00     0.161 C 
ATOM      2  C   LIG d   1       9.862  80.026 114.478  0.00  0.00     0.016 C 
ATOM      3  C   LIG d   1       9.011  79.016 114.984  0.00  0.00     0.038 C 
ATOM      4  C   LIG d   1       9.496  77.750 115.345  0.00  0.00     0.028 C 
ATOM      5  C   LIG d   1      10.737  77.331 114.564  0.00  0.00    -0.047 C 
ATOM      6  C   LIG d   1      11.786  78.463 114.645  0.00  0.00     0.091 C 
ENDROOT
BRANCH   1   7
ATOM      7  O   LIG d   1      12.014  80.903 114.640  0.00  0.00    -0.368 OA
BRANCH   7   8
ATOM      8  C   LIG d   1      12.576  80.742 115.965  0.00  0.00     0.119 C 
BRANCH   8   9
ATOM      9  C   LIG d   1      11.948  81.820 116.869  0.00  0.00     0.028 C 
ATOM     10  C   LIG d   1      10.935  81.233 117.866  0.00  0.00     0.006 C 
ENDBRANCH   8   9
BRANCH   8  11
ATOM     11  C   LIG d   1      14.080  81.033 115.972  0.00  0.00     0.028 C 
ATOM     12  C   LIG d   1      14.614  81.439 114.589  0.00  0.00     0.006 C 
ENDBRANCH   8  11
ENDBRANCH   7   8
ENDBRANCH   1   7
BRANCH   6  13
ATOM     13  N   LIG d   1      12.999  78.170 113.837  0.00  0.00    -0.311 N 
ATOM     14  C   LIG d   1      14.113  77.650 114.349  0.00  0.00     0.210 C 
ATOM     15  C   LIG d   1      15.252  77.446 113.346  0.00  0.00     0.109 C 
ATOM     16  O   LIG d   1      14.254  77.307 115.533  0.00  0.00    -0.276 OA
ATOM     17  H   LIG d   1      12.961  78.388 112.861  0.00  0.00     0.149 HD
ENDBRANCH   6  13
BRANCH   5  18
ATOM     18  N   LIG d   1      11.214  76.058 115.135  0.00  0.00     0.381 N 
ATOM     19  H   LIG d   1      12.214  76.029 115.110  0.00  0.00    -0.090 HD
ATOM     20  H   LIG d   1      10.863  75.299 114.577  0.00  0.00    -0.090 HD
ATOM     21  H   LIG d   1      10.895  75.965 116.074  0.00  0.00    -0.090 HD
ENDBRANCH   5  18
BRANCH   3  22
ATOM     22  C   LIG d   1       7.650  79.257 115.096  0.00  0.00     0.382 C 
ATOM     23  O   LIG d   1       6.846  78.683 114.323  0.00  0.00    -0.241 OA
ATOM     24  O   LIG d   1       7.221  80.076 115.932  0.00  0.00    -0.241 OA
ENDBRANCH   3  22
TORSDOF 7
ENDMDL
MODEL 8
REMARK VINA RESULT:      -4.5     10.945     13.672
REMARK  7 active torsions:
REMARK  status: ('A' for Active; 'I' for Inactive)
REMARK    1  A    between atoms: C_2  and  C_3 
REMARK    2  A    between atoms: C_3  and  O_6 
REMARK    3  A    between atoms: C_3  and  C_4 
REMARK    4  A    between atoms: C_7  and  O_6 
REMARK    5  A    between atoms: C_9  and  C_10 
REMARK    6  A    between atoms: N_15  and  C_14 
REMARK    7  A    between atoms: N_20  and  C_19 
REMARK       I    between atoms: C_22  and  N_20 
ROOT
ATOM      1  C   LIG d   1       2.960  86.171 115.329  0.00  0.00     0.161 C 
ATOM      2  C   LIG d   1       3.034  87.357 114.580  0.00  0.00     0.016 C 
ATOM      3  C   LIG d   1       4.116  88.264 114.662  0.00  0.00     0.038 C 
ATOM      4  C   LIG d   1       5.277  87.968 115.392  0.00  0.00     0.028 C 
ATOM      5  C   LIG d   1       5.032  87.020 116.561  0.00  0.00    -0.047 C 
ATOM      6  C   LIG d   1       4.268  85.778 116.047  0.00  0.00     0.091 C 
ENDROOT
BRANCH   1   7
ATOM      7  O   LIG d   1       2.504  85.091 114.491  0.00  0.00    -0.368 OA
BRANCH   7   8
ATOM      8  C   LIG d   1       1.137  84.659 114.696  0.00  0.00     0.119 C 
BRANCH   8   9
ATOM      9  C   LIG d   1       0.297  85.209 113.527  0.00  0.00     0.028 C 
ATOM     10  C   LIG d   1      -1.196  85.322 113.879  0.00  0.00     0.006 C 
ENDBRANCH   8   9
BRANCH   8  11
ATOM     11  C   LIG d   1       0.537  85.287 115.957  0.00  0.00     0.028 C 
ATOM     12  C   LIG d   1       0.306  84.265 117.081  0.00  0.00     0.006 C 
ENDBRANCH   8  11
ENDBRANCH   7   8
ENDBRANCH   1   7
BRANCH   6  13
ATOM     13  N   LIG d   1       3.914  84.837 117.142  0.00  0.00    -0.311 N 
ATOM     14  C   LIG d   1       4.184  83.533 117.104  0.00  0.00     0.210 C 
ATOM     15  C   LIG d   1       3.716  82.740 118.329  0.00  0.00     0.109 C 
ATOM     16  O   LIG d   1       4.795  82.964 116.188  0.00  0.00    -0.276 OA
ATOM     17  H   LIG d   1       3.444  85.220 117.939  0.00  0.00     0.149 HD
ENDBRANCH   6  13
BRANCH   5  18
ATOM     18  N   LIG d   1       6.344  86.689 117.148  0.00  0.00     0.381 N 
ATOM     19  H   LIG d   1       7.075  87.068 116.580  0.00  0.00    -0.090 HD
ATOM     20  H   LIG d   1       6.448  85.690 117.171  0.00  0.00    -0.090 HD
ATOM     21  H   LIG d   1       6.407  87.058 118.072  0.00  0.00    -0.090 HD
ENDBRANCH   5  18
BRANCH   3  22
ATOM     22  C   LIG d   1       4.026  89.500 114.040  0.00  0.00     0.382 C 
ATOM     23  O   LIG d   1       4.042  90.550 114.727  0.00  0.00    -0.241 OA
ATOM     24  O   LIG d   1       3.883  89.577 112.805  0.00  0.00    -0.241 OA
ENDBRANCH   3  22
TORSDOF 7
ENDMDL
MODEL 9
REMARK VINA RESULT:      -4.4      4.723      7.005
REMARK  7 active torsions:
REMARK  status: ('A' for Active; 'I' for Inactive)
REMARK    1  A    between atoms: C_2  and  C_3 
REMARK    2  A    between atoms: C_3  and  O_6 
REMARK    3  A    between atoms: C_3  and  C_4 
REMARK    4  A    between atoms: C_7  and  O_6 
REMARK    5  A    between atoms: C_9  and  C_10 
REMARK    6  A    between atoms: N_15  and  C_14 
REMARK    7  A    between atoms: N_20  and  C_19 
REMARK       I    between atoms: C_22  and  N_20 
ROOT
ATOM      1  C   LIG d   1      -1.491  77.662 115.279  0.00  0.00     0.161 C 
ATOM      2  C   LIG d   1      -2.805  77.367 114.881  0.00  0.00     0.016 C 
ATOM      3  C   LIG d   1      -3.419  76.111 115.092  0.00  0.00     0.038 C 
ATOM      4  C   LIG d   1      -2.807  75.106 115.856  0.00  0.00     0.028 C 
ATOM      5  C   LIG d   1      -1.284  75.179 115.844  0.00  0.00    -0.047 C 
ATOM      6  C   LIG d   1      -0.847  76.615 116.212  0.00  0.00     0.091 C 
ENDROOT
BRANCH   1   7
ATOM      7  O   LIG d   1      -1.446  78.969 115.885  0.00  0.00    -0.368 OA
BRANCH   7   8
ATOM      8  C   LIG d   1      -2.098  80.035 115.152  0.00  0.00     0.119 C 
BRANCH   8   9
ATOM      9  C   LIG d   1      -1.001  80.830 114.418  0.00  0.00     0.028 C 
ATOM     10  C   LIG d   1      -0.900  80.455 112.930  0.00  0.00     0.006 C 
ENDBRANCH   8   9
BRANCH   8  11
ATOM     11  C   LIG d   1      -2.762  81.038 116.100  0.00  0.00     0.028 C 
ATOM     12  C   LIG d   1      -2.766  82.471 115.543  0.00  0.00     0.006 C 
ENDBRANCH   8  11
ENDBRANCH   7   8
ENDBRANCH   1   7
BRANCH   6  13
ATOM     13  N   LIG d   1       0.626  76.796 116.142  0.00  0.00    -0.311 N 
ATOM     14  C   LIG d   1       1.357  77.258 117.154  0.00  0.00     0.210 C 
ATOM     15  C   LIG d   1       2.856  77.386 116.864  0.00  0.00     0.109 C 
ATOM     16  O   LIG d   1       0.912  77.545 118.276  0.00  0.00    -0.276 OA
ATOM     17  H   LIG d   1       1.074  76.558 115.278  0.00  0.00     0.149 HD
ENDBRANCH   6  13
BRANCH   5  18
ATOM     18  N   LIG d   1      -0.781  74.162 116.788  0.00  0.00     0.381 N 
ATOM     19  H   LIG d   1      -1.481  73.962 117.474  0.00  0.00    -0.090 HD
ATOM     20  H   LIG d   1       0.028  74.528 117.259  0.00  0.00    -0.090 HD
ATOM     21  H   LIG d   1      -0.541  73.330 116.296  0.00  0.00    -0.090 HD
ENDBRANCH   5  18
BRANCH   3  22
ATOM     22  C   LIG d   1      -4.643  75.836 114.502  0.00  0.00     0.382 C 
ATOM     23  O   LIG d   1      -4.888  76.253 113.344  0.00  0.00    -0.241 OA
ATOM     24  O   LIG d   1      -5.521  75.214 115.128  0.00  0.00    -0.241 OA
ENDBRANCH   3  22
TORSDOF 7
ENDMDL
