MODEL 1
REMARK VINA RESULT:      -5.4      0.000      0.000
REMARK  7 active torsions:
REMARK  status: ('A' for Active; 'I' for Inactive)
REMARK    1  A    between atoms: C_2  and  C_3 
REMARK    2  A    between atoms: C_3  and  O_6 
REMARK    3  A    between atoms: C_3  and  C_4 
REMARK    4  A    between atoms: C_7  and  O_6 
REMARK    5  A    between atoms: C_9  and  C_10 
REMARK    6  A    between atoms: N_15  and  C_14 
REMARK    7  A    between atoms: N_20  and  C_19 
REMARK       I    between atoms: C_22  and  N_20 
ROOT
ATOM      1  C   LIG d   1      -2.557  74.480 116.281  0.00  0.00     0.161 C 
ATOM      2  C   LIG d   1      -3.135  75.360 117.211  0.00  0.00     0.016 C 
ATOM      3  C   LIG d   1      -2.452  76.469 117.762  0.00  0.00     0.038 C 
ATOM      4  C   LIG d   1      -1.187  76.863 117.302  0.00  0.00     0.028 C 
ATOM      5  C   LIG d   1      -0.364  75.713 116.730  0.00  0.00    -0.047 C 
ATOM      6  C   LIG d   1      -1.217  74.959 115.684  0.00  0.00     0.091 C 
ENDROOT
BRANCH   1   7
ATOM      7  O   LIG d   1      -3.500  74.194 115.229  0.00  0.00    -0.368 OA
BRANCH   7   8
ATOM      8  C   LIG d   1      -4.868  74.607 115.469  0.00  0.00     0.119 C 
BRANCH   8   9
ATOM      9  C   LIG d   1      -5.722  73.330 115.589  0.00  0.00     0.028 C 
ATOM     10  C   LIG d   1      -6.451  73.237 116.940  0.00  0.00     0.006 C 
ENDBRANCH   8   9
BRANCH   8  11
ATOM     11  C   LIG d   1      -5.440  75.366 114.268  0.00  0.00     0.028 C 
ATOM     12  C   LIG d   1      -6.825  75.969 114.549  0.00  0.00     0.006 C 
ENDBRANCH   8  11
ENDBRANCH   7   8
ENDBRANCH   1   7
BRANCH   6  13
ATOM     13  N   LIG d   1      -0.518  73.768 115.136  0.00  0.00    -0.311 N 
ATOM     14  C   LIG d   1      -0.035  73.707 113.896  0.00  0.00     0.210 C 
ATOM     15  C   LIG d   1       0.632  72.379 113.526  0.00  0.00     0.109 C 
ATOM     16  O   LIG d   1      -0.067  74.639 113.078  0.00  0.00    -0.276 OA
ATOM     17  H   LIG d   1      -0.420  72.977 115.742  0.00  0.00     0.149 HD
ENDBRANCH   6  13
BRANCH   5  18
ATOM     18  N   LIG d   1       0.871  76.287 116.164  0.00  0.00     0.381 N 
ATOM     19  H   LIG d   1       1.513  76.502 116.900  0.00  0.00    -0.090 HD
ATOM     20  H   LIG d   1       0.643  77.141 115.685  0.00  0.00    -0.090 HD
ATOM     21  H   LIG d   1       1.286  75.642 115.528  0.00  0.00    -0.090 HD
ENDBRANCH   5  18
BRANCH   3  22
ATOM     22  C   LIG d   1      -3.019  77.172 118.813  0.00  0.00     0.382 C 
ATOM     23  O   LIG d   1      -2.298  77.882 119.555  0.00  0.00    -0.241 OA
ATOM     24  O   LIG d   1      -4.237  77.072 119.057  0.00  0.00    -0.241 OA
ENDBRANCH   3  22
TORSDOF 7
ENDMDL
MODEL 2
REMARK VINA RESULT:      -5.4     14.690     16.929
REMARK  7 active torsions:
REMARK  status: ('A' for Active; 'I' for Inactive)
REMARK    1  A    between atoms: C_2  and  C_3 
REMARK    2  A    between atoms: C_3  and  O_6 
REMARK    3  A    between atoms: C_3  and  C_4 
REMARK    4  A    between atoms: C_7  and  O_6 
REMARK    5  A    between atoms: C_9  and  C_10 
REMARK    6  A    between atoms: N_15  and  C_14 
REMARK    7  A    between atoms: N_20  and  C_19 
REMARK       I    between atoms: C_22  and  N_20 
ROOT
ATOM      1  C   LIG d   1      -3.730  91.624 117.063  0.00  0.00     0.161 C 
ATOM      2  C   LIG d   1      -4.855  92.293 116.553  0.00  0.00     0.016 C 
ATOM      3  C   LIG d   1      -5.733  91.724 115.602  0.00  0.00     0.038 C 
ATOM      4  C   LIG d   1      -5.630  90.382 115.207  0.00  0.00     0.028 C 
ATOM      5  C   LIG d   1      -4.214  89.826 115.313  0.00  0.00    -0.047 C 
ATOM      6  C   LIG d   1      -3.665  90.119 116.728  0.00  0.00     0.091 C 
ENDROOT
BRANCH   1   7
ATOM      7  O   LIG d   1      -3.647  91.823 118.488  0.00  0.00    -0.368 OA
BRANCH   7   8
ATOM      8  C   LIG d   1      -2.647  92.768 118.943  0.00  0.00     0.119 C 
BRANCH   8   9
ATOM      9  C   LIG d   1      -3.390  93.973 119.551  0.00  0.00     0.028 C 
ATOM     10  C   LIG d   1      -3.359  95.206 118.632  0.00  0.00     0.006 C 
ENDBRANCH   8   9
BRANCH   8  11
ATOM     11  C   LIG d   1      -1.843  93.336 117.769  0.00  0.00     0.028 C 
ATOM     12  C   LIG d   1      -0.414  92.775 117.698  0.00  0.00     0.006 C 
ENDBRANCH   8  11
ENDBRANCH   7   8
ENDBRANCH   1   7
BRANCH   6  13
ATOM     13  N   LIG d   1      -2.253  89.683 116.889  0.00  0.00    -0.311 N 
ATOM     14  C   LIG d   1      -1.904  88.499 117.391  0.00  0.00     0.210 C 
ATOM     15  C   LIG d   1      -0.395  88.258 117.489  0.00  0.00     0.109 C 
ATOM     16  O   LIG d   1      -2.702  87.614 117.735  0.00  0.00    -0.276 OA
ATOM     17  H   LIG d   1      -1.541  90.328 116.606  0.00  0.00     0.149 HD
ENDBRANCH   6  13
BRANCH   5  18
ATOM     18  N   LIG d   1      -4.277  88.385 115.004  0.00  0.00     0.381 N 
ATOM     19  H   LIG d   1      -3.472  88.117 114.474  0.00  0.00    -0.090 HD
ATOM     20  H   LIG d   1      -5.094  88.208 114.447  0.00  0.00    -0.090 HD
ATOM     21  H   LIG d   1      -4.319  87.857 115.847  0.00  0.00    -0.090 HD
ENDBRANCH   5  18
BRANCH   3  22
ATOM     22  C   LIG d   1      -6.704  92.514 115.006  0.00  0.00     0.382 C 
ATOM     23  O   LIG d   1      -7.105  93.555 115.580  0.00  0.00    -0.241 OA
ATOM     24  O   LIG d   1      -7.216  92.175 113.922  0.00  0.00    -0.241 OA
ENDBRANCH   3  22
TORSDOF 7
ENDMDL
MODEL 3
REMARK VINA RESULT:      -5.0     14.001     16.282
REMARK  7 active torsions:
REMARK  status: ('A' for Active; 'I' for Inactive)
REMARK    1  A    between atoms: C_2  and  C_3 
REMARK    2  A    between atoms: C_3  and  O_6 
REMARK    3  A    between atoms: C_3  and  C_4 
REMARK    4  A    between atoms: C_7  and  O_6 
REMARK    5  A    between atoms: C_9  and  C_10 
REMARK    6  A    between atoms: N_15  and  C_14 
REMARK    7  A    between atoms: N_20  and  C_19 
REMARK       I    between atoms: C_22  and  N_20 
ROOT
ATOM      1  C   LIG d   1      -2.523  90.340 117.387  0.00  0.00     0.161 C 
ATOM      2  C   LIG d   1      -3.755  89.997 116.807  0.00  0.00     0.016 C 
ATOM      3  C   LIG d   1      -4.772  90.938 116.526  0.00  0.00     0.038 C 
ATOM      4  C   LIG d   1      -4.565  92.318 116.668  0.00  0.00     0.028 C 
ATOM      5  C   LIG d   1      -3.520  92.669 117.722  0.00  0.00    -0.047 C 
ATOM      6  C   LIG d   1      -2.235  91.855 117.445  0.00  0.00     0.091 C 
ENDROOT
BRANCH   1   7
ATOM      7  O   LIG d   1      -1.454  89.654 116.705  0.00  0.00    -0.368 OA
BRANCH   7   8
ATOM      8  C   LIG d   1      -0.973  88.440 117.333  0.00  0.00     0.119 C 
BRANCH   8   9
ATOM      9  C   LIG d   1       0.468  88.204 116.843  0.00  0.00     0.028 C 
ATOM     10  C   LIG d   1       1.128  89.492 116.320  0.00  0.00     0.006 C 
ENDBRANCH   8   9
BRANCH   8  11
ATOM     11  C   LIG d   1      -1.767  87.217 116.863  0.00  0.00     0.028 C 
ATOM     12  C   LIG d   1      -1.728  86.058 117.871  0.00  0.00     0.006 C 
ENDBRANCH   8  11
ENDBRANCH   7   8
ENDBRANCH   1   7
BRANCH   6  13
ATOM     13  N   LIG d   1      -1.191  92.075 118.480  0.00  0.00    -0.311 N 
ATOM     14  C   LIG d   1      -0.015  92.647 118.225  0.00  0.00     0.210 C 
ATOM     15  C   LIG d   1       0.924  92.759 119.430  0.00  0.00     0.109 C 
ATOM     16  O   LIG d   1       0.326  93.101 117.123  0.00  0.00    -0.276 OA
ATOM     17  H   LIG d   1      -1.397  91.765 119.409  0.00  0.00     0.149 HD
ENDBRANCH   6  13
BRANCH   5  18
ATOM     18  N   LIG d   1      -3.304  94.127 117.668  0.00  0.00     0.381 N 
ATOM     19  H   LIG d   1      -2.468  94.364 118.165  0.00  0.00    -0.090 HD
ATOM     20  H   LIG d   1      -4.077  94.587 118.115  0.00  0.00    -0.090 HD
ATOM     21  H   LIG d   1      -3.233  94.426 116.721  0.00  0.00    -0.090 HD
ENDBRANCH   5  18
BRANCH   3  22
ATOM     22  C   LIG d   1      -6.028  90.498 116.136  0.00  0.00     0.382 C 
ATOM     23  O   LIG d   1      -7.020  91.258 116.241  0.00  0.00    -0.241 OA
ATOM     24  O   LIG d   1      -6.188  89.334 115.720  0.00  0.00    -0.241 OA
ENDBRANCH   3  22
TORSDOF 7
ENDMDL
MODEL 4
REMARK VINA RESULT:      -4.9     14.165     16.470
REMARK  7 active torsions:
REMARK  status: ('A' for Active; 'I' for Inactive)
REMARK    1  A    between atoms: C_2  and  C_3 
REMARK    2  A    between atoms: C_3  and  O_6 
REMARK    3  A    between atoms: C_3  and  C_4 
REMARK    4  A    between atoms: C_7  and  O_6 
REMARK    5  A    between atoms: C_9  and  C_10 
REMARK    6  A    between atoms: N_15  and  C_14 
REMARK    7  A    between atoms: N_20  and  C_19 
REMARK       I    between atoms: C_22  and  N_20 
ROOT
ATOM      1  C   LIG d   1      -2.450  90.452 117.374  0.00  0.00     0.161 C 
ATOM      2  C   LIG d   1      -3.655  90.051 116.774  0.00  0.00     0.016 C 
ATOM      3  C   LIG d   1      -4.726  90.935 116.510  0.00  0.00     0.038 C 
ATOM      4  C   LIG d   1      -4.606  92.321 116.694  0.00  0.00     0.028 C 
ATOM      5  C   LIG d   1      -3.593  92.704 117.768  0.00  0.00    -0.047 C 
ATOM      6  C   LIG d   1      -2.258  91.980 117.480  0.00  0.00     0.091 C 
ENDROOT
BRANCH   1   7
ATOM      7  O   LIG d   1      -1.336  89.854 116.683  0.00  0.00    -0.368 OA
BRANCH   7   8
ATOM      8  C   LIG d   1      -0.868  88.587 117.207  0.00  0.00     0.119 C 
BRANCH   8   9
ATOM      9  C   LIG d   1      -0.816  88.711 118.742  0.00  0.00     0.028 C 
ATOM     10  C   LIG d   1      -1.558  87.564 119.449  0.00  0.00     0.006 C 
ENDBRANCH   8   9
BRANCH   8  11
ATOM     11  C   LIG d   1       0.573  88.303 116.774  0.00  0.00     0.028 C 
ATOM     12  C   LIG d   1       1.344  89.578 116.395  0.00  0.00     0.006 C 
ENDBRANCH   8  11
ENDBRANCH   7   8
ENDBRANCH   1   7
BRANCH   6  13
ATOM     13  N   LIG d   1      -1.238  92.234 118.530  0.00  0.00    -0.311 N 
ATOM     14  C   LIG d   1      -0.030  92.733 118.273  0.00  0.00     0.210 C 
ATOM     15  C   LIG d   1       0.875  92.897 119.498  0.00  0.00     0.109 C 
ATOM     16  O   LIG d   1       0.366  93.086 117.152  0.00  0.00    -0.276 OA
ATOM     17  H   LIG d   1      -1.487  92.005 119.472  0.00  0.00     0.149 HD
ENDBRANCH   6  13
BRANCH   5  18
ATOM     18  N   LIG d   1      -3.468  94.173 117.758  0.00  0.00     0.381 N 
ATOM     19  H   LIG d   1      -3.215  94.498 118.670  0.00  0.00    -0.090 HD
ATOM     20  H   LIG d   1      -4.357  94.574 117.516  0.00  0.00    -0.090 HD
ATOM     21  H   LIG d   1      -2.779  94.453 117.095  0.00  0.00    -0.090 HD
ENDBRANCH   5  18
BRANCH   3  22
ATOM     22  C   LIG d   1      -5.949  90.429 116.095  0.00  0.00     0.382 C 
ATOM     23  O   LIG d   1      -6.021  89.267 115.629  0.00  0.00    -0.241 OA
ATOM     24  O   LIG d   1      -6.973  91.137 116.140  0.00  0.00    -0.241 OA
ENDBRANCH   3  22
TORSDOF 7
ENDMDL
MODEL 5
REMARK VINA RESULT:      -4.7     13.555     15.838
REMARK  7 active torsions:
REMARK  status: ('A' for Active; 'I' for Inactive)
REMARK    1  A    between atoms: C_2  and  C_3 
REMARK    2  A    between atoms: C_3  and  O_6 
REMARK    3  A    between atoms: C_3  and  C_4 
REMARK    4  A    between atoms: C_7  and  O_6 
REMARK    5  A    between atoms: C_9  and  C_10 
REMARK    6  A    between atoms: N_15  and  C_14 
REMARK    7  A    between atoms: N_20  and  C_19 
REMARK       I    between atoms: C_22  and  N_20 
ROOT
ATOM      1  C   LIG d   1       0.327  89.855 116.835  0.00  0.00     0.161 C 
ATOM      2  C   LIG d   1       1.675  90.183 117.053  0.00  0.00     0.016 C 
ATOM      3  C   LIG d   1       2.113  91.479 117.409  0.00  0.00     0.038 C 
ATOM      4  C   LIG d   1       1.211  92.507 117.721  0.00  0.00     0.028 C 
ATOM      5  C   LIG d   1      -0.138  92.361 117.025  0.00  0.00    -0.047 C 
ATOM      6  C   LIG d   1      -0.681  90.936 117.279  0.00  0.00     0.091 C 
ENDROOT
BRANCH   1   7
ATOM      7  O   LIG d   1       0.022  88.596 117.466  0.00  0.00    -0.368 OA
BRANCH   7   8
ATOM      8  C   LIG d   1      -0.352  87.513 116.579  0.00  0.00     0.119 C 
BRANCH   8   9
ATOM      9  C   LIG d   1      -1.770  87.058 116.976  0.00  0.00     0.028 C 
ATOM     10  C   LIG d   1      -2.118  87.424 118.429  0.00  0.00     0.006 C 
ENDBRANCH   8   9
BRANCH   8  11
ATOM     11  C   LIG d   1       0.541  86.286 116.789  0.00  0.00     0.028 C 
ATOM     12  C   LIG d   1      -0.162  84.968 116.427  0.00  0.00     0.006 C 
ENDBRANCH   8  11
ENDBRANCH   7   8
ENDBRANCH   1   7
BRANCH   6  13
ATOM     13  N   LIG d   1      -1.959  90.681 116.563  0.00  0.00    -0.311 N 
ATOM     14  C   LIG d   1      -3.156  90.796 117.136  0.00  0.00     0.210 C 
ATOM     15  C   LIG d   1      -4.343  90.467 116.225  0.00  0.00     0.109 C 
ATOM     16  O   LIG d   1      -3.349  91.169 118.302  0.00  0.00    -0.276 OA
ATOM     17  H   LIG d   1      -1.896  90.403 115.603  0.00  0.00     0.149 HD
ENDBRANCH   6  13
BRANCH   5  18
ATOM     18  N   LIG d   1      -1.025  93.418 117.546  0.00  0.00     0.381 N 
ATOM     19  H   LIG d   1      -0.523  93.994 118.192  0.00  0.00    -0.090 HD
ATOM     20  H   LIG d   1      -1.791  92.989 118.034  0.00  0.00    -0.090 HD
ATOM     21  H   LIG d   1      -1.370  93.974 116.794  0.00  0.00    -0.090 HD
ENDBRANCH   5  18
BRANCH   3  22
ATOM     22  C   LIG d   1       3.469  91.768 117.417  0.00  0.00     0.382 C 
ATOM     23  O   LIG d   1       4.304  90.853 117.615  0.00  0.00    -0.241 OA
ATOM     24  O   LIG d   1       3.866  92.940 117.274  0.00  0.00    -0.241 OA
ENDBRANCH   3  22
TORSDOF 7
ENDMDL
MODEL 6
REMARK VINA RESULT:      -4.6      2.488      3.936
REMARK  7 active torsions:
REMARK  status: ('A' for Active; 'I' for Inactive)
REMARK    1  A    between atoms: C_2  and  C_3 
REMARK    2  A    between atoms: C_3  and  O_6 
REMARK    3  A    between atoms: C_3  and  C_4 
REMARK    4  A    between atoms: C_7  and  O_6 
REMARK    5  A    between atoms: C_9  and  C_10 
REMARK    6  A    between atoms: N_15  and  C_14 
REMARK    7  A    between atoms: N_20  and  C_19 
REMARK       I    between atoms: C_22  and  N_20 
ROOT
ATOM      1  C   LIG d   1      -4.157  76.179 117.899  0.00  0.00     0.161 C 
ATOM      2  C   LIG d   1      -3.202  77.096 118.369  0.00  0.00     0.016 C 
ATOM      3  C   LIG d   1      -1.823  77.007 118.067  0.00  0.00     0.038 C 
ATOM      4  C   LIG d   1      -1.325  76.076 117.143  0.00  0.00     0.028 C 
ATOM      5  C   LIG d   1      -2.176  74.815 117.035  0.00  0.00    -0.047 C 
ATOM      6  C   LIG d   1      -3.649  75.222 116.800  0.00  0.00     0.091 C 
ENDROOT
BRANCH   1   7
ATOM      7  O   LIG d   1      -5.329  76.885 117.446  0.00  0.00    -0.368 OA
BRANCH   7   8
ATOM      8  C   LIG d   1      -6.351  77.130 118.443  0.00  0.00     0.119 C 
BRANCH   8   9
ATOM      9  C   LIG d   1      -6.499  75.844 119.280  0.00  0.00     0.028 C 
ATOM     10  C   LIG d   1      -7.616  74.927 118.754  0.00  0.00     0.006 C 
ENDBRANCH   8   9
BRANCH   8  11
ATOM     11  C   LIG d   1      -7.721  77.352 117.795  0.00  0.00     0.028 C 
ATOM     12  C   LIG d   1      -8.423  78.620 118.305  0.00  0.00     0.006 C 
ENDBRANCH   8  11
ENDBRANCH   7   8
ENDBRANCH   1   7
BRANCH   6  13
ATOM     13  N   LIG d   1      -4.563  74.051 116.767  0.00  0.00    -0.311 N 
ATOM     14  C   LIG d   1      -5.499  73.878 115.836  0.00  0.00     0.210 C 
ATOM     15  C   LIG d   1      -6.346  72.611 115.998  0.00  0.00     0.109 C 
ATOM     16  O   LIG d   1      -5.687  74.636 114.873  0.00  0.00    -0.276 OA
ATOM     17  H   LIG d   1      -4.458  73.370 117.494  0.00  0.00     0.149 HD
ENDBRANCH   6  13
BRANCH   5  18
ATOM     18  N   LIG d   1      -1.622  73.995 115.942  0.00  0.00     0.381 N 
ATOM     19  H   LIG d   1      -2.364  73.655 115.364  0.00  0.00    -0.090 HD
ATOM     20  H   LIG d   1      -1.143  73.206 116.338  0.00  0.00    -0.090 HD
ATOM     21  H   LIG d   1      -0.988  74.537 115.397  0.00  0.00    -0.090 HD
ENDBRANCH   5  18
BRANCH   3  22
ATOM     22  C   LIG d   1      -0.921  77.831 118.722  0.00  0.00     0.382 C 
ATOM     23  O   LIG d   1       0.203  77.388 119.058  0.00  0.00    -0.241 OA
ATOM     24  O   LIG d   1      -1.235  78.999 119.022  0.00  0.00    -0.241 OA
ENDBRANCH   3  22
TORSDOF 7
ENDMDL
MODEL 7
REMARK VINA RESULT:      -4.6     12.165     14.882
REMARK  7 active torsions:
REMARK  status: ('A' for Active; 'I' for Inactive)
REMARK    1  A    between atoms: C_2  and  C_3 
REMARK    2  A    between atoms: C_3  and  O_6 
REMARK    3  A    between atoms: C_3  and  C_4 
REMARK    4  A    between atoms: C_7  and  O_6 
REMARK    5  A    between atoms: C_9  and  C_10 
REMARK    6  A    between atoms: N_15  and  C_14 
REMARK    7  A    between atoms: N_20  and  C_19 
REMARK       I    between atoms: C_22  and  N_20 
ROOT
ATOM      1  C   LIG d   1      11.081  78.952 114.593  0.00  0.00     0.161 C 
ATOM      2  C   LIG d   1       9.783  79.174 115.083  0.00  0.00     0.016 C 
ATOM      3  C   LIG d   1       8.914  78.134 115.485  0.00  0.00     0.038 C 
ATOM      4  C   LIG d   1       9.342  76.801 115.568  0.00  0.00     0.028 C 
ATOM      5  C   LIG d   1      10.478  76.468 114.607  0.00  0.00    -0.047 C 
ATOM      6  C   LIG d   1      11.605  77.513 114.781  0.00  0.00     0.091 C 
ENDROOT
BRANCH   1   7
ATOM      7  O   LIG d   1      11.994  79.898 115.183  0.00  0.00    -0.368 OA
BRANCH   7   8
ATOM      8  C   LIG d   1      12.424  79.611 116.536  0.00  0.00     0.119 C 
BRANCH   8   9
ATOM      9  C   LIG d   1      11.954  80.777 117.428  0.00  0.00     0.028 C 
ATOM     10  C   LIG d   1      10.875  80.346 118.436  0.00  0.00     0.006 C 
ENDBRANCH   8   9
BRANCH   8  11
ATOM     11  C   LIG d   1      13.952  79.607 116.646  0.00  0.00     0.028 C 
ATOM     12  C   LIG d   1      14.644  80.044 115.345  0.00  0.00     0.006 C 
ENDBRANCH   8  11
ENDBRANCH   7   8
ENDBRANCH   1   7
BRANCH   6  13
ATOM     13  N   LIG d   1      12.719  77.310 113.819  0.00  0.00    -0.311 N 
ATOM     14  C   LIG d   1      13.845  76.668 114.125  0.00  0.00     0.210 C 
ATOM     15  C   LIG d   1      14.873  76.589 112.992  0.00  0.00     0.109 C 
ATOM     16  O   LIG d   1      14.076  76.128 115.218  0.00  0.00    -0.276 OA
ATOM     17  H   LIG d   1      12.602  77.689 112.900  0.00  0.00     0.149 HD
ENDBRANCH   6  13
BRANCH   5  18
ATOM     18  N   LIG d   1      10.918  75.090 114.896  0.00  0.00     0.381 N 
ATOM     19  H   LIG d   1      11.876  74.978 114.631  0.00  0.00    -0.090 HD
ATOM     20  H   LIG d   1      10.364  74.452 114.352  0.00  0.00    -0.090 HD
ATOM     21  H   LIG d   1      10.808  74.893 115.866  0.00  0.00    -0.090 HD
ENDBRANCH   5  18
BRANCH   3  22
ATOM     22  C   LIG d   1       7.588  78.419 115.772  0.00  0.00     0.382 C 
ATOM     23  O   LIG d   1       6.689  78.118 114.950  0.00  0.00    -0.241 OA
ATOM     24  O   LIG d   1       7.282  79.013 116.824  0.00  0.00    -0.241 OA
ENDBRANCH   3  22
TORSDOF 7
ENDMDL
MODEL 8
REMARK VINA RESULT:      -4.4     13.003     15.833
REMARK  7 active torsions:
REMARK  status: ('A' for Active; 'I' for Inactive)
REMARK    1  A    between atoms: C_2  and  C_3 
REMARK    2  A    between atoms: C_3  and  O_6 
REMARK    3  A    between atoms: C_3  and  C_4 
REMARK    4  A    between atoms: C_7  and  O_6 
REMARK    5  A    between atoms: C_9  and  C_10 
REMARK    6  A    between atoms: N_15  and  C_14 
REMARK    7  A    between atoms: N_20  and  C_19 
REMARK       I    between atoms: C_22  and  N_20 
ROOT
ATOM      1  C   LIG d   1      12.069  77.943 114.818  0.00  0.00     0.161 C 
ATOM      2  C   LIG d   1      10.783  78.450 115.072  0.00  0.00     0.016 C 
ATOM      3  C   LIG d   1       9.655  77.630 115.304  0.00  0.00     0.038 C 
ATOM      4  C   LIG d   1       9.767  76.239 115.449  0.00  0.00     0.028 C 
ATOM      5  C   LIG d   1      10.956  75.646 114.701  0.00  0.00    -0.047 C 
ATOM      6  C   LIG d   1      12.232  76.432 115.082  0.00  0.00     0.091 C 
ENDROOT
BRANCH   1   7
ATOM      7  O   LIG d   1      13.046  78.691 115.568  0.00  0.00    -0.368 OA
BRANCH   7   8
ATOM      8  C   LIG d   1      13.800  79.680 114.825  0.00  0.00     0.119 C 
BRANCH   8   9
ATOM      9  C   LIG d   1      13.737  79.287 113.336  0.00  0.00     0.028 C 
ATOM     10  C   LIG d   1      15.088  78.780 112.806  0.00  0.00     0.006 C 
ENDBRANCH   8   9
BRANCH   8  11
ATOM     11  C   LIG d   1      15.286  79.640 115.193  0.00  0.00     0.028 C 
ATOM     12  C   LIG d   1      15.542  79.015 116.573  0.00  0.00     0.006 C 
ENDBRANCH   8  11
ENDBRANCH   7   8
ENDBRANCH   1   7
BRANCH   6  13
ATOM     13  N   LIG d   1      13.428  75.970 114.331  0.00  0.00    -0.311 N 
ATOM     14  C   LIG d   1      14.573  75.623 114.916  0.00  0.00     0.210 C 
ATOM     15  C   LIG d   1      15.687  75.196 113.955  0.00  0.00     0.109 C 
ATOM     16  O   LIG d   1      14.761  75.598 116.142  0.00  0.00    -0.276 OA
ATOM     17  H   LIG d   1      13.352  75.930 113.333  0.00  0.00     0.149 HD
ENDBRANCH   6  13
BRANCH   5  18
ATOM     18  N   LIG d   1      11.033  74.215 115.050  0.00  0.00     0.381 N 
ATOM     19  H   LIG d   1      11.610  74.094 115.859  0.00  0.00    -0.090 HD
ATOM     20  H   LIG d   1      11.453  73.716 114.286  0.00  0.00    -0.090 HD
ATOM     21  H   LIG d   1      10.121  73.857 115.228  0.00  0.00    -0.090 HD
ENDBRANCH   5  18
BRANCH   3  22
ATOM     22  C   LIG d   1       8.391  78.198 115.354  0.00  0.00     0.382 C 
ATOM     23  O   LIG d   1       7.397  77.552 114.942  0.00  0.00    -0.241 OA
ATOM     24  O   LIG d   1       8.239  79.364 115.765  0.00  0.00    -0.241 OA
ENDBRANCH   3  22
TORSDOF 7
ENDMDL
MODEL 9
REMARK VINA RESULT:      -4.4     11.039     12.903
REMARK  7 active torsions:
REMARK  status: ('A' for Active; 'I' for Inactive)
REMARK    1  A    between atoms: C_2  and  C_3 
REMARK    2  A    between atoms: C_3  and  O_6 
REMARK    3  A    between atoms: C_3  and  C_4 
REMARK    4  A    between atoms: C_7  and  O_6 
REMARK    5  A    between atoms: C_9  and  C_10 
REMARK    6  A    between atoms: N_15  and  C_14 
REMARK    7  A    between atoms: N_20  and  C_19 
REMARK       I    between atoms: C_22  and  N_20 
ROOT
ATOM      1  C   LIG d   1       0.877  86.891 115.266  0.00  0.00     0.161 C 
ATOM      2  C   LIG d   1      -0.344  86.773 115.949  0.00  0.00     0.016 C 
ATOM      3  C   LIG d   1      -0.834  87.753 116.843  0.00  0.00     0.038 C 
ATOM      4  C   LIG d   1      -0.202  88.995 117.000  0.00  0.00     0.028 C 
ATOM      5  C   LIG d   1       1.296  88.953 116.715  0.00  0.00    -0.047 C 
ATOM      6  C   LIG d   1       1.527  88.289 115.339  0.00  0.00     0.091 C 
ENDROOT
BRANCH   1   7
ATOM      7  O   LIG d   1       0.710  86.487 113.893  0.00  0.00    -0.368 OA
BRANCH   7   8
ATOM      8  C   LIG d   1       1.302  85.217 113.525  0.00  0.00     0.119 C 
BRANCH   8   9
ATOM      9  C   LIG d   1       0.150  84.237 113.231  0.00  0.00     0.028 C 
ATOM     10  C   LIG d   1      -0.184  83.345 114.438  0.00  0.00     0.006 C 
ENDBRANCH   8   9
BRANCH   8  11
ATOM     11  C   LIG d   1       2.070  84.600 114.697  0.00  0.00     0.028 C 
ATOM     12  C   LIG d   1       3.590  84.583 114.471  0.00  0.00     0.006 C 
ENDBRANCH   8  11
ENDBRANCH   7   8
ENDBRANCH   1   7
BRANCH   6  13
ATOM     13  N   LIG d   1       2.970  88.131 115.020  0.00  0.00    -0.311 N 
ATOM     14  C   LIG d   1       3.473  88.300 113.799  0.00  0.00     0.210 C 
ATOM     15  C   LIG d   1       4.984  88.070 113.685  0.00  0.00     0.109 C 
ATOM     16  O   LIG d   1       2.818  88.650 112.806  0.00  0.00    -0.276 OA
ATOM     17  H   LIG d   1       3.578  87.879 115.774  0.00  0.00     0.149 HD
ENDBRANCH   6  13
BRANCH   5  18
ATOM     18  N   LIG d   1       1.801  90.338 116.781  0.00  0.00     0.381 N 
ATOM     19  H   LIG d   1       2.312  90.472 117.630  0.00  0.00    -0.090 HD
ATOM     20  H   LIG d   1       1.020  90.969 116.780  0.00  0.00    -0.090 HD
ATOM     21  H   LIG d   1       2.389  90.523 115.998  0.00  0.00    -0.090 HD
ENDBRANCH   5  18
BRANCH   3  22
ATOM     22  C   LIG d   1      -1.947  87.478 117.622  0.00  0.00     0.382 C 
ATOM     23  O   LIG d   1      -2.003  86.412 118.282  0.00  0.00    -0.241 OA
ATOM     24  O   LIG d   1      -2.916  88.260 117.639  0.00  0.00    -0.241 OA
ENDBRANCH   3  22
TORSDOF 7
ENDMDL
