MODEL 1
REMARK VINA RESULT:      -5.5      0.000      0.000
REMARK  7 active torsions:
REMARK  status: ('A' for Active; 'I' for Inactive)
REMARK    1  A    between atoms: C_2  and  C_3 
REMARK    2  A    between atoms: C_3  and  O_6 
REMARK    3  A    between atoms: C_3  and  C_4 
REMARK    4  A    between atoms: C_7  and  O_6 
REMARK    5  A    between atoms: C_9  and  C_10 
REMARK    6  A    between atoms: N_15  and  C_14 
REMARK    7  A    between atoms: N_20  and  C_19 
REMARK       I    between atoms: C_22  and  N_20 
ROOT
ATOM      1  C   LIG d   1      -8.217  75.072 117.973  0.00  0.00     0.161 C 
ATOM      2  C   LIG d   1      -9.443  75.703 118.243  0.00  0.00     0.016 C 
ATOM      3  C   LIG d   1      -9.607  77.107 118.264  0.00  0.00     0.038 C 
ATOM      4  C   LIG d   1      -8.584  77.979 117.865  0.00  0.00     0.028 C 
ATOM      5  C   LIG d   1      -7.186  77.407 118.072  0.00  0.00    -0.047 C 
ATOM      6  C   LIG d   1      -7.116  76.005 117.426  0.00  0.00     0.091 C 
ENDROOT
BRANCH   1   7
ATOM      7  O   LIG d   1      -8.426  73.963 117.075  0.00  0.00    -0.368 OA
BRANCH   7   8
ATOM      8  C   LIG d   1      -8.495  72.652 117.688  0.00  0.00     0.119 C 
BRANCH   8   9
ATOM      9  C   LIG d   1      -7.657  71.692 116.822  0.00  0.00     0.028 C 
ATOM     10  C   LIG d   1      -6.885  72.425 115.711  0.00  0.00     0.006 C 
ENDBRANCH   8   9
BRANCH   8  11
ATOM     11  C   LIG d   1      -9.920  72.093 117.649  0.00  0.00     0.028 C 
ATOM     12  C   LIG d   1      -9.976  70.633 117.172  0.00  0.00     0.006 C 
ENDBRANCH   8  11
ENDBRANCH   7   8
ENDBRANCH   1   7
BRANCH   6  13
ATOM     13  N   LIG d   1      -5.808  75.339 117.655  0.00  0.00    -0.311 N 
ATOM     14  C   LIG d   1      -4.805  75.371 116.779  0.00  0.00     0.210 C 
ATOM     15  C   LIG d   1      -3.550  74.602 117.204  0.00  0.00     0.109 C 
ATOM     16  O   LIG d   1      -4.825  75.990 115.704  0.00  0.00    -0.276 OA
ATOM     17  H   LIG d   1      -5.694  74.840 118.516  0.00  0.00     0.149 HD
ENDBRANCH   6  13
BRANCH   5  18
ATOM     18  N   LIG d   1      -6.223  78.361 117.488  0.00  0.00     0.381 N 
ATOM     19  H   LIG d   1      -5.834  77.979 116.649  0.00  0.00    -0.090 HD
ATOM     20  H   LIG d   1      -5.476  78.510 118.142  0.00  0.00    -0.090 HD
ATOM     21  H   LIG d   1      -6.678  79.225 117.288  0.00  0.00    -0.090 HD
ENDBRANCH   5  18
BRANCH   3  22
ATOM     22  C   LIG d   1     -10.795  77.652 118.727  0.00  0.00     0.382 C 
ATOM     23  O   LIG d   1     -11.850  76.973 118.701  0.00  0.00    -0.241 OA
ATOM     24  O   LIG d   1     -10.835  78.831 119.128  0.00  0.00    -0.241 OA
ENDBRANCH   3  22
TORSDOF 7
ENDMDL
MODEL 2
REMARK VINA RESULT:      -5.3      3.583      5.803
REMARK  7 active torsions:
REMARK  status: ('A' for Active; 'I' for Inactive)
REMARK    1  A    between atoms: C_2  and  C_3 
REMARK    2  A    between atoms: C_3  and  O_6 
REMARK    3  A    between atoms: C_3  and  C_4 
REMARK    4  A    between atoms: C_7  and  O_6 
REMARK    5  A    between atoms: C_9  and  C_10 
REMARK    6  A    between atoms: N_15  and  C_14 
REMARK    7  A    between atoms: N_20  and  C_19 
REMARK       I    between atoms: C_22  and  N_20 
ROOT
ATOM      1  C   LIG d   1      -4.600  75.675 116.728  0.00  0.00     0.161 C 
ATOM      2  C   LIG d   1      -5.468  74.619 117.054  0.00  0.00     0.016 C 
ATOM      3  C   LIG d   1      -6.263  73.943 116.100  0.00  0.00     0.038 C 
ATOM      4  C   LIG d   1      -6.130  74.180 114.723  0.00  0.00     0.028 C 
ATOM      5  C   LIG d   1      -5.636  75.584 114.394  0.00  0.00    -0.047 C 
ATOM      6  C   LIG d   1      -4.359  75.872 115.217  0.00  0.00     0.091 C 
ENDROOT
BRANCH   1   7
ATOM      7  O   LIG d   1      -3.345  75.506 117.418  0.00  0.00    -0.368 OA
BRANCH   7   8
ATOM      8  C   LIG d   1      -2.697  74.221 117.255  0.00  0.00     0.119 C 
BRANCH   8   9
ATOM      9  C   LIG d   1      -2.471  73.635 118.663  0.00  0.00     0.028 C 
ATOM     10  C   LIG d   1      -0.982  73.580 119.044  0.00  0.00     0.006 C 
ENDBRANCH   8   9
BRANCH   8  11
ATOM     11  C   LIG d   1      -1.298  74.375 116.651  0.00  0.00     0.028 C 
ATOM     12  C   LIG d   1      -1.246  73.990 115.164  0.00  0.00     0.006 C 
ENDBRANCH   8  11
ENDBRANCH   7   8
ENDBRANCH   1   7
BRANCH   6  13
ATOM     13  N   LIG d   1      -3.857  77.257 115.018  0.00  0.00    -0.311 N 
ATOM     14  C   LIG d   1      -2.931  77.578 114.117  0.00  0.00     0.210 C 
ATOM     15  C   LIG d   1      -2.541  79.060 114.091  0.00  0.00     0.109 C 
ATOM     16  O   LIG d   1      -2.418  76.783 113.315  0.00  0.00    -0.276 OA
ATOM     17  H   LIG d   1      -4.242  77.970 115.606  0.00  0.00     0.149 HD
ENDBRANCH   6  13
BRANCH   5  18
ATOM     18  N   LIG d   1      -5.412  75.648 112.938  0.00  0.00     0.381 N 
ATOM     19  H   LIG d   1      -4.439  75.789 112.751  0.00  0.00    -0.090 HD
ATOM     20  H   LIG d   1      -5.921  76.430 112.564  0.00  0.00    -0.090 HD
ATOM     21  H   LIG d   1      -5.722  74.805 112.508  0.00  0.00    -0.090 HD
ENDBRANCH   5  18
BRANCH   3  22
ATOM     22  C   LIG d   1      -7.232  73.047 116.524  0.00  0.00     0.382 C 
ATOM     23  O   LIG d   1      -7.304  71.908 116.003  0.00  0.00    -0.241 OA
ATOM     24  O   LIG d   1      -8.064  73.380 117.389  0.00  0.00    -0.241 OA
ENDBRANCH   3  22
TORSDOF 7
ENDMDL
MODEL 3
REMARK VINA RESULT:      -5.3      2.342      4.460
REMARK  7 active torsions:
REMARK  status: ('A' for Active; 'I' for Inactive)
REMARK    1  A    between atoms: C_2  and  C_3 
REMARK    2  A    between atoms: C_3  and  O_6 
REMARK    3  A    between atoms: C_3  and  C_4 
REMARK    4  A    between atoms: C_7  and  O_6 
REMARK    5  A    between atoms: C_9  and  C_10 
REMARK    6  A    between atoms: N_15  and  C_14 
REMARK    7  A    between atoms: N_20  and  C_19 
REMARK       I    between atoms: C_22  and  N_20 
ROOT
ATOM      1  C   LIG d   1      -7.340  76.887 117.671  0.00  0.00     0.161 C 
ATOM      2  C   LIG d   1      -8.074  75.689 117.686  0.00  0.00     0.016 C 
ATOM      3  C   LIG d   1      -9.434  75.615 118.066  0.00  0.00     0.038 C 
ATOM      4  C   LIG d   1     -10.199  76.764 118.313  0.00  0.00     0.028 C 
ATOM      5  C   LIG d   1      -9.371  77.949 118.800  0.00  0.00    -0.047 C 
ATOM      6  C   LIG d   1      -8.188  78.167 117.830  0.00  0.00     0.091 C 
ENDROOT
BRANCH   1   7
ATOM      7  O   LIG d   1      -6.546  76.958 116.470  0.00  0.00    -0.368 OA
BRANCH   7   8
ATOM      8  C   LIG d   1      -6.187  75.691 115.867  0.00  0.00     0.119 C 
BRANCH   8   9
ATOM      9  C   LIG d   1      -4.673  75.492 116.073  0.00  0.00     0.028 C 
ATOM     10  C   LIG d   1      -4.358  74.593 117.280  0.00  0.00     0.006 C 
ENDBRANCH   8   9
BRANCH   8  11
ATOM     11  C   LIG d   1      -6.390  75.718 114.349  0.00  0.00     0.028 C 
ATOM     12  C   LIG d   1      -5.397  74.816 113.599  0.00  0.00     0.006 C 
ENDBRANCH   8  11
ENDBRANCH   7   8
ENDBRANCH   1   7
BRANCH   6  13
ATOM     13  N   LIG d   1      -7.280  79.255 118.278  0.00  0.00    -0.311 N 
ATOM     14  C   LIG d   1      -7.350  80.504 117.821  0.00  0.00     0.210 C 
ATOM     15  C   LIG d   1      -6.307  81.464 118.400  0.00  0.00     0.109 C 
ATOM     16  O   LIG d   1      -8.198  80.915 117.014  0.00  0.00    -0.276 OA
ATOM     17  H   LIG d   1      -6.581  79.016 118.955  0.00  0.00     0.149 HD
ENDBRANCH   6  13
BRANCH   5  18
ATOM     18  N   LIG d   1     -10.271  79.116 118.885  0.00  0.00     0.381 N 
ATOM     19  H   LIG d   1     -10.556  79.255 119.834  0.00  0.00    -0.090 HD
ATOM     20  H   LIG d   1     -11.090  78.935 118.332  0.00  0.00    -0.090 HD
ATOM     21  H   LIG d   1      -9.806  79.930 118.548  0.00  0.00    -0.090 HD
ENDBRANCH   5  18
BRANCH   3  22
ATOM     22  C   LIG d   1     -10.031  74.376 118.241  0.00  0.00     0.382 C 
ATOM     23  O   LIG d   1      -9.331  73.380 118.546  0.00  0.00    -0.241 OA
ATOM     24  O   LIG d   1     -11.254  74.232 118.055  0.00  0.00    -0.241 OA
ENDBRANCH   3  22
TORSDOF 7
ENDMDL
MODEL 4
REMARK VINA RESULT:      -4.9      3.022      4.603
REMARK  7 active torsions:
REMARK  status: ('A' for Active; 'I' for Inactive)
REMARK    1  A    between atoms: C_2  and  C_3 
REMARK    2  A    between atoms: C_3  and  O_6 
REMARK    3  A    between atoms: C_3  and  C_4 
REMARK    4  A    between atoms: C_7  and  O_6 
REMARK    5  A    between atoms: C_9  and  C_10 
REMARK    6  A    between atoms: N_15  and  C_14 
REMARK    7  A    between atoms: N_20  and  C_19 
REMARK       I    between atoms: C_22  and  N_20 
ROOT
ATOM      1  C   LIG d   1      -6.436  78.373 117.332  0.00  0.00     0.161 C 
ATOM      2  C   LIG d   1      -7.656  77.725 117.589  0.00  0.00     0.016 C 
ATOM      3  C   LIG d   1      -8.819  78.401 118.023  0.00  0.00     0.038 C 
ATOM      4  C   LIG d   1      -8.884  79.801 118.084  0.00  0.00     0.028 C 
ATOM      5  C   LIG d   1      -7.529  80.460 118.320  0.00  0.00    -0.047 C 
ATOM      6  C   LIG d   1      -6.518  79.913 117.287  0.00  0.00     0.091 C 
ENDROOT
BRANCH   1   7
ATOM      7  O   LIG d   1      -5.861  77.865 116.112  0.00  0.00    -0.368 OA
BRANCH   7   8
ATOM      8  C   LIG d   1      -5.703  76.427 116.031  0.00  0.00     0.119 C 
BRANCH   8   9
ATOM      9  C   LIG d   1      -4.191  76.128 116.010  0.00  0.00     0.028 C 
ATOM     10  C   LIG d   1      -3.405  77.137 115.155  0.00  0.00     0.006 C 
ENDBRANCH   8   9
BRANCH   8  11
ATOM     11  C   LIG d   1      -6.243  75.881 114.706  0.00  0.00     0.028 C 
ATOM     12  C   LIG d   1      -5.935  74.389 114.507  0.00  0.00     0.006 C 
ENDBRANCH   8  11
ENDBRANCH   7   8
ENDBRANCH   1   7
BRANCH   6  13
ATOM     13  N   LIG d   1      -5.146  80.443 117.500  0.00  0.00    -0.311 N 
ATOM     14  C   LIG d   1      -4.665  81.509 116.863  0.00  0.00     0.210 C 
ATOM     15  C   LIG d   1      -3.220  81.876 117.216  0.00  0.00     0.109 C 
ATOM     16  O   LIG d   1      -5.309  82.206 116.064  0.00  0.00    -0.276 OA
ATOM     17  H   LIG d   1      -4.566  79.957 118.156  0.00  0.00     0.149 HD
ENDBRANCH   6  13
BRANCH   5  18
ATOM     18  N   LIG d   1      -7.721  81.920 118.224  0.00  0.00     0.381 N 
ATOM     19  H   LIG d   1      -7.780  82.314 119.141  0.00  0.00    -0.090 HD
ATOM     20  H   LIG d   1      -8.586  82.103 117.746  0.00  0.00    -0.090 HD
ATOM     21  H   LIG d   1      -6.963  82.331 117.725  0.00  0.00    -0.090 HD
ENDBRANCH   5  18
BRANCH   3  22
ATOM     22  C   LIG d   1      -9.923  77.672 118.439  0.00  0.00     0.382 C 
ATOM     23  O   LIG d   1     -10.964  78.266 118.809  0.00  0.00    -0.241 OA
ATOM     24  O   LIG d   1      -9.875  76.428 118.491  0.00  0.00    -0.241 OA
ENDBRANCH   3  22
TORSDOF 7
ENDMDL
MODEL 5
REMARK VINA RESULT:      -4.9      4.402      6.868
REMARK  7 active torsions:
REMARK  status: ('A' for Active; 'I' for Inactive)
REMARK    1  A    between atoms: C_2  and  C_3 
REMARK    2  A    between atoms: C_3  and  O_6 
REMARK    3  A    between atoms: C_3  and  C_4 
REMARK    4  A    between atoms: C_7  and  O_6 
REMARK    5  A    between atoms: C_9  and  C_10 
REMARK    6  A    between atoms: N_15  and  C_14 
REMARK    7  A    between atoms: N_20  and  C_19 
REMARK       I    between atoms: C_22  and  N_20 
ROOT
ATOM      1  C   LIG d   1      -3.176  76.880 116.219  0.00  0.00     0.161 C 
ATOM      2  C   LIG d   1      -3.259  77.994 115.367  0.00  0.00     0.016 C 
ATOM      3  C   LIG d   1      -2.150  78.524 114.669  0.00  0.00     0.038 C 
ATOM      4  C   LIG d   1      -0.904  77.880 114.657  0.00  0.00     0.028 C 
ATOM      5  C   LIG d   1      -0.645  77.040 115.903  0.00  0.00    -0.047 C 
ATOM      6  C   LIG d   1      -1.849  76.097 116.132  0.00  0.00     0.091 C 
ENDROOT
BRANCH   1   7
ATOM      7  O   LIG d   1      -4.293  76.000 115.983  0.00  0.00    -0.368 OA
BRANCH   7   8
ATOM      8  C   LIG d   1      -4.798  75.961 114.626  0.00  0.00     0.119 C 
BRANCH   8   9
ATOM      9  C   LIG d   1      -6.321  75.738 114.706  0.00  0.00     0.028 C 
ATOM     10  C   LIG d   1      -6.853  75.828 116.146  0.00  0.00     0.006 C 
ENDBRANCH   8   9
BRANCH   8  11
ATOM     11  C   LIG d   1      -4.251  74.751 113.862  0.00  0.00     0.028 C 
ATOM     12  C   LIG d   1      -5.361  73.863 113.278  0.00  0.00     0.006 C 
ENDBRANCH   8  11
ENDBRANCH   7   8
ENDBRANCH   1   7
BRANCH   6  13
ATOM     13  N   LIG d   1      -1.715  75.299 117.378  0.00  0.00    -0.311 N 
ATOM     14  C   LIG d   1      -1.283  74.039 117.399  0.00  0.00     0.210 C 
ATOM     15  C   LIG d   1      -1.239  73.393 118.788  0.00  0.00     0.109 C 
ATOM     16  O   LIG d   1      -0.901  73.406 116.404  0.00  0.00    -0.276 OA
ATOM     17  H   LIG d   1      -1.973  75.746 118.236  0.00  0.00     0.149 HD
ENDBRANCH   6  13
BRANCH   5  18
ATOM     18  N   LIG d   1       0.624  76.317 115.698  0.00  0.00     0.381 N 
ATOM     19  H   LIG d   1       1.382  76.847 116.080  0.00  0.00    -0.090 HD
ATOM     20  H   LIG d   1       0.781  76.210 114.711  0.00  0.00    -0.090 HD
ATOM     21  H   LIG d   1       0.582  75.422 116.134  0.00  0.00    -0.090 HD
ENDBRANCH   5  18
BRANCH   3  22
ATOM     22  C   LIG d   1      -2.272  79.735 114.004  0.00  0.00     0.382 C 
ATOM     23  O   LIG d   1      -1.268  80.255 113.460  0.00  0.00    -0.241 OA
ATOM     24  O   LIG d   1      -3.363  80.335 113.979  0.00  0.00    -0.241 OA
ENDBRANCH   3  22
TORSDOF 7
ENDMDL
MODEL 6
REMARK VINA RESULT:      -4.8      2.369      3.626
REMARK  7 active torsions:
REMARK  status: ('A' for Active; 'I' for Inactive)
REMARK    1  A    between atoms: C_2  and  C_3 
REMARK    2  A    between atoms: C_3  and  O_6 
REMARK    3  A    between atoms: C_3  and  C_4 
REMARK    4  A    between atoms: C_7  and  O_6 
REMARK    5  A    between atoms: C_9  and  C_10 
REMARK    6  A    between atoms: N_15  and  C_14 
REMARK    7  A    between atoms: N_20  and  C_19 
REMARK       I    between atoms: C_22  and  N_20 
ROOT
ATOM      1  C   LIG d   1      -6.500  76.016 117.936  0.00  0.00     0.161 C 
ATOM      2  C   LIG d   1      -7.821  75.546 118.037  0.00  0.00     0.016 C 
ATOM      3  C   LIG d   1      -8.952  76.394 118.006  0.00  0.00     0.038 C 
ATOM      4  C   LIG d   1      -8.846  77.763 117.719  0.00  0.00     0.028 C 
ATOM      5  C   LIG d   1      -7.499  78.361 118.111  0.00  0.00    -0.047 C 
ATOM      6  C   LIG d   1      -6.370  77.493 117.510  0.00  0.00     0.091 C 
ENDROOT
BRANCH   1   7
ATOM      7  O   LIG d   1      -5.748  75.170 117.044  0.00  0.00    -0.368 OA
BRANCH   7   8
ATOM      8  C   LIG d   1      -5.480  75.710 115.727  0.00  0.00     0.119 C 
BRANCH   8   9
ATOM      9  C   LIG d   1      -6.248  74.846 114.707  0.00  0.00     0.028 C 
ATOM     10  C   LIG d   1      -5.330  74.275 113.613  0.00  0.00     0.006 C 
ENDBRANCH   8   9
BRANCH   8  11
ATOM     11  C   LIG d   1      -4.002  75.561 115.353  0.00  0.00     0.028 C 
ATOM     12  C   LIG d   1      -3.113  75.224 116.561  0.00  0.00     0.006 C 
ENDBRANCH   8  11
ENDBRANCH   7   8
ENDBRANCH   1   7
BRANCH   6  13
ATOM     13  N   LIG d   1      -5.019  77.961 117.916  0.00  0.00    -0.311 N 
ATOM     14  C   LIG d   1      -4.282  78.795 117.185  0.00  0.00     0.210 C 
ATOM     15  C   LIG d   1      -2.910  79.134 117.778  0.00  0.00     0.109 C 
ATOM     16  O   LIG d   1      -4.646  79.312 116.119  0.00  0.00    -0.276 OA
ATOM     17  H   LIG d   1      -4.658  77.615 118.784  0.00  0.00     0.149 HD
ENDBRANCH   6  13
BRANCH   5  18
ATOM     18  N   LIG d   1      -7.475  79.756 117.631  0.00  0.00     0.381 N 
ATOM     19  H   LIG d   1      -6.782  79.856 116.916  0.00  0.00    -0.090 HD
ATOM     20  H   LIG d   1      -7.227  80.359 118.396  0.00  0.00    -0.090 HD
ATOM     21  H   LIG d   1      -8.370  80.010 117.275  0.00  0.00    -0.090 HD
ENDBRANCH   5  18
BRANCH   3  22
ATOM     22  C   LIG d   1     -10.205  75.878 118.304  0.00  0.00     0.382 C 
ATOM     23  O   LIG d   1     -10.328  74.668 118.609  0.00  0.00    -0.241 OA
ATOM     24  O   LIG d   1     -11.218  76.599 118.229  0.00  0.00    -0.241 OA
ENDBRANCH   3  22
TORSDOF 7
ENDMDL
MODEL 7
REMARK VINA RESULT:      -4.7      2.408      4.609
REMARK  7 active torsions:
REMARK  status: ('A' for Active; 'I' for Inactive)
REMARK    1  A    between atoms: C_2  and  C_3 
REMARK    2  A    between atoms: C_3  and  O_6 
REMARK    3  A    between atoms: C_3  and  C_4 
REMARK    4  A    between atoms: C_7  and  O_6 
REMARK    5  A    between atoms: C_9  and  C_10 
REMARK    6  A    between atoms: N_15  and  C_14 
REMARK    7  A    between atoms: N_20  and  C_19 
REMARK       I    between atoms: C_22  and  N_20 
ROOT
ATOM      1  C   LIG d   1      -6.925  76.157 117.032  0.00  0.00     0.161 C 
ATOM      2  C   LIG d   1      -6.417  77.466 116.970  0.00  0.00     0.016 C 
ATOM      3  C   LIG d   1      -7.087  78.587 117.511  0.00  0.00     0.038 C 
ATOM      4  C   LIG d   1      -8.247  78.454 118.289  0.00  0.00     0.028 C 
ATOM      5  C   LIG d   1      -9.064  77.212 117.950  0.00  0.00    -0.047 C 
ATOM      6  C   LIG d   1      -8.134  75.977 117.974  0.00  0.00     0.091 C 
ENDROOT
BRANCH   1   7
ATOM      7  O   LIG d   1      -5.871  75.241 117.388  0.00  0.00    -0.368 OA
BRANCH   7   8
ATOM      8  C   LIG d   1      -5.330  74.441 116.308  0.00  0.00     0.119 C 
BRANCH   8   9
ATOM      9  C   LIG d   1      -3.894  74.934 116.043  0.00  0.00     0.028 C 
ATOM     10  C   LIG d   1      -3.216  75.477 117.313  0.00  0.00     0.006 C 
ENDBRANCH   8   9
BRANCH   8  11
ATOM     11  C   LIG d   1      -6.089  74.684 115.001  0.00  0.00     0.028 C 
ATOM     12  C   LIG d   1      -5.320  74.191 113.765  0.00  0.00     0.006 C 
ENDBRANCH   8  11
ENDBRANCH   7   8
ENDBRANCH   1   7
BRANCH   6  13
ATOM     13  N   LIG d   1      -8.836  74.731 117.571  0.00  0.00    -0.311 N 
ATOM     14  C   LIG d   1      -9.623  74.035 118.389  0.00  0.00     0.210 C 
ATOM     15  C   LIG d   1     -10.234  72.770 117.779  0.00  0.00     0.109 C 
ATOM     16  O   LIG d   1      -9.899  74.363 119.553  0.00  0.00    -0.276 OA
ATOM     17  H   LIG d   1      -8.693  74.410 116.633  0.00  0.00     0.149 HD
ENDBRANCH   6  13
BRANCH   5  18
ATOM     18  N   LIG d   1     -10.167  77.124 118.926  0.00  0.00     0.381 N 
ATOM     19  H   LIG d   1      -9.824  76.759 119.792  0.00  0.00    -0.090 HD
ATOM     20  H   LIG d   1     -10.864  76.493 118.572  0.00  0.00    -0.090 HD
ATOM     21  H   LIG d   1     -10.566  78.025 119.071  0.00  0.00    -0.090 HD
ENDBRANCH   5  18
BRANCH   3  22
ATOM     22  C   LIG d   1      -6.618  79.864 117.241  0.00  0.00     0.382 C 
ATOM     23  O   LIG d   1      -7.423  80.775 116.932  0.00  0.00    -0.241 OA
ATOM     24  O   LIG d   1      -5.396  80.105 117.260  0.00  0.00    -0.241 OA
ENDBRANCH   3  22
TORSDOF 7
ENDMDL
MODEL 8
REMARK VINA RESULT:      -4.6     17.296     19.999
REMARK  7 active torsions:
REMARK  status: ('A' for Active; 'I' for Inactive)
REMARK    1  A    between atoms: C_2  and  C_3 
REMARK    2  A    between atoms: C_3  and  O_6 
REMARK    3  A    between atoms: C_3  and  C_4 
REMARK    4  A    between atoms: C_7  and  O_6 
REMARK    5  A    between atoms: C_9  and  C_10 
REMARK    6  A    between atoms: N_15  and  C_14 
REMARK    7  A    between atoms: N_20  and  C_19 
REMARK       I    between atoms: C_22  and  N_20 
ROOT
ATOM      1  C   LIG d   1      11.408  76.477 115.401  0.00  0.00     0.161 C 
ATOM      2  C   LIG d   1      10.038  76.777 115.324  0.00  0.00     0.016 C 
ATOM      3  C   LIG d   1       9.538  78.033 114.910  0.00  0.00     0.038 C 
ATOM      4  C   LIG d   1      10.379  79.033 114.397  0.00  0.00     0.028 C 
ATOM      5  C   LIG d   1      11.806  78.957 114.929  0.00  0.00    -0.047 C 
ATOM      6  C   LIG d   1      12.336  77.517 114.739  0.00  0.00     0.091 C 
ENDROOT
BRANCH   1   7
ATOM      7  O   LIG d   1      11.653  75.167 114.852  0.00  0.00    -0.368 OA
BRANCH   7   8
ATOM      8  C   LIG d   1      11.969  74.125 115.808  0.00  0.00     0.119 C 
BRANCH   8   9
ATOM      9  C   LIG d   1      13.468  73.798 115.657  0.00  0.00     0.028 C 
ATOM     10  C   LIG d   1      14.275  74.151 116.917  0.00  0.00     0.006 C 
ENDBRANCH   8   9
BRANCH   8  11
ATOM     11  C   LIG d   1      11.235  72.822 115.475  0.00  0.00     0.028 C 
ATOM     12  C   LIG d   1      11.204  71.838 116.655  0.00  0.00     0.006 C 
ENDBRANCH   8  11
ENDBRANCH   7   8
ENDBRANCH   1   7
BRANCH   6  13
ATOM     13  N   LIG d   1      13.696  77.334 115.310  0.00  0.00    -0.311 N 
ATOM     14  C   LIG d   1      14.809  77.375 114.580  0.00  0.00     0.210 C 
ATOM     15  C   LIG d   1      16.105  77.142 115.363  0.00  0.00     0.109 C 
ATOM     16  O   LIG d   1      14.849  77.615 113.364  0.00  0.00    -0.276 OA
ATOM     17  H   LIG d   1      13.758  77.166 116.295  0.00  0.00     0.149 HD
ENDBRANCH   6  13
BRANCH   5  18
ATOM     18  N   LIG d   1      12.604  79.967 114.210  0.00  0.00     0.381 N 
ATOM     19  H   LIG d   1      12.095  80.298 113.415  0.00  0.00    -0.090 HD
ATOM     20  H   LIG d   1      13.453  79.539 113.885  0.00  0.00    -0.090 HD
ATOM     21  H   LIG d   1      12.818  80.728 114.817  0.00  0.00    -0.090 HD
ENDBRANCH   5  18
BRANCH   3  22
ATOM     22  C   LIG d   1       8.187  78.314 115.045  0.00  0.00     0.382 C 
ATOM     23  O   LIG d   1       7.339  77.628 114.426  0.00  0.00    -0.241 OA
ATOM     24  O   LIG d   1       7.808  79.273 115.744  0.00  0.00    -0.241 OA
ENDBRANCH   3  22
TORSDOF 7
ENDMDL
MODEL 9
REMARK VINA RESULT:      -4.5      4.218      5.992
REMARK  7 active torsions:
REMARK  status: ('A' for Active; 'I' for Inactive)
REMARK    1  A    between atoms: C_2  and  C_3 
REMARK    2  A    between atoms: C_3  and  O_6 
REMARK    3  A    between atoms: C_3  and  C_4 
REMARK    4  A    between atoms: C_7  and  O_6 
REMARK    5  A    between atoms: C_9  and  C_10 
REMARK    6  A    between atoms: N_15  and  C_14 
REMARK    7  A    between atoms: N_20  and  C_19 
REMARK       I    between atoms: C_22  and  N_20 
ROOT
ATOM      1  C   LIG d   1      -4.102  78.111 115.993  0.00  0.00     0.161 C 
ATOM      2  C   LIG d   1      -4.432  79.462 116.192  0.00  0.00     0.016 C 
ATOM      3  C   LIG d   1      -3.550  80.528 115.907  0.00  0.00     0.038 C 
ATOM      4  C   LIG d   1      -2.324  80.323 115.256  0.00  0.00     0.028 C 
ATOM      5  C   LIG d   1      -1.736  78.937 115.496  0.00  0.00    -0.047 C 
ATOM      6  C   LIG d   1      -2.812  77.873 115.180  0.00  0.00     0.091 C 
ENDROOT
BRANCH   1   7
ATOM      7  O   LIG d   1      -5.212  77.421 115.384  0.00  0.00    -0.368 OA
BRANCH   7   8
ATOM      8  C   LIG d   1      -5.776  76.324 116.144  0.00  0.00     0.119 C 
BRANCH   8   9
ATOM      9  C   LIG d   1      -6.382  75.327 115.138  0.00  0.00     0.028 C 
ATOM     10  C   LIG d   1      -5.309  74.613 114.300  0.00  0.00     0.006 C 
ENDBRANCH   8   9
BRANCH   8  11
ATOM     11  C   LIG d   1      -6.949  76.791 117.010  0.00  0.00     0.028 C 
ATOM     12  C   LIG d   1      -7.727  75.625 117.639  0.00  0.00     0.006 C 
ENDBRANCH   8  11
ENDBRANCH   7   8
ENDBRANCH   1   7
BRANCH   6  13
ATOM     13  N   LIG d   1      -2.347  76.492 115.469  0.00  0.00    -0.311 N 
ATOM     14  C   LIG d   1      -1.742  75.719 114.569  0.00  0.00     0.210 C 
ATOM     15  C   LIG d   1      -1.361  74.321 115.068  0.00  0.00     0.109 C 
ATOM     16  O   LIG d   1      -1.455  76.069 113.414  0.00  0.00    -0.276 OA
ATOM     17  H   LIG d   1      -2.511  76.139 116.392  0.00  0.00     0.149 HD
ENDBRANCH   6  13
BRANCH   5  18
ATOM     18  N   LIG d   1      -0.533  78.810 114.652  0.00  0.00     0.381 N 
ATOM     19  H   LIG d   1      -0.518  77.910 114.216  0.00  0.00    -0.090 HD
ATOM     20  H   LIG d   1       0.282  78.893 115.233  0.00  0.00    -0.090 HD
ATOM     21  H   LIG d   1      -0.528  79.524 113.956  0.00  0.00    -0.090 HD
ENDBRANCH   5  18
BRANCH   3  22
ATOM     22  C   LIG d   1      -3.874  81.815 116.310  0.00  0.00     0.382 C 
ATOM     23  O   LIG d   1      -3.084  82.461 117.040  0.00  0.00    -0.241 OA
ATOM     24  O   LIG d   1      -4.966  82.321 115.989  0.00  0.00    -0.241 OA
ENDBRANCH   3  22
TORSDOF 7
ENDMDL
