MODEL 1
REMARK VINA RESULT:      -5.4      0.000      0.000
REMARK  7 active torsions:
REMARK  status: ('A' for Active; 'I' for Inactive)
REMARK    1  A    between atoms: C_2  and  C_3 
REMARK    2  A    between atoms: C_3  and  O_6 
REMARK    3  A    between atoms: C_3  and  C_4 
REMARK    4  A    between atoms: C_7  and  O_6 
REMARK    5  A    between atoms: C_9  and  C_10 
REMARK    6  A    between atoms: N_15  and  C_14 
REMARK    7  A    between atoms: N_20  and  C_19 
REMARK       I    between atoms: C_22  and  N_20 
ROOT
ATOM      1  C   LIG d   1      -6.154  77.826 117.073  0.00  0.00     0.161 C 
ATOM      2  C   LIG d   1      -7.532  77.676 117.302  0.00  0.00     0.016 C 
ATOM      3  C   LIG d   1      -8.335  78.678 117.895  0.00  0.00     0.038 C 
ATOM      4  C   LIG d   1      -7.841  79.963 118.163  0.00  0.00     0.028 C 
ATOM      5  C   LIG d   1      -6.337  79.993 118.415  0.00  0.00    -0.047 C 
ATOM      6  C   LIG d   1      -5.620  79.262 117.257  0.00  0.00     0.091 C 
ENDROOT
BRANCH   1   7
ATOM      7  O   LIG d   1      -5.821  77.331 115.761  0.00  0.00    -0.368 OA
BRANCH   7   8
ATOM      8  C   LIG d   1      -5.044  76.108 115.720  0.00  0.00     0.119 C 
BRANCH   8   9
ATOM      9  C   LIG d   1      -3.965  76.282 114.634  0.00  0.00     0.028 C 
ATOM     10  C   LIG d   1      -2.552  75.966 115.154  0.00  0.00     0.006 C 
ENDBRANCH   8   9
BRANCH   8  11
ATOM     11  C   LIG d   1      -5.896  74.923 115.258  0.00  0.00     0.028 C 
ATOM     12  C   LIG d   1      -6.531  74.154 116.428  0.00  0.00     0.006 C 
ENDBRANCH   8  11
ENDBRANCH   7   8
ENDBRANCH   1   7
BRANCH   6  13
ATOM     13  N   LIG d   1      -4.151  79.172 117.467  0.00  0.00    -0.311 N 
ATOM     14  C   LIG d   1      -3.258  79.408 116.507  0.00  0.00     0.210 C 
ATOM     15  C   LIG d   1      -1.795  79.240 116.930  0.00  0.00     0.109 C 
ATOM     16  O   LIG d   1      -3.537  79.771 115.355  0.00  0.00    -0.276 OA
ATOM     17  H   LIG d   1      -3.836  78.914 118.381  0.00  0.00     0.149 HD
ENDBRANCH   6  13
BRANCH   5  18
ATOM     18  N   LIG d   1      -5.935  81.407 118.543  0.00  0.00     0.381 N 
ATOM     19  H   LIG d   1      -5.578  81.575 119.462  0.00  0.00    -0.090 HD
ATOM     20  H   LIG d   1      -6.744  81.988 118.408  0.00  0.00    -0.090 HD
ATOM     21  H   LIG d   1      -5.241  81.627 117.863  0.00  0.00    -0.090 HD
ENDBRANCH   5  18
BRANCH   3  22
ATOM     22  C   LIG d   1      -9.640  78.384 118.263  0.00  0.00     0.382 C 
ATOM     23  O   LIG d   1     -10.217  79.078 119.134  0.00  0.00    -0.241 OA
ATOM     24  O   LIG d   1     -10.231  77.405 117.768  0.00  0.00    -0.241 OA
ENDBRANCH   3  22
TORSDOF 7
ENDMDL
MODEL 2
REMARK VINA RESULT:      -5.4     12.283     14.168
REMARK  7 active torsions:
REMARK  status: ('A' for Active; 'I' for Inactive)
REMARK    1  A    between atoms: C_2  and  C_3 
REMARK    2  A    between atoms: C_3  and  O_6 
REMARK    3  A    between atoms: C_3  and  C_4 
REMARK    4  A    between atoms: C_7  and  O_6 
REMARK    5  A    between atoms: C_9  and  C_10 
REMARK    6  A    between atoms: N_15  and  C_14 
REMARK    7  A    between atoms: N_20  and  C_19 
REMARK       I    between atoms: C_22  and  N_20 
ROOT
ATOM      1  C   LIG d   1      -6.609  91.326 117.706  0.00  0.00     0.161 C 
ATOM      2  C   LIG d   1      -7.390  92.456 117.413  0.00  0.00     0.016 C 
ATOM      3  C   LIG d   1      -6.882  93.775 117.416  0.00  0.00     0.038 C 
ATOM      4  C   LIG d   1      -5.513  94.042 117.566  0.00  0.00     0.028 C 
ATOM      5  C   LIG d   1      -4.772  92.975 118.364  0.00  0.00    -0.047 C 
ATOM      6  C   LIG d   1      -5.089  91.587 117.763  0.00  0.00     0.091 C 
ENDROOT
BRANCH   1   7
ATOM      7  O   LIG d   1      -6.901  90.272 116.766  0.00  0.00    -0.368 OA
BRANCH   7   8
ATOM      8  C   LIG d   1      -7.561  90.676 115.541  0.00  0.00     0.119 C 
BRANCH   8   9
ATOM      9  C   LIG d   1      -8.341  89.457 115.013  0.00  0.00     0.028 C 
ATOM     10  C   LIG d   1      -9.040  88.674 116.137  0.00  0.00     0.006 C 
ENDBRANCH   8   9
BRANCH   8  11
ATOM     11  C   LIG d   1      -6.545  91.014 114.446  0.00  0.00     0.028 C 
ATOM     12  C   LIG d   1      -6.882  92.316 113.702  0.00  0.00     0.006 C 
ENDBRANCH   8  11
ENDBRANCH   7   8
ENDBRANCH   1   7
BRANCH   6  13
ATOM     13  N   LIG d   1      -4.471  90.479 118.536  0.00  0.00    -0.311 N 
ATOM     14  C   LIG d   1      -3.333  89.884 118.183  0.00  0.00     0.210 C 
ATOM     15  C   LIG d   1      -2.881  88.751 119.109  0.00  0.00     0.109 C 
ATOM     16  O   LIG d   1      -2.638  90.209 117.208  0.00  0.00    -0.276 OA
ATOM     17  H   LIG d   1      -4.952  90.174 119.359  0.00  0.00     0.149 HD
ENDBRANCH   6  13
BRANCH   5  18
ATOM     18  N   LIG d   1      -3.335  93.308 118.326  0.00  0.00     0.381 N 
ATOM     19  H   LIG d   1      -3.136  94.026 118.993  0.00  0.00    -0.090 HD
ATOM     20  H   LIG d   1      -3.106  93.655 117.411  0.00  0.00    -0.090 HD
ATOM     21  H   LIG d   1      -2.792  92.497 118.527  0.00  0.00    -0.090 HD
ENDBRANCH   5  18
BRANCH   3  22
ATOM     22  C   LIG d   1      -7.754  94.848 117.307  0.00  0.00     0.382 C 
ATOM     23  O   LIG d   1      -7.355  96.009 117.564  0.00  0.00    -0.241 OA
ATOM     24  O   LIG d   1      -8.947  94.663 116.998  0.00  0.00    -0.241 OA
ENDBRANCH   3  22
TORSDOF 7
ENDMDL
MODEL 3
REMARK VINA RESULT:      -5.4     11.966     14.134
REMARK  7 active torsions:
REMARK  status: ('A' for Active; 'I' for Inactive)
REMARK    1  A    between atoms: C_2  and  C_3 
REMARK    2  A    between atoms: C_3  and  O_6 
REMARK    3  A    between atoms: C_3  and  C_4 
REMARK    4  A    between atoms: C_7  and  O_6 
REMARK    5  A    between atoms: C_9  and  C_10 
REMARK    6  A    between atoms: N_15  and  C_14 
REMARK    7  A    between atoms: N_20  and  C_19 
REMARK       I    between atoms: C_22  and  N_20 
ROOT
ATOM      1  C   LIG d   1      -4.931  91.046 116.618  0.00  0.00     0.161 C 
ATOM      2  C   LIG d   1      -3.783  90.244 116.731  0.00  0.00     0.016 C 
ATOM      3  C   LIG d   1      -2.694  90.559 117.576  0.00  0.00     0.038 C 
ATOM      4  C   LIG d   1      -2.746  91.626 118.485  0.00  0.00     0.028 C 
ATOM      5  C   LIG d   1      -3.674  92.753 118.045  0.00  0.00    -0.047 C 
ATOM      6  C   LIG d   1      -5.053  92.154 117.685  0.00  0.00     0.091 C 
ENDROOT
BRANCH   1   7
ATOM      7  O   LIG d   1      -6.110  90.216 116.622  0.00  0.00    -0.368 OA
BRANCH   7   8
ATOM      8  C   LIG d   1      -6.718  89.967 115.330  0.00  0.00     0.119 C 
BRANCH   8   9
ATOM      9  C   LIG d   1      -6.284  91.106 114.387  0.00  0.00     0.028 C 
ATOM     10  C   LIG d   1      -7.481  91.897 113.834  0.00  0.00     0.006 C 
ENDBRANCH   8   9
BRANCH   8  11
ATOM     11  C   LIG d   1      -8.244  90.062 115.406  0.00  0.00     0.028 C 
ATOM     12  C   LIG d   1      -8.899  88.760 115.894  0.00  0.00     0.006 C 
ENDBRANCH   8  11
ENDBRANCH   7   8
ENDBRANCH   1   7
BRANCH   6  13
ATOM     13  N   LIG d   1      -5.997  93.178 117.164  0.00  0.00    -0.311 N 
ATOM     14  C   LIG d   1      -7.258  93.289 117.575  0.00  0.00     0.210 C 
ATOM     15  C   LIG d   1      -8.065  94.399 116.894  0.00  0.00     0.109 C 
ATOM     16  O   LIG d   1      -7.777  92.595 118.462  0.00  0.00    -0.276 OA
ATOM     17  H   LIG d   1      -5.649  93.804 116.463  0.00  0.00     0.149 HD
ENDBRANCH   6  13
BRANCH   5  18
ATOM     18  N   LIG d   1      -3.739  93.733 119.146  0.00  0.00     0.381 N 
ATOM     19  H   LIG d   1      -4.472  93.482 119.780  0.00  0.00    -0.090 HD
ATOM     20  H   LIG d   1      -3.949  94.638 118.763  0.00  0.00    -0.090 HD
ATOM     21  H   LIG d   1      -2.868  93.762 119.628  0.00  0.00    -0.090 HD
ENDBRANCH   5  18
BRANCH   3  22
ATOM     22  C   LIG d   1      -1.521  89.825 117.488  0.00  0.00     0.382 C 
ATOM     23  O   LIG d   1      -0.521  90.309 116.907  0.00  0.00    -0.241 OA
ATOM     24  O   LIG d   1      -1.465  88.667 117.943  0.00  0.00    -0.241 OA
ENDBRANCH   3  22
TORSDOF 7
ENDMDL
MODEL 4
REMARK VINA RESULT:      -4.9      2.725      4.206
REMARK  7 active torsions:
REMARK  status: ('A' for Active; 'I' for Inactive)
REMARK    1  A    between atoms: C_2  and  C_3 
REMARK    2  A    between atoms: C_3  and  O_6 
REMARK    3  A    between atoms: C_3  and  C_4 
REMARK    4  A    between atoms: C_7  and  O_6 
REMARK    5  A    between atoms: C_9  and  C_10 
REMARK    6  A    between atoms: N_15  and  C_14 
REMARK    7  A    between atoms: N_20  and  C_19 
REMARK       I    between atoms: C_22  and  N_20 
ROOT
ATOM      1  C   LIG d   1      -4.222  77.034 116.972  0.00  0.00     0.161 C 
ATOM      2  C   LIG d   1      -4.966  78.156 117.376  0.00  0.00     0.016 C 
ATOM      3  C   LIG d   1      -4.541  79.488 117.166  0.00  0.00     0.038 C 
ATOM      4  C   LIG d   1      -3.408  79.792 116.398  0.00  0.00     0.028 C 
ATOM      5  C   LIG d   1      -2.358  78.686 116.403  0.00  0.00    -0.047 C 
ATOM      6  C   LIG d   1      -3.037  77.348 116.035  0.00  0.00     0.091 C 
ENDROOT
BRANCH   1   7
ATOM      7  O   LIG d   1      -5.096  76.061 116.367  0.00  0.00    -0.368 OA
BRANCH   7   8
ATOM      8  C   LIG d   1      -6.236  76.588 115.646  0.00  0.00     0.119 C 
BRANCH   8   9
ATOM      9  C   LIG d   1      -7.497  75.904 116.209  0.00  0.00     0.028 C 
ATOM     10  C   LIG d   1      -8.372  76.868 117.028  0.00  0.00     0.006 C 
ENDBRANCH   8   9
BRANCH   8  11
ATOM     11  C   LIG d   1      -6.190  76.198 114.166  0.00  0.00     0.028 C 
ATOM     12  C   LIG d   1      -5.104  75.154 113.859  0.00  0.00     0.006 C 
ENDBRANCH   8  11
ENDBRANCH   7   8
ENDBRANCH   1   7
BRANCH   6  13
ATOM     13  N   LIG d   1      -2.097  76.198 116.099  0.00  0.00    -0.311 N 
ATOM     14  C   LIG d   1      -1.399  75.763 115.051  0.00  0.00     0.210 C 
ATOM     15  C   LIG d   1      -0.503  74.552 115.329  0.00  0.00     0.109 C 
ATOM     16  O   LIG d   1      -1.413  76.285 113.926  0.00  0.00    -0.276 OA
ATOM     17  H   LIG d   1      -2.001  75.736 116.982  0.00  0.00     0.149 HD
ENDBRANCH   6  13
BRANCH   5  18
ATOM     18  N   LIG d   1      -1.296  79.076 115.456  0.00  0.00     0.381 N 
ATOM     19  H   LIG d   1      -1.493  79.981 115.079  0.00  0.00    -0.090 HD
ATOM     20  H   LIG d   1      -1.278  78.416 114.699  0.00  0.00    -0.090 HD
ATOM     21  H   LIG d   1      -0.413  79.086 115.919  0.00  0.00    -0.090 HD
ENDBRANCH   5  18
BRANCH   3  22
ATOM     22  C   LIG d   1      -5.233  80.531 117.762  0.00  0.00     0.382 C 
ATOM     23  O   LIG d   1      -4.706  81.179 118.698  0.00  0.00    -0.241 OA
ATOM     24  O   LIG d   1      -6.395  80.805 117.405  0.00  0.00    -0.241 OA
ENDBRANCH   3  22
TORSDOF 7
ENDMDL
MODEL 5
REMARK VINA RESULT:      -4.8     14.250     15.980
REMARK  7 active torsions:
REMARK  status: ('A' for Active; 'I' for Inactive)
REMARK    1  A    between atoms: C_2  and  C_3 
REMARK    2  A    between atoms: C_3  and  O_6 
REMARK    3  A    between atoms: C_3  and  C_4 
REMARK    4  A    between atoms: C_7  and  O_6 
REMARK    5  A    between atoms: C_9  and  C_10 
REMARK    6  A    between atoms: N_15  and  C_14 
REMARK    7  A    between atoms: N_20  and  C_19 
REMARK       I    between atoms: C_22  and  N_20 
ROOT
ATOM      1  C   LIG d   1      -6.459  93.634 117.288  0.00  0.00     0.161 C 
ATOM      2  C   LIG d   1      -7.464  94.616 117.275  0.00  0.00     0.016 C 
ATOM      3  C   LIG d   1      -7.269  95.936 117.742  0.00  0.00     0.038 C 
ATOM      4  C   LIG d   1      -6.003  96.410 118.117  0.00  0.00     0.028 C 
ATOM      5  C   LIG d   1      -5.071  95.314 118.623  0.00  0.00    -0.047 C 
ATOM      6  C   LIG d   1      -5.041  94.164 117.590  0.00  0.00     0.091 C 
ENDROOT
BRANCH   1   7
ATOM      7  O   LIG d   1      -6.467  92.909 116.042  0.00  0.00    -0.368 OA
BRANCH   7   8
ATOM      8  C   LIG d   1      -7.233  91.680 116.026  0.00  0.00     0.119 C 
BRANCH   8   9
ATOM      9  C   LIG d   1      -6.353  90.578 116.647  0.00  0.00     0.028 C 
ATOM     10  C   LIG d   1      -5.095  90.290 115.811  0.00  0.00     0.006 C 
ENDBRANCH   8   9
BRANCH   8  11
ATOM     11  C   LIG d   1      -7.512  91.216 114.593  0.00  0.00     0.028 C 
ATOM     12  C   LIG d   1      -7.443  92.362 113.572  0.00  0.00     0.006 C 
ENDBRANCH   8  11
ENDBRANCH   7   8
ENDBRANCH   1   7
BRANCH   6  13
ATOM     13  N   LIG d   1      -4.219  93.014 118.046  0.00  0.00    -0.311 N 
ATOM     14  C   LIG d   1      -2.928  92.872 117.749  0.00  0.00     0.210 C 
ATOM     15  C   LIG d   1      -2.273  91.603 118.302  0.00  0.00     0.109 C 
ATOM     16  O   LIG d   1      -2.256  93.693 117.106  0.00  0.00    -0.276 OA
ATOM     17  H   LIG d   1      -4.677  92.316 118.599  0.00  0.00     0.149 HD
ENDBRANCH   6  13
BRANCH   5  18
ATOM     18  N   LIG d   1      -3.747  95.924 118.848  0.00  0.00     0.381 N 
ATOM     19  H   LIG d   1      -3.120  95.242 119.226  0.00  0.00    -0.090 HD
ATOM     20  H   LIG d   1      -3.841  96.670 119.514  0.00  0.00    -0.090 HD
ATOM     21  H   LIG d   1      -3.385  96.279 117.990  0.00  0.00    -0.090 HD
ENDBRANCH   5  18
BRANCH   3  22
ATOM     22  C   LIG d   1      -8.357  96.785 117.876  0.00  0.00     0.382 C 
ATOM     23  O   LIG d   1      -8.585  97.653 116.999  0.00  0.00    -0.241 OA
ATOM     24  O   LIG d   1      -9.086  96.724 118.883  0.00  0.00    -0.241 OA
ENDBRANCH   3  22
TORSDOF 7
ENDMDL
MODEL 6
REMARK VINA RESULT:      -4.8     15.010     17.772
REMARK  7 active torsions:
REMARK  status: ('A' for Active; 'I' for Inactive)
REMARK    1  A    between atoms: C_2  and  C_3 
REMARK    2  A    between atoms: C_3  and  O_6 
REMARK    3  A    between atoms: C_3  and  C_4 
REMARK    4  A    between atoms: C_7  and  O_6 
REMARK    5  A    between atoms: C_9  and  C_10 
REMARK    6  A    between atoms: N_15  and  C_14 
REMARK    7  A    between atoms: N_20  and  C_19 
REMARK       I    between atoms: C_22  and  N_20 
ROOT
ATOM      1  C   LIG d   1      11.250  76.764 114.773  0.00  0.00     0.161 C 
ATOM      2  C   LIG d   1       9.902  77.155 114.831  0.00  0.00     0.016 C 
ATOM      3  C   LIG d   1       9.469  78.486 114.629  0.00  0.00     0.038 C 
ATOM      4  C   LIG d   1      10.345  79.494 114.202  0.00  0.00     0.028 C 
ATOM      5  C   LIG d   1      11.792  79.257 114.621  0.00  0.00    -0.047 C 
ATOM      6  C   LIG d   1      12.208  77.829 114.199  0.00  0.00     0.091 C 
ENDROOT
BRANCH   1   7
ATOM      7  O   LIG d   1      11.370  75.532 114.035  0.00  0.00    -0.368 OA
BRANCH   7   8
ATOM      8  C   LIG d   1      11.234  74.312 114.804  0.00  0.00     0.119 C 
BRANCH   8   9
ATOM      9  C   LIG d   1      12.418  74.252 115.789  0.00  0.00     0.028 C 
ATOM     10  C   LIG d   1      11.959  74.189 117.255  0.00  0.00     0.006 C 
ENDBRANCH   8   9
BRANCH   8  11
ATOM     11  C   LIG d   1      11.382  73.074 113.915  0.00  0.00     0.028 C 
ATOM     12  C   LIG d   1      10.818  71.801 114.567  0.00  0.00     0.006 C 
ENDBRANCH   8  11
ENDBRANCH   7   8
ENDBRANCH   1   7
BRANCH   6  13
ATOM     13  N   LIG d   1      13.583  77.484 114.646  0.00  0.00    -0.311 N 
ATOM     14  C   LIG d   1      14.671  77.710 113.912  0.00  0.00     0.210 C 
ATOM     15  C   LIG d   1      15.988  77.260 114.552  0.00  0.00     0.109 C 
ATOM     16  O   LIG d   1      14.674  78.270 112.805  0.00  0.00    -0.276 OA
ATOM     17  H   LIG d   1      13.676  77.055 115.546  0.00  0.00     0.149 HD
ENDBRANCH   6  13
BRANCH   5  18
ATOM     18  N   LIG d   1      12.616  80.308 113.995  0.00  0.00     0.381 N 
ATOM     19  H   LIG d   1      13.220  80.717 114.679  0.00  0.00    -0.090 HD
ATOM     20  H   LIG d   1      12.011  81.026 113.638  0.00  0.00    -0.090 HD
ATOM     21  H   LIG d   1      13.156  79.921 113.253  0.00  0.00    -0.090 HD
ENDBRANCH   5  18
BRANCH   3  22
ATOM     22  C   LIG d   1       8.151  78.827 114.892  0.00  0.00     0.382 C 
ATOM     23  O   LIG d   1       7.882  79.612 115.833  0.00  0.00    -0.241 OA
ATOM     24  O   LIG d   1       7.223  78.325 114.229  0.00  0.00    -0.241 OA
ENDBRANCH   3  22
TORSDOF 7
ENDMDL
MODEL 7
REMARK VINA RESULT:      -4.7      2.740      5.847
REMARK  7 active torsions:
REMARK  status: ('A' for Active; 'I' for Inactive)
REMARK    1  A    between atoms: C_2  and  C_3 
REMARK    2  A    between atoms: C_3  and  O_6 
REMARK    3  A    between atoms: C_3  and  C_4 
REMARK    4  A    between atoms: C_7  and  O_6 
REMARK    5  A    between atoms: C_9  and  C_10 
REMARK    6  A    between atoms: N_15  and  C_14 
REMARK    7  A    between atoms: N_20  and  C_19 
REMARK       I    between atoms: C_22  and  N_20 
ROOT
ATOM      1  C   LIG d   1      -3.780  76.057 116.260  0.00  0.00     0.161 C 
ATOM      2  C   LIG d   1      -2.841  75.378 115.464  0.00  0.00     0.016 C 
ATOM      3  C   LIG d   1      -1.450  75.623 115.522  0.00  0.00     0.038 C 
ATOM      4  C   LIG d   1      -0.885  76.462 116.493  0.00  0.00     0.028 C 
ATOM      5  C   LIG d   1      -1.836  77.549 116.983  0.00  0.00    -0.047 C 
ATOM      6  C   LIG d   1      -3.172  76.895 117.404  0.00  0.00     0.091 C 
ENDROOT
BRANCH   1   7
ATOM      7  O   LIG d   1      -4.744  75.122 116.782  0.00  0.00    -0.368 OA
BRANCH   7   8
ATOM      8  C   LIG d   1      -5.800  74.721 115.874  0.00  0.00     0.119 C 
BRANCH   8   9
ATOM      9  C   LIG d   1      -6.545  75.997 115.438  0.00  0.00     0.028 C 
ATOM     10  C   LIG d   1      -7.605  76.437 116.463  0.00  0.00     0.006 C 
ENDBRANCH   8   9
BRANCH   8  11
ATOM     11  C   LIG d   1      -6.849  73.861 116.585  0.00  0.00     0.028 C 
ATOM     12  C   LIG d   1      -6.856  72.404 116.096  0.00  0.00     0.006 C 
ENDBRANCH   8  11
ENDBRANCH   7   8
ENDBRANCH   1   7
BRANCH   6  13
ATOM     13  N   LIG d   1      -4.188  77.898 117.816  0.00  0.00    -0.311 N 
ATOM     14  C   LIG d   1      -4.583  78.904 117.038  0.00  0.00     0.210 C 
ATOM     15  C   LIG d   1      -5.627  79.834 117.665  0.00  0.00     0.109 C 
ATOM     16  O   LIG d   1      -4.192  79.096 115.877  0.00  0.00    -0.276 OA
ATOM     17  H   LIG d   1      -4.581  77.799 118.732  0.00  0.00     0.149 HD
ENDBRANCH   6  13
BRANCH   5  18
ATOM     18  N   LIG d   1      -1.167  78.262 118.088  0.00  0.00     0.381 N 
ATOM     19  H   LIG d   1      -1.838  78.503 118.790  0.00  0.00    -0.090 HD
ATOM     20  H   LIG d   1      -0.765  79.111 117.731  0.00  0.00    -0.090 HD
ATOM     21  H   LIG d   1      -0.455  77.688 118.482  0.00  0.00    -0.090 HD
ENDBRANCH   5  18
BRANCH   3  22
ATOM     22  C   LIG d   1      -0.613  75.056 114.574  0.00  0.00     0.382 C 
ATOM     23  O   LIG d   1      -0.081  73.941 114.794  0.00  0.00    -0.241 OA
ATOM     24  O   LIG d   1      -0.346  75.665 113.520  0.00  0.00    -0.241 OA
ENDBRANCH   3  22
TORSDOF 7
ENDMDL
MODEL 8
REMARK VINA RESULT:      -4.7     13.477     15.535
REMARK  7 active torsions:
REMARK  status: ('A' for Active; 'I' for Inactive)
REMARK    1  A    between atoms: C_2  and  C_3 
REMARK    2  A    between atoms: C_3  and  O_6 
REMARK    3  A    between atoms: C_3  and  C_4 
REMARK    4  A    between atoms: C_7  and  O_6 
REMARK    5  A    between atoms: C_9  and  C_10 
REMARK    6  A    between atoms: N_15  and  C_14 
REMARK    7  A    between atoms: N_20  and  C_19 
REMARK       I    between atoms: C_22  and  N_20 
ROOT
ATOM      1  C   LIG d   1      -4.510  93.184 117.362  0.00  0.00     0.161 C 
ATOM      2  C   LIG d   1      -4.382  94.388 118.075  0.00  0.00     0.016 C 
ATOM      3  C   LIG d   1      -5.393  95.375 118.124  0.00  0.00     0.038 C 
ATOM      4  C   LIG d   1      -6.669  95.157 117.583  0.00  0.00     0.028 C 
ATOM      5  C   LIG d   1      -6.673  94.167 116.422  0.00  0.00    -0.047 C 
ATOM      6  C   LIG d   1      -5.936  92.880 116.858  0.00  0.00     0.091 C 
ENDROOT
BRANCH   1   7
ATOM      7  O   LIG d   1      -4.016  92.090 118.159  0.00  0.00    -0.368 OA
BRANCH   7   8
ATOM      8  C   LIG d   1      -2.802  91.455 117.687  0.00  0.00     0.119 C 
BRANCH   8   9
ATOM      9  C   LIG d   1      -3.113  89.961 117.472  0.00  0.00     0.028 C 
ATOM     10  C   LIG d   1      -1.884  89.066 117.702  0.00  0.00     0.006 C 
ENDBRANCH   8   9
BRANCH   8  11
ATOM     11  C   LIG d   1      -1.704  91.491 118.754  0.00  0.00     0.028 C 
ATOM     12  C   LIG d   1      -0.704  92.639 118.543  0.00  0.00     0.006 C 
ENDBRANCH   8  11
ENDBRANCH   7   8
ENDBRANCH   1   7
BRANCH   6  13
ATOM     13  N   LIG d   1      -5.821  91.892 115.754  0.00  0.00    -0.311 N 
ATOM     14  C   LIG d   1      -6.271  90.641 115.840  0.00  0.00     0.210 C 
ATOM     15  C   LIG d   1      -6.034  89.781 114.594  0.00  0.00     0.109 C 
ATOM     16  O   LIG d   1      -6.872  90.171 116.817  0.00  0.00    -0.276 OA
ATOM     17  H   LIG d   1      -5.374  92.198 114.912  0.00  0.00     0.149 HD
ENDBRANCH   6  13
BRANCH   5  18
ATOM     18  N   LIG d   1      -8.079  93.929 116.046  0.00  0.00     0.381 N 
ATOM     19  H   LIG d   1      -8.606  94.773 116.150  0.00  0.00    -0.090 HD
ATOM     20  H   LIG d   1      -8.468  93.236 116.662  0.00  0.00    -0.090 HD
ATOM     21  H   LIG d   1      -8.131  93.611 115.103  0.00  0.00    -0.090 HD
ENDBRANCH   5  18
BRANCH   3  22
ATOM     22  C   LIG d   1      -5.119  96.613 118.685  0.00  0.00     0.382 C 
ATOM     23  O   LIG d   1      -3.971  97.109 118.579  0.00  0.00    -0.241 OA
ATOM     24  O   LIG d   1      -5.992  97.220 119.334  0.00  0.00    -0.241 OA
ENDBRANCH   3  22
TORSDOF 7
ENDMDL
MODEL 9
REMARK VINA RESULT:      -4.7     13.412     15.723
REMARK  7 active torsions:
REMARK  status: ('A' for Active; 'I' for Inactive)
REMARK    1  A    between atoms: C_2  and  C_3 
REMARK    2  A    between atoms: C_3  and  O_6 
REMARK    3  A    between atoms: C_3  and  C_4 
REMARK    4  A    between atoms: C_7  and  O_6 
REMARK    5  A    between atoms: C_9  and  C_10 
REMARK    6  A    between atoms: N_15  and  C_14 
REMARK    7  A    between atoms: N_20  and  C_19 
REMARK       I    between atoms: C_22  and  N_20 
ROOT
ATOM      1  C   LIG d   1      -4.849  92.793 117.031  0.00  0.00     0.161 C 
ATOM      2  C   LIG d   1      -3.719  91.964 117.129  0.00  0.00     0.016 C 
ATOM      3  C   LIG d   1      -2.518  92.357 117.764  0.00  0.00     0.038 C 
ATOM      4  C   LIG d   1      -2.417  93.558 118.481  0.00  0.00     0.028 C 
ATOM      5  C   LIG d   1      -3.365  94.644 117.981  0.00  0.00    -0.047 C 
ATOM      6  C   LIG d   1      -4.796  94.064 117.904  0.00  0.00     0.091 C 
ENDROOT
BRANCH   1   7
ATOM      7  O   LIG d   1      -6.038  92.034 117.324  0.00  0.00    -0.368 OA
BRANCH   7   8
ATOM      8  C   LIG d   1      -6.914  91.764 116.202  0.00  0.00     0.119 C 
BRANCH   8   9
ATOM      9  C   LIG d   1      -6.896  90.242 115.956  0.00  0.00     0.028 C 
ATOM     10  C   LIG d   1      -5.746  89.811 115.029  0.00  0.00     0.006 C 
ENDBRANCH   8   9
BRANCH   8  11
ATOM     11  C   LIG d   1      -6.376  92.389 114.911  0.00  0.00     0.028 C 
ATOM     12  C   LIG d   1      -7.479  92.669 113.879  0.00  0.00     0.006 C 
ENDBRANCH   8  11
ENDBRANCH   7   8
ENDBRANCH   1   7
BRANCH   6  13
ATOM     13  N   LIG d   1      -5.771  95.036 117.344  0.00  0.00    -0.311 N 
ATOM     14  C   LIG d   1      -6.858  95.442 117.998  0.00  0.00     0.210 C 
ATOM     15  C   LIG d   1      -7.741  96.432 117.231  0.00  0.00     0.109 C 
ATOM     16  O   LIG d   1      -7.158  95.102 119.152  0.00  0.00    -0.276 OA
ATOM     17  H   LIG d   1      -5.589  95.387 116.425  0.00  0.00     0.149 HD
ENDBRANCH   6  13
BRANCH   5  18
ATOM     18  N   LIG d   1      -3.254  95.791 118.902  0.00  0.00     0.381 N 
ATOM     19  H   LIG d   1      -3.677  96.598 118.489  0.00  0.00    -0.090 HD
ATOM     20  H   LIG d   1      -2.281  95.990 119.058  0.00  0.00    -0.090 HD
ATOM     21  H   LIG d   1      -3.700  95.578 119.767  0.00  0.00    -0.090 HD
ENDBRANCH   5  18
BRANCH   3  22
ATOM     22  C   LIG d   1      -1.388  91.561 117.650  0.00  0.00     0.382 C 
ATOM     23  O   LIG d   1      -0.313  91.919 118.188  0.00  0.00    -0.241 OA
ATOM     24  O   LIG d   1      -1.420  90.512 116.980  0.00  0.00    -0.241 OA
ENDBRANCH   3  22
TORSDOF 7
ENDMDL
