MODEL 1
REMARK VINA RESULT:      -4.5      0.000      0.000
REMARK  7 active torsions:
REMARK  status: ('A' for Active; 'I' for Inactive)
REMARK    1  A    between atoms: C_2  and  C_3 
REMARK    2  A    between atoms: C_3  and  O_6 
REMARK    3  A    between atoms: C_3  and  C_4 
REMARK    4  A    between atoms: C_7  and  O_6 
REMARK    5  A    between atoms: C_9  and  C_10 
REMARK    6  A    between atoms: N_15  and  C_14 
REMARK    7  A    between atoms: N_20  and  C_19 
REMARK       I    between atoms: C_22  and  N_20 
ROOT
ATOM      1  C   LIG d   1     -23.588  83.666 113.990  0.00  0.00     0.161 C 
ATOM      2  C   LIG d   1     -22.790  84.819 114.081  0.00  0.00     0.016 C 
ATOM      3  C   LIG d   1     -23.262  86.117 113.778  0.00  0.00     0.038 C 
ATOM      4  C   LIG d   1     -24.615  86.370 113.506  0.00  0.00     0.028 C 
ATOM      5  C   LIG d   1     -25.347  85.172 112.910  0.00  0.00    -0.047 C 
ATOM      6  C   LIG d   1     -25.095  83.935 113.802  0.00  0.00     0.091 C 
ENDROOT
BRANCH   1   7
ATOM      7  O   LIG d   1     -23.368  82.827 115.141  0.00  0.00    -0.368 OA
BRANCH   7   8
ATOM      8  C   LIG d   1     -23.976  83.272 116.379  0.00  0.00     0.119 C 
BRANCH   8   9
ATOM      9  C   LIG d   1     -22.846  83.445 117.413  0.00  0.00     0.028 C 
ATOM     10  C   LIG d   1     -21.544  82.750 116.982  0.00  0.00     0.006 C 
ENDBRANCH   8   9
BRANCH   8  11
ATOM     11  C   LIG d   1     -24.899  82.199 116.963  0.00  0.00     0.028 C 
ATOM     12  C   LIG d   1     -24.749  80.839 116.265  0.00  0.00     0.006 C 
ENDBRANCH   8  11
ENDBRANCH   7   8
ENDBRANCH   1   7
BRANCH   6  13
ATOM     13  N   LIG d   1     -25.707  82.701 113.245  0.00  0.00    -0.311 N 
ATOM     14  C   LIG d   1     -26.900  82.242 113.617  0.00  0.00     0.210 C 
ATOM     15  C   LIG d   1     -27.335  80.942 112.933  0.00  0.00     0.109 C 
ATOM     16  O   LIG d   1     -27.655  82.805 114.424  0.00  0.00    -0.276 OA
ATOM     17  H   LIG d   1     -25.177  82.198 112.560  0.00  0.00     0.149 HD
ENDBRANCH   6  13
BRANCH   5  18
ATOM     18  N   LIG d   1     -26.774  85.529 112.805  0.00  0.00     0.381 N 
ATOM     19  H   LIG d   1     -27.338  84.766 113.121  0.00  0.00    -0.090 HD
ATOM     20  H   LIG d   1     -26.995  85.707 111.841  0.00  0.00    -0.090 HD
ATOM     21  H   LIG d   1     -26.964  86.341 113.352  0.00  0.00    -0.090 HD
ENDBRANCH   5  18
BRANCH   3  22
ATOM     22  C   LIG d   1     -22.367  87.174 113.706  0.00  0.00     0.382 C 
ATOM     23  O   LIG d   1     -21.244  87.009 113.172  0.00  0.00    -0.241 OA
ATOM     24  O   LIG d   1     -22.651  88.278 114.209  0.00  0.00    -0.241 OA
ENDBRANCH   3  22
TORSDOF 7
ENDMDL
MODEL 2
REMARK VINA RESULT:      -4.4     18.600     20.392
REMARK  7 active torsions:
REMARK  status: ('A' for Active; 'I' for Inactive)
REMARK    1  A    between atoms: C_2  and  C_3 
REMARK    2  A    between atoms: C_3  and  O_6 
REMARK    3  A    between atoms: C_3  and  C_4 
REMARK    4  A    between atoms: C_7  and  O_6 
REMARK    5  A    between atoms: C_9  and  C_10 
REMARK    6  A    between atoms: N_15  and  C_14 
REMARK    7  A    between atoms: N_20  and  C_19 
REMARK       I    between atoms: C_22  and  N_20 
ROOT
ATOM      1  C   LIG d   1     -16.503  64.716 117.814  0.00  0.00     0.161 C 
ATOM      2  C   LIG d   1     -15.686  65.787 118.214  0.00  0.00     0.016 C 
ATOM      3  C   LIG d   1     -15.198  66.768 117.321  0.00  0.00     0.038 C 
ATOM      4  C   LIG d   1     -15.621  66.832 115.985  0.00  0.00     0.028 C 
ATOM      5  C   LIG d   1     -16.045  65.480 115.419  0.00  0.00    -0.047 C 
ATOM      6  C   LIG d   1     -17.066  64.832 116.382  0.00  0.00     0.091 C 
ENDROOT
BRANCH   1   7
ATOM      7  O   LIG d   1     -17.576  64.540 118.761  0.00  0.00    -0.368 OA
BRANCH   7   8
ATOM      8  C   LIG d   1     -18.802  65.257 118.475  0.00  0.00     0.119 C 
BRANCH   8   9
ATOM      9  C   LIG d   1     -18.966  66.344 119.555  0.00  0.00     0.028 C 
ATOM     10  C   LIG d   1     -18.725  67.760 119.003  0.00  0.00     0.006 C 
ENDBRANCH   8   9
BRANCH   8  11
ATOM     11  C   LIG d   1     -20.026  64.349 118.626  0.00  0.00     0.028 C 
ATOM     12  C   LIG d   1     -19.651  62.873 118.831  0.00  0.00     0.006 C 
ENDBRANCH   8  11
ENDBRANCH   7   8
ENDBRANCH   1   7
BRANCH   6  13
ATOM     13  N   LIG d   1     -17.469  63.469 115.946  0.00  0.00    -0.311 N 
ATOM     14  C   LIG d   1     -18.592  63.216 115.276  0.00  0.00     0.210 C 
ATOM     15  C   LIG d   1     -18.827  61.740 114.941  0.00  0.00     0.109 C 
ATOM     16  O   LIG d   1     -19.401  64.078 114.900  0.00  0.00    -0.276 OA
ATOM     17  H   LIG d   1     -16.855  62.714 116.183  0.00  0.00     0.149 HD
ENDBRANCH   6  13
BRANCH   5  18
ATOM     18  N   LIG d   1     -16.591  65.714 114.069  0.00  0.00     0.381 N 
ATOM     19  H   LIG d   1     -16.759  66.691 113.936  0.00  0.00    -0.090 HD
ATOM     20  H   LIG d   1     -17.467  65.229 113.985  0.00  0.00    -0.090 HD
ATOM     21  H   LIG d   1     -15.952  65.383 113.381  0.00  0.00    -0.090 HD
ENDBRANCH   5  18
BRANCH   3  22
ATOM     22  C   LIG d   1     -14.244  67.677 117.754  0.00  0.00     0.382 C 
ATOM     23  O   LIG d   1     -13.279  67.975 117.010  0.00  0.00    -0.241 OA
ATOM     24  O   LIG d   1     -14.313  68.170 118.896  0.00  0.00    -0.241 OA
ENDBRANCH   3  22
TORSDOF 7
ENDMDL
MODEL 3
REMARK VINA RESULT:      -4.3     18.003     19.618
REMARK  7 active torsions:
REMARK  status: ('A' for Active; 'I' for Inactive)
REMARK    1  A    between atoms: C_2  and  C_3 
REMARK    2  A    between atoms: C_3  and  O_6 
REMARK    3  A    between atoms: C_3  and  C_4 
REMARK    4  A    between atoms: C_7  and  O_6 
REMARK    5  A    between atoms: C_9  and  C_10 
REMARK    6  A    between atoms: N_15  and  C_14 
REMARK    7  A    between atoms: N_20  and  C_19 
REMARK       I    between atoms: C_22  and  N_20 
ROOT
ATOM      1  C   LIG d   1     -17.563  65.123 117.379  0.00  0.00     0.161 C 
ATOM      2  C   LIG d   1     -16.560  65.922 117.954  0.00  0.00     0.016 C 
ATOM      3  C   LIG d   1     -15.590  66.618 117.196  0.00  0.00     0.038 C 
ATOM      4  C   LIG d   1     -15.650  66.684 115.796  0.00  0.00     0.028 C 
ATOM      5  C   LIG d   1     -16.343  65.483 115.162  0.00  0.00    -0.047 C 
ATOM      6  C   LIG d   1     -17.712  65.273 115.850  0.00  0.00     0.091 C 
ENDROOT
BRANCH   1   7
ATOM      7  O   LIG d   1     -18.823  65.376 118.032  0.00  0.00    -0.368 OA
BRANCH   7   8
ATOM      8  C   LIG d   1     -19.440  66.656 117.752  0.00  0.00     0.119 C 
BRANCH   8   9
ATOM      9  C   LIG d   1     -19.771  67.316 119.105  0.00  0.00     0.028 C 
ATOM     10  C   LIG d   1     -18.796  68.452 119.458  0.00  0.00     0.006 C 
ENDBRANCH   8   9
BRANCH   8  11
ATOM     11  C   LIG d   1     -20.788  66.483 117.046  0.00  0.00     0.028 C 
ATOM     12  C   LIG d   1     -21.048  67.564 115.985  0.00  0.00     0.006 C 
ENDBRANCH   8  11
ENDBRANCH   7   8
ENDBRANCH   1   7
BRANCH   6  13
ATOM     13  N   LIG d   1     -18.420  64.067 115.347  0.00  0.00    -0.311 N 
ATOM     14  C   LIG d   1     -19.312  64.100 114.359  0.00  0.00     0.210 C 
ATOM     15  C   LIG d   1     -19.940  62.747 114.009  0.00  0.00     0.109 C 
ATOM     16  O   LIG d   1     -19.620  65.116 113.718  0.00  0.00    -0.276 OA
ATOM     17  H   LIG d   1     -18.207  63.195 115.791  0.00  0.00     0.149 HD
ENDBRANCH   6  13
BRANCH   5  18
ATOM     18  N   LIG d   1     -16.458  65.747 113.716  0.00  0.00     0.381 N 
ATOM     19  H   LIG d   1     -17.215  66.379 113.546  0.00  0.00    -0.090 HD
ATOM     20  H   LIG d   1     -16.656  64.883 113.242  0.00  0.00    -0.090 HD
ATOM     21  H   LIG d   1     -15.608  66.136 113.372  0.00  0.00    -0.090 HD
ENDBRANCH   5  18
BRANCH   3  22
ATOM     22  C   LIG d   1     -14.521  67.224 117.839  0.00  0.00     0.382 C 
ATOM     23  O   LIG d   1     -14.524  67.338 119.089  0.00  0.00    -0.241 OA
ATOM     24  O   LIG d   1     -13.576  67.699 117.182  0.00  0.00    -0.241 OA
ENDBRANCH   3  22
TORSDOF 7
ENDMDL
MODEL 4
REMARK VINA RESULT:      -4.3     34.908     37.538
REMARK  7 active torsions:
REMARK  status: ('A' for Active; 'I' for Inactive)
REMARK    1  A    between atoms: C_2  and  C_3 
REMARK    2  A    between atoms: C_3  and  O_6 
REMARK    3  A    between atoms: C_3  and  C_4 
REMARK    4  A    between atoms: C_7  and  O_6 
REMARK    5  A    between atoms: C_9  and  C_10 
REMARK    6  A    between atoms: N_15  and  C_14 
REMARK    7  A    between atoms: N_20  and  C_19 
REMARK       I    between atoms: C_22  and  N_20 
ROOT
ATOM      1  C   LIG d   1      12.176  78.286 114.729  0.00  0.00     0.161 C 
ATOM      2  C   LIG d   1      10.870  77.960 114.328  0.00  0.00     0.016 C 
ATOM      3  C   LIG d   1       9.816  77.708 115.236  0.00  0.00     0.038 C 
ATOM      4  C   LIG d   1       9.962  77.914 116.616  0.00  0.00     0.028 C 
ATOM      5  C   LIG d   1      11.398  77.753 117.104  0.00  0.00    -0.047 C 
ATOM      6  C   LIG d   1      12.327  78.624 116.227  0.00  0.00     0.091 C 
ENDROOT
BRANCH   1   7
ATOM      7  O   LIG d   1      12.682  79.365 113.919  0.00  0.00    -0.368 OA
BRANCH   7   8
ATOM      8  C   LIG d   1      13.704  79.013 112.954  0.00  0.00     0.119 C 
BRANCH   8   9
ATOM      9  C   LIG d   1      14.052  77.528 113.170  0.00  0.00     0.028 C 
ATOM     10  C   LIG d   1      15.531  77.319 113.539  0.00  0.00     0.006 C 
ENDBRANCH   8   9
BRANCH   8  11
ATOM     11  C   LIG d   1      15.005  79.777 113.217  0.00  0.00     0.028 C 
ATOM     12  C   LIG d   1      14.764  81.194 113.761  0.00  0.00     0.006 C 
ENDBRANCH   8  11
ENDBRANCH   7   8
ENDBRANCH   1   7
BRANCH   6  13
ATOM     13  N   LIG d   1      13.760  78.460 116.584  0.00  0.00    -0.311 N 
ATOM     14  C   LIG d   1      14.531  79.463 117.001  0.00  0.00     0.210 C 
ATOM     15  C   LIG d   1      15.985  79.081 117.296  0.00  0.00     0.109 C 
ATOM     16  O   LIG d   1      14.141  80.625 117.186  0.00  0.00    -0.276 OA
ATOM     17  H   LIG d   1      14.151  77.543 116.493  0.00  0.00     0.149 HD
ENDBRANCH   6  13
BRANCH   5  18
ATOM     18  N   LIG d   1      11.429  78.130 118.530  0.00  0.00     0.381 N 
ATOM     19  H   LIG d   1      11.744  77.355 119.078  0.00  0.00    -0.090 HD
ATOM     20  H   LIG d   1      10.497  78.366 118.824  0.00  0.00    -0.090 HD
ATOM     21  H   LIG d   1      12.035  78.909 118.664  0.00  0.00    -0.090 HD
ENDBRANCH   5  18
BRANCH   3  22
ATOM     22  C   LIG d   1       8.611  77.206 114.769  0.00  0.00     0.382 C 
ATOM     23  O   LIG d   1       8.547  76.029 114.339  0.00  0.00    -0.241 OA
ATOM     24  O   LIG d   1       7.598  77.930 114.730  0.00  0.00    -0.241 OA
ENDBRANCH   3  22
TORSDOF 7
ENDMDL
MODEL 5
REMARK VINA RESULT:      -4.2     35.325     37.906
REMARK  7 active torsions:
REMARK  status: ('A' for Active; 'I' for Inactive)
REMARK    1  A    between atoms: C_2  and  C_3 
REMARK    2  A    between atoms: C_3  and  O_6 
REMARK    3  A    between atoms: C_3  and  C_4 
REMARK    4  A    between atoms: C_7  and  O_6 
REMARK    5  A    between atoms: C_9  and  C_10 
REMARK    6  A    between atoms: N_15  and  C_14 
REMARK    7  A    between atoms: N_20  and  C_19 
REMARK       I    between atoms: C_22  and  N_20 
ROOT
ATOM      1  C   LIG d   1      12.320  78.444 113.704  0.00  0.00     0.161 C 
ATOM      2  C   LIG d   1      10.972  78.318 114.078  0.00  0.00     0.016 C 
ATOM      3  C   LIG d   1      10.446  77.172 114.719  0.00  0.00     0.038 C 
ATOM      4  C   LIG d   1      11.271  76.130 115.169  0.00  0.00     0.028 C 
ATOM      5  C   LIG d   1      12.559  75.988 114.365  0.00  0.00    -0.047 C 
ATOM      6  C   LIG d   1      13.257  77.365 114.286  0.00  0.00     0.091 C 
ENDROOT
BRANCH   1   7
ATOM      7  O   LIG d   1      12.800  79.760 114.045  0.00  0.00    -0.368 OA
BRANCH   7   8
ATOM      8  C   LIG d   1      13.480  79.881 115.319  0.00  0.00     0.119 C 
BRANCH   8   9
ATOM      9  C   LIG d   1      12.563  80.688 116.258  0.00  0.00     0.028 C 
ATOM     10  C   LIG d   1      11.935  79.816 117.358  0.00  0.00     0.006 C 
ENDBRANCH   8   9
BRANCH   8  11
ATOM     11  C   LIG d   1      14.761  80.710 115.190  0.00  0.00     0.028 C 
ATOM     12  C   LIG d   1      15.101  81.060 113.733  0.00  0.00     0.006 C 
ENDBRANCH   8  11
ENDBRANCH   7   8
ENDBRANCH   1   7
BRANCH   6  13
ATOM     13  N   LIG d   1      14.482  77.332 113.446  0.00  0.00    -0.311 N 
ATOM     14  C   LIG d   1      15.709  77.186 113.944  0.00  0.00     0.210 C 
ATOM     15  C   LIG d   1      16.834  77.200 112.905  0.00  0.00     0.109 C 
ATOM     16  O   LIG d   1      15.969  77.015 115.144  0.00  0.00    -0.276 OA
ATOM     17  H   LIG d   1      14.360  77.433 112.457  0.00  0.00     0.149 HD
ENDBRANCH   6  13
BRANCH   5  18
ATOM     18  N   LIG d   1      13.384  74.958 115.025  0.00  0.00     0.381 N 
ATOM     19  H   LIG d   1      13.860  75.357 115.810  0.00  0.00    -0.090 HD
ATOM     20  H   LIG d   1      14.074  74.628 114.373  0.00  0.00    -0.090 HD
ATOM     21  H   LIG d   1      12.810  74.201 115.324  0.00  0.00    -0.090 HD
ENDBRANCH   5  18
BRANCH   3  22
ATOM     22  C   LIG d   1       9.075  77.044 114.880  0.00  0.00     0.382 C 
ATOM     23  O   LIG d   1       8.469  76.084 114.347  0.00  0.00    -0.241 OA
ATOM     24  O   LIG d   1       8.431  77.900 115.516  0.00  0.00    -0.241 OA
ENDBRANCH   3  22
TORSDOF 7
ENDMDL
MODEL 6
REMARK VINA RESULT:      -4.2     35.164     37.747
REMARK  7 active torsions:
REMARK  status: ('A' for Active; 'I' for Inactive)
REMARK    1  A    between atoms: C_2  and  C_3 
REMARK    2  A    between atoms: C_3  and  O_6 
REMARK    3  A    between atoms: C_3  and  C_4 
REMARK    4  A    between atoms: C_7  and  O_6 
REMARK    5  A    between atoms: C_9  and  C_10 
REMARK    6  A    between atoms: N_15  and  C_14 
REMARK    7  A    between atoms: N_20  and  C_19 
REMARK       I    between atoms: C_22  and  N_20 
ROOT
ATOM      1  C   LIG d   1      12.557  78.177 114.660  0.00  0.00     0.161 C 
ATOM      2  C   LIG d   1      11.372  77.467 114.404  0.00  0.00     0.016 C 
ATOM      3  C   LIG d   1      10.095  77.907 114.824  0.00  0.00     0.038 C 
ATOM      4  C   LIG d   1       9.899  79.171 115.399  0.00  0.00     0.028 C 
ATOM      5  C   LIG d   1      11.128  79.701 116.131  0.00  0.00    -0.047 C 
ATOM      6  C   LIG d   1      12.350  79.611 115.189  0.00  0.00     0.091 C 
ENDROOT
BRANCH   1   7
ATOM      7  O   LIG d   1      13.381  78.192 113.478  0.00  0.00    -0.368 OA
BRANCH   7   8
ATOM      8  C   LIG d   1      14.418  77.182 113.410  0.00  0.00     0.119 C 
BRANCH   8   9
ATOM      9  C   LIG d   1      14.781  76.794 114.857  0.00  0.00     0.028 C 
ATOM     10  C   LIG d   1      14.775  75.272 115.075  0.00  0.00     0.006 C 
ENDBRANCH   8   9
BRANCH   8  11
ATOM     11  C   LIG d   1      15.707  77.746 112.806  0.00  0.00     0.028 C 
ATOM     12  C   LIG d   1      16.712  78.211 113.872  0.00  0.00     0.006 C 
ENDBRANCH   8  11
ENDBRANCH   7   8
ENDBRANCH   1   7
BRANCH   6  13
ATOM     13  N   LIG d   1      13.611  80.031 115.855  0.00  0.00    -0.311 N 
ATOM     14  C   LIG d   1      14.519  80.816 115.277  0.00  0.00     0.210 C 
ATOM     15  C   LIG d   1      15.756  81.111 116.131  0.00  0.00     0.109 C 
ATOM     16  O   LIG d   1      14.402  81.322 114.151  0.00  0.00    -0.276 OA
ATOM     17  H   LIG d   1      13.771  79.692 116.783  0.00  0.00     0.149 HD
ENDBRANCH   6  13
BRANCH   5  18
ATOM     18  N   LIG d   1      10.830  81.080 116.562  0.00  0.00     0.381 N 
ATOM     19  H   LIG d   1      11.429  81.334 117.321  0.00  0.00    -0.090 HD
ATOM     20  H   LIG d   1       9.879  81.121 116.884  0.00  0.00    -0.090 HD
ATOM     21  H   LIG d   1      10.959  81.710 115.802  0.00  0.00    -0.090 HD
ENDBRANCH   5  18
BRANCH   3  22
ATOM     22  C   LIG d   1       9.003  77.061 114.704  0.00  0.00     0.382 C 
ATOM     23  O   LIG d   1       7.840  77.532 114.727  0.00  0.00    -0.241 OA
ATOM     24  O   LIG d   1       9.165  75.829 114.617  0.00  0.00    -0.241 OA
ENDBRANCH   3  22
TORSDOF 7
ENDMDL
MODEL 7
REMARK VINA RESULT:      -4.1      2.740      3.970
REMARK  7 active torsions:
REMARK  status: ('A' for Active; 'I' for Inactive)
REMARK    1  A    between atoms: C_2  and  C_3 
REMARK    2  A    between atoms: C_3  and  O_6 
REMARK    3  A    between atoms: C_3  and  C_4 
REMARK    4  A    between atoms: C_7  and  O_6 
REMARK    5  A    between atoms: C_9  and  C_10 
REMARK    6  A    between atoms: N_15  and  C_14 
REMARK    7  A    between atoms: N_20  and  C_19 
REMARK       I    between atoms: C_22  and  N_20 
ROOT
ATOM      1  C   LIG d   1     -25.620  86.386 113.247  0.00  0.00     0.161 C 
ATOM      2  C   LIG d   1     -24.215  86.360 113.234  0.00  0.00     0.016 C 
ATOM      3  C   LIG d   1     -23.412  87.330 113.877  0.00  0.00     0.038 C 
ATOM      4  C   LIG d   1     -23.964  88.314 114.710  0.00  0.00     0.028 C 
ATOM      5  C   LIG d   1     -25.398  88.683 114.345  0.00  0.00    -0.047 C 
ATOM      6  C   LIG d   1     -26.238  87.389 114.244  0.00  0.00     0.091 C 
ENDROOT
BRANCH   1   7
ATOM      7  O   LIG d   1     -26.131  85.060 113.489  0.00  0.00    -0.368 OA
BRANCH   7   8
ATOM      8  C   LIG d   1     -25.272  84.175 114.248  0.00  0.00     0.119 C 
BRANCH   8   9
ATOM      9  C   LIG d   1     -25.399  82.768 113.632  0.00  0.00     0.028 C 
ATOM     10  C   LIG d   1     -24.040  82.194 113.195  0.00  0.00     0.006 C 
ENDBRANCH   8   9
BRANCH   8  11
ATOM     11  C   LIG d   1     -25.759  84.030 115.693  0.00  0.00     0.028 C 
ATOM     12  C   LIG d   1     -24.791  84.652 116.713  0.00  0.00     0.006 C 
ENDBRANCH   8  11
ENDBRANCH   7   8
ENDBRANCH   1   7
BRANCH   6  13
ATOM     13  N   LIG d   1     -27.634  87.653 113.808  0.00  0.00    -0.311 N 
ATOM     14  C   LIG d   1     -28.645  87.836 114.656  0.00  0.00     0.210 C 
ATOM     15  C   LIG d   1     -30.007  88.074 113.998  0.00  0.00     0.109 C 
ATOM     16  O   LIG d   1     -28.536  87.856 115.892  0.00  0.00    -0.276 OA
ATOM     17  H   LIG d   1     -27.806  87.685 112.822  0.00  0.00     0.149 HD
ENDBRANCH   6  13
BRANCH   5  18
ATOM     18  N   LIG d   1     -25.894  89.615 115.375  0.00  0.00     0.381 N 
ATOM     19  H   LIG d   1     -26.642  89.189 115.886  0.00  0.00    -0.090 HD
ATOM     20  H   LIG d   1     -26.251  90.439 114.923  0.00  0.00    -0.090 HD
ATOM     21  H   LIG d   1     -25.156  89.862 115.997  0.00  0.00    -0.090 HD
ENDBRANCH   5  18
BRANCH   3  22
ATOM     22  C   LIG d   1     -22.044  87.344 113.657  0.00  0.00     0.382 C 
ATOM     23  O   LIG d   1     -21.468  86.318 113.222  0.00  0.00    -0.241 OA
ATOM     24  O   LIG d   1     -21.371  88.356 113.930  0.00  0.00    -0.241 OA
ENDBRANCH   3  22
TORSDOF 7
ENDMDL
MODEL 8
REMARK VINA RESULT:      -4.0     34.009     36.463
REMARK  7 active torsions:
REMARK  status: ('A' for Active; 'I' for Inactive)
REMARK    1  A    between atoms: C_2  and  C_3 
REMARK    2  A    between atoms: C_3  and  O_6 
REMARK    3  A    between atoms: C_3  and  C_4 
REMARK    4  A    between atoms: C_7  and  O_6 
REMARK    5  A    between atoms: C_9  and  C_10 
REMARK    6  A    between atoms: N_15  and  C_14 
REMARK    7  A    between atoms: N_20  and  C_19 
REMARK       I    between atoms: C_22  and  N_20 
ROOT
ATOM      1  C   LIG d   1      10.940  79.886 115.610  0.00  0.00     0.161 C 
ATOM      2  C   LIG d   1       9.817  79.043 115.668  0.00  0.00     0.016 C 
ATOM      3  C   LIG d   1       9.755  77.784 115.028  0.00  0.00     0.038 C 
ATOM      4  C   LIG d   1      10.876  77.212 114.406  0.00  0.00     0.028 C 
ATOM      5  C   LIG d   1      11.873  78.243 113.889  0.00  0.00    -0.047 C 
ATOM      6  C   LIG d   1      12.211  79.231 115.030  0.00  0.00     0.091 C 
ENDROOT
BRANCH   1   7
ATOM      7  O   LIG d   1      11.209  80.432 116.916  0.00  0.00    -0.368 OA
BRANCH   7   8
ATOM      8  C   LIG d   1      11.099  81.871 117.040  0.00  0.00     0.119 C 
BRANCH   8   9
ATOM      9  C   LIG d   1      12.460  82.399 117.532  0.00  0.00     0.028 C 
ATOM     10  C   LIG d   1      13.349  81.284 118.108  0.00  0.00     0.006 C 
ENDBRANCH   8   9
BRANCH   8  11
ATOM     11  C   LIG d   1      10.094  82.261 118.129  0.00  0.00     0.028 C 
ATOM     12  C   LIG d   1       9.458  81.043 118.817  0.00  0.00     0.006 C 
ENDBRANCH   8  11
ENDBRANCH   7   8
ENDBRANCH   1   7
BRANCH   6  13
ATOM     13  N   LIG d   1      13.116  80.322 114.585  0.00  0.00    -0.311 N 
ATOM     14  C   LIG d   1      14.442  80.270 114.706  0.00  0.00     0.210 C 
ATOM     15  C   LIG d   1      15.186  81.511 114.202  0.00  0.00     0.109 C 
ATOM     16  O   LIG d   1      15.073  79.301 115.152  0.00  0.00    -0.276 OA
ATOM     17  H   LIG d   1      12.689  81.133 114.182  0.00  0.00     0.149 HD
ENDBRANCH   6  13
BRANCH   5  18
ATOM     18  N   LIG d   1      13.053  77.511 113.391  0.00  0.00     0.381 N 
ATOM     19  H   LIG d   1      13.088  77.565 112.393  0.00  0.00    -0.090 HD
ATOM     20  H   LIG d   1      12.969  76.544 113.651  0.00  0.00    -0.090 HD
ATOM     21  H   LIG d   1      13.884  77.897 113.782  0.00  0.00    -0.090 HD
ENDBRANCH   5  18
BRANCH   3  22
ATOM     22  C   LIG d   1       8.550  77.100 114.971  0.00  0.00     0.382 C 
ATOM     23  O   LIG d   1       8.467  76.029 114.323  0.00  0.00    -0.241 OA
ATOM     24  O   LIG d   1       7.534  77.565 115.521  0.00  0.00    -0.241 OA
ENDBRANCH   3  22
TORSDOF 7
ENDMDL
MODEL 9
REMARK VINA RESULT:      -4.0     24.395     26.619
REMARK  7 active torsions:
REMARK  status: ('A' for Active; 'I' for Inactive)
REMARK    1  A    between atoms: C_2  and  C_3 
REMARK    2  A    between atoms: C_3  and  O_6 
REMARK    3  A    between atoms: C_3  and  C_4 
REMARK    4  A    between atoms: C_7  and  O_6 
REMARK    5  A    between atoms: C_9  and  C_10 
REMARK    6  A    between atoms: N_15  and  C_14 
REMARK    7  A    between atoms: N_20  and  C_19 
REMARK       I    between atoms: C_22  and  N_20 
ROOT
ATOM      1  C   LIG d   1       1.947  88.096 116.470  0.00  0.00     0.161 C 
ATOM      2  C   LIG d   1       2.209  89.368 117.007  0.00  0.00     0.016 C 
ATOM      3  C   LIG d   1       2.997  90.342 116.352  0.00  0.00     0.038 C 
ATOM      4  C   LIG d   1       3.455  90.164 115.038  0.00  0.00     0.028 C 
ATOM      5  C   LIG d   1       3.640  88.699 114.654  0.00  0.00    -0.047 C 
ATOM      6  C   LIG d   1       2.345  87.925 114.990  0.00  0.00     0.091 C 
ENDROOT
BRANCH   1   7
ATOM      7  O   LIG d   1       0.557  87.764 116.657  0.00  0.00    -0.368 OA
BRANCH   7   8
ATOM      8  C   LIG d   1       0.221  87.101 117.901  0.00  0.00     0.119 C 
BRANCH   8   9
ATOM      9  C   LIG d   1       0.370  85.584 117.671  0.00  0.00     0.028 C 
ATOM     10  C   LIG d   1      -0.533  84.758 118.602  0.00  0.00     0.006 C 
ENDBRANCH   8   9
BRANCH   8  11
ATOM     11  C   LIG d   1      -1.251  87.313 118.266  0.00  0.00     0.028 C 
ATOM     12  C   LIG d   1      -1.779  88.691 117.835  0.00  0.00     0.006 C 
ENDBRANCH   8  11
ENDBRANCH   7   8
ENDBRANCH   1   7
BRANCH   6  13
ATOM     13  N   LIG d   1       2.471  86.468 114.723  0.00  0.00    -0.311 N 
ATOM     14  C   LIG d   1       1.549  85.759 114.074  0.00  0.00     0.210 C 
ATOM     15  C   LIG d   1       1.866  84.268 113.925  0.00  0.00     0.109 C 
ATOM     16  O   LIG d   1       0.513  86.230 113.580  0.00  0.00    -0.276 OA
ATOM     17  H   LIG d   1       3.295  86.012 115.062  0.00  0.00     0.149 HD
ENDBRANCH   6  13
BRANCH   5  18
ATOM     18  N   LIG d   1       3.986  88.655 113.221  0.00  0.00     0.381 N 
ATOM     19  H   LIG d   1       3.995  89.582 112.846  0.00  0.00    -0.090 HD
ATOM     20  H   LIG d   1       3.286  88.123 112.734  0.00  0.00    -0.090 HD
ATOM     21  H   LIG d   1       4.880  88.231 113.099  0.00  0.00    -0.090 HD
ENDBRANCH   5  18
BRANCH   3  22
ATOM     22  C   LIG d   1       3.369  91.494 117.029  0.00  0.00     0.382 C 
ATOM     23  O   LIG d   1       2.873  92.599 116.702  0.00  0.00    -0.241 OA
ATOM     24  O   LIG d   1       4.226  91.448 117.931  0.00  0.00    -0.241 OA
ENDBRANCH   3  22
TORSDOF 7
ENDMDL
