MODEL 1
REMARK VINA RESULT:      -5.5      0.000      0.000
REMARK  7 active torsions:
REMARK  status: ('A' for Active; 'I' for Inactive)
REMARK    1  A    between atoms: C_2  and  C_3 
REMARK    2  A    between atoms: C_3  and  O_6 
REMARK    3  A    between atoms: C_3  and  C_4 
REMARK    4  A    between atoms: C_7  and  O_6 
REMARK    5  A    between atoms: C_9  and  C_10 
REMARK    6  A    between atoms: N_15  and  C_14 
REMARK    7  A    between atoms: N_20  and  C_19 
REMARK       I    between atoms: C_22  and  N_20 
ROOT
ATOM      1  C   LIG d   1      -2.510  77.578 116.416  0.00  0.00     0.161 C 
ATOM      2  C   LIG d   1      -2.706  78.630 115.506  0.00  0.00     0.016 C 
ATOM      3  C   LIG d   1      -1.855  78.874 114.403  0.00  0.00     0.038 C 
ATOM      4  C   LIG d   1      -0.830  77.985 114.047  0.00  0.00     0.028 C 
ATOM      5  C   LIG d   1      -0.282  77.188 115.226  0.00  0.00    -0.047 C 
ATOM      6  C   LIG d   1      -1.462  76.533 115.980  0.00  0.00     0.091 C 
ENDROOT
BRANCH   1   7
ATOM      7  O   LIG d   1      -3.769  76.937 116.701  0.00  0.00    -0.368 OA
BRANCH   7   8
ATOM      8  C   LIG d   1      -4.555  76.537 115.551  0.00  0.00     0.119 C 
BRANCH   8   9
ATOM      9  C   LIG d   1      -6.021  76.912 115.840  0.00  0.00     0.028 C 
ATOM     10  C   LIG d   1      -6.225  77.421 117.278  0.00  0.00     0.006 C 
ENDBRANCH   8   9
BRANCH   8  11
ATOM     11  C   LIG d   1      -4.552  75.016 115.376  0.00  0.00     0.028 C 
ATOM     12  C   LIG d   1      -5.945  74.450 115.058  0.00  0.00     0.006 C 
ENDBRANCH   8  11
ENDBRANCH   7   8
ENDBRANCH   1   7
BRANCH   6  13
ATOM     13  N   LIG d   1      -1.021  75.803 117.198  0.00  0.00    -0.311 N 
ATOM     14  C   LIG d   1      -0.753  74.499 117.214  0.00  0.00     0.210 C 
ATOM     15  C   LIG d   1      -0.333  73.941 118.578  0.00  0.00     0.109 C 
ATOM     16  O   LIG d   1      -0.793  73.756 116.221  0.00  0.00    -0.276 OA
ATOM     17  H   LIG d   1      -0.932  76.335 118.041  0.00  0.00     0.149 HD
ENDBRANCH   6  13
BRANCH   5  18
ATOM     18  N   LIG d   1       0.680  76.206 114.692  0.00  0.00     0.381 N 
ATOM     19  H   LIG d   1       1.169  75.767 115.446  0.00  0.00    -0.090 HD
ATOM     20  H   LIG d   1       1.351  76.687 114.119  0.00  0.00    -0.090 HD
ATOM     21  H   LIG d   1       0.202  75.520 114.152  0.00  0.00    -0.090 HD
ENDBRANCH   5  18
BRANCH   3  22
ATOM     22  C   LIG d   1      -2.002  80.040 113.667  0.00  0.00     0.382 C 
ATOM     23  O   LIG d   1      -0.988  80.671 113.284  0.00  0.00    -0.241 OA
ATOM     24  O   LIG d   1      -3.136  80.491 113.419  0.00  0.00    -0.241 OA
ENDBRANCH   3  22
TORSDOF 7
ENDMDL
MODEL 2
REMARK VINA RESULT:      -5.4      3.507      5.967
REMARK  7 active torsions:
REMARK  status: ('A' for Active; 'I' for Inactive)
REMARK    1  A    between atoms: C_2  and  C_3 
REMARK    2  A    between atoms: C_3  and  O_6 
REMARK    3  A    between atoms: C_3  and  C_4 
REMARK    4  A    between atoms: C_7  and  O_6 
REMARK    5  A    between atoms: C_9  and  C_10 
REMARK    6  A    between atoms: N_15  and  C_14 
REMARK    7  A    between atoms: N_20  and  C_19 
REMARK       I    between atoms: C_22  and  N_20 
ROOT
ATOM      1  C   LIG d   1      -6.225  78.105 117.022  0.00  0.00     0.161 C 
ATOM      2  C   LIG d   1      -7.598  78.299 117.249  0.00  0.00     0.016 C 
ATOM      3  C   LIG d   1      -8.141  79.506 117.746  0.00  0.00     0.038 C 
ATOM      4  C   LIG d   1      -7.359  80.660 117.908  0.00  0.00     0.028 C 
ATOM      5  C   LIG d   1      -5.887  80.361 118.172  0.00  0.00    -0.047 C 
ATOM      6  C   LIG d   1      -5.370  79.388 117.088  0.00  0.00     0.091 C 
ENDROOT
BRANCH   1   7
ATOM      7  O   LIG d   1      -6.028  77.436 115.760  0.00  0.00    -0.368 OA
BRANCH   7   8
ATOM      8  C   LIG d   1      -5.622  76.047 115.831  0.00  0.00     0.119 C 
BRANCH   8   9
ATOM      9  C   LIG d   1      -4.540  75.826 114.757  0.00  0.00     0.028 C 
ATOM     10  C   LIG d   1      -3.185  75.425 115.363  0.00  0.00     0.006 C 
ENDBRANCH   8   9
BRANCH   8  11
ATOM     11  C   LIG d   1      -6.772  75.110 115.449  0.00  0.00     0.028 C 
ATOM     12  C   LIG d   1      -6.505  73.649 115.841  0.00  0.00     0.006 C 
ENDBRANCH   8  11
ENDBRANCH   7   8
ENDBRANCH   1   7
BRANCH   6  13
ATOM     13  N   LIG d   1      -3.961  78.978 117.320  0.00  0.00    -0.311 N 
ATOM     14  C   LIG d   1      -3.028  78.989 116.368  0.00  0.00     0.210 C 
ATOM     15  C   LIG d   1      -1.644  78.508 116.815  0.00  0.00     0.109 C 
ATOM     16  O   LIG d   1      -3.209  79.381 115.206  0.00  0.00    -0.276 OA
ATOM     17  H   LIG d   1      -3.720  78.675 118.243  0.00  0.00     0.149 HD
ENDBRANCH   6  13
BRANCH   5  18
ATOM     18  N   LIG d   1      -5.166  81.649 118.184  0.00  0.00     0.381 N 
ATOM     19  H   LIG d   1      -4.789  81.817 119.095  0.00  0.00    -0.090 HD
ATOM     20  H   LIG d   1      -5.815  82.386 117.970  0.00  0.00    -0.090 HD
ATOM     21  H   LIG d   1      -4.433  81.635 117.509  0.00  0.00    -0.090 HD
ENDBRANCH   5  18
BRANCH   3  22
ATOM     22  C   LIG d   1      -9.474  79.556 118.124  0.00  0.00     0.382 C 
ATOM     23  O   LIG d   1      -9.948  80.609 118.615  0.00  0.00    -0.241 OA
ATOM     24  O   LIG d   1     -10.197  78.547 118.022  0.00  0.00    -0.241 OA
ENDBRANCH   3  22
TORSDOF 7
ENDMDL
MODEL 3
REMARK VINA RESULT:      -5.0      2.613      3.866
REMARK  7 active torsions:
REMARK  status: ('A' for Active; 'I' for Inactive)
REMARK    1  A    between atoms: C_2  and  C_3 
REMARK    2  A    between atoms: C_3  and  O_6 
REMARK    3  A    between atoms: C_3  and  C_4 
REMARK    4  A    between atoms: C_7  and  O_6 
REMARK    5  A    between atoms: C_9  and  C_10 
REMARK    6  A    between atoms: N_15  and  C_14 
REMARK    7  A    between atoms: N_20  and  C_19 
REMARK       I    between atoms: C_22  and  N_20 
ROOT
ATOM      1  C   LIG d   1      -4.733  76.850 116.724  0.00  0.00     0.161 C 
ATOM      2  C   LIG d   1      -5.725  77.832 116.888  0.00  0.00     0.016 C 
ATOM      3  C   LIG d   1      -5.437  79.200 117.100  0.00  0.00     0.038 C 
ATOM      4  C   LIG d   1      -4.132  79.706 117.011  0.00  0.00     0.028 C 
ATOM      5  C   LIG d   1      -3.059  78.676 117.350  0.00  0.00    -0.047 C 
ATOM      6  C   LIG d   1      -3.307  77.400 116.514  0.00  0.00     0.091 C 
ENDROOT
BRANCH   1   7
ATOM      7  O   LIG d   1      -5.094  75.967 115.644  0.00  0.00    -0.368 OA
BRANCH   7   8
ATOM      8  C   LIG d   1      -6.332  75.233 115.807  0.00  0.00     0.119 C 
BRANCH   8   9
ATOM      9  C   LIG d   1      -6.035  73.751 115.506  0.00  0.00     0.028 C 
ATOM     10  C   LIG d   1      -6.917  72.796 116.328  0.00  0.00     0.006 C 
ENDBRANCH   8   9
BRANCH   8  11
ATOM     11  C   LIG d   1      -7.374  75.657 114.767  0.00  0.00     0.028 C 
ATOM     12  C   LIG d   1      -6.749  76.008 113.408  0.00  0.00     0.006 C 
ENDBRANCH   8  11
ENDBRANCH   7   8
ENDBRANCH   1   7
BRANCH   6  13
ATOM     13  N   LIG d   1      -2.352  76.311 116.845  0.00  0.00    -0.311 N 
ATOM     14  C   LIG d   1      -1.731  75.575 115.925  0.00  0.00     0.210 C 
ATOM     15  C   LIG d   1      -0.803  74.491 116.482  0.00  0.00     0.109 C 
ATOM     16  O   LIG d   1      -1.836  75.739 114.700  0.00  0.00    -0.276 OA
ATOM     17  H   LIG d   1      -2.184  76.131 117.815  0.00  0.00     0.149 HD
ENDBRANCH   6  13
BRANCH   5  18
ATOM     18  N   LIG d   1      -1.747  79.296 117.084  0.00  0.00     0.381 N 
ATOM     19  H   LIG d   1      -1.022  78.741 117.493  0.00  0.00    -0.090 HD
ATOM     20  H   LIG d   1      -1.726  80.206 117.509  0.00  0.00    -0.090 HD
ATOM     21  H   LIG d   1      -1.601  79.376 116.102  0.00  0.00    -0.090 HD
ENDBRANCH   5  18
BRANCH   3  22
ATOM     22  C   LIG d   1      -6.460  80.072 117.444  0.00  0.00     0.382 C 
ATOM     23  O   LIG d   1      -7.344  79.711 118.257  0.00  0.00    -0.241 OA
ATOM     24  O   LIG d   1      -6.533  81.198 116.918  0.00  0.00    -0.241 OA
ENDBRANCH   3  22
TORSDOF 7
ENDMDL
MODEL 4
REMARK VINA RESULT:      -4.8     16.054     18.643
REMARK  7 active torsions:
REMARK  status: ('A' for Active; 'I' for Inactive)
REMARK    1  A    between atoms: C_2  and  C_3 
REMARK    2  A    between atoms: C_3  and  O_6 
REMARK    3  A    between atoms: C_3  and  C_4 
REMARK    4  A    between atoms: C_7  and  O_6 
REMARK    5  A    between atoms: C_9  and  C_10 
REMARK    6  A    between atoms: N_15  and  C_14 
REMARK    7  A    between atoms: N_20  and  C_19 
REMARK       I    between atoms: C_22  and  N_20 
ROOT
ATOM      1  C   LIG d   1     -16.627  64.755 116.063  0.00  0.00     0.161 C 
ATOM      2  C   LIG d   1     -16.546  66.023 115.464  0.00  0.00     0.016 C 
ATOM      3  C   LIG d   1     -15.602  67.004 115.846  0.00  0.00     0.038 C 
ATOM      4  C   LIG d   1     -14.571  66.727 116.755  0.00  0.00     0.028 C 
ATOM      5  C   LIG d   1     -14.922  65.629 117.753  0.00  0.00    -0.047 C 
ATOM      6  C   LIG d   1     -15.440  64.395 116.980  0.00  0.00     0.091 C 
ENDROOT
BRANCH   1   7
ATOM      7  O   LIG d   1     -16.801  63.746 115.049  0.00  0.00    -0.368 OA
BRANCH   7   8
ATOM      8  C   LIG d   1     -18.102  63.111 114.998  0.00  0.00     0.119 C 
BRANCH   8   9
ATOM      9  C   LIG d   1     -17.882  61.634 114.614  0.00  0.00     0.028 C 
ATOM     10  C   LIG d   1     -17.305  60.806 115.775  0.00  0.00     0.006 C 
ENDBRANCH   8   9
BRANCH   8  11
ATOM     11  C   LIG d   1     -18.965  63.697 113.876  0.00  0.00     0.028 C 
ATOM     12  C   LIG d   1     -19.940  64.775 114.375  0.00  0.00     0.006 C 
ENDBRANCH   8  11
ENDBRANCH   7   8
ENDBRANCH   1   7
BRANCH   6  13
ATOM     13  N   LIG d   1     -15.885  63.304 117.885  0.00  0.00    -0.311 N 
ATOM     14  C   LIG d   1     -15.082  62.329 118.310  0.00  0.00     0.210 C 
ATOM     15  C   LIG d   1     -15.748  61.294 119.221  0.00  0.00     0.109 C 
ATOM     16  O   LIG d   1     -13.874  62.242 118.043  0.00  0.00    -0.276 OA
ATOM     17  H   LIG d   1     -16.843  63.315 118.176  0.00  0.00     0.149 HD
ENDBRANCH   6  13
BRANCH   5  18
ATOM     18  N   LIG d   1     -13.713  65.347 118.550  0.00  0.00     0.381 N 
ATOM     19  H   LIG d   1     -13.266  66.206 118.803  0.00  0.00    -0.090 HD
ATOM     20  H   LIG d   1     -13.073  64.811 117.990  0.00  0.00    -0.090 HD
ATOM     21  H   LIG d   1     -13.956  64.836 119.370  0.00  0.00    -0.090 HD
ENDBRANCH   5  18
BRANCH   3  22
ATOM     22  C   LIG d   1     -15.710  68.293 115.344  0.00  0.00     0.382 C 
ATOM     23  O   LIG d   1     -15.988  69.244 116.114  0.00  0.00    -0.241 OA
ATOM     24  O   LIG d   1     -15.576  68.509 114.125  0.00  0.00    -0.241 OA
ENDBRANCH   3  22
TORSDOF 7
ENDMDL
MODEL 5
REMARK VINA RESULT:      -4.7      2.759      4.862
REMARK  7 active torsions:
REMARK  status: ('A' for Active; 'I' for Inactive)
REMARK    1  A    between atoms: C_2  and  C_3 
REMARK    2  A    between atoms: C_3  and  O_6 
REMARK    3  A    between atoms: C_3  and  C_4 
REMARK    4  A    between atoms: C_7  and  O_6 
REMARK    5  A    between atoms: C_9  and  C_10 
REMARK    6  A    between atoms: N_15  and  C_14 
REMARK    7  A    between atoms: N_20  and  C_19 
REMARK       I    between atoms: C_22  and  N_20 
ROOT
ATOM      1  C   LIG d   1      -3.554  77.052 116.888  0.00  0.00     0.161 C 
ATOM      2  C   LIG d   1      -4.695  77.772 117.279  0.00  0.00     0.016 C 
ATOM      3  C   LIG d   1      -5.984  77.537 116.746  0.00  0.00     0.038 C 
ATOM      4  C   LIG d   1      -6.247  76.457 115.890  0.00  0.00     0.028 C 
ATOM      5  C   LIG d   1      -5.033  76.017 115.079  0.00  0.00    -0.047 C 
ATOM      6  C   LIG d   1      -3.841  75.796 116.038  0.00  0.00     0.091 C 
ENDROOT
BRANCH   1   7
ATOM      7  O   LIG d   1      -2.775  76.703 118.049  0.00  0.00    -0.368 OA
BRANCH   7   8
ATOM      8  C   LIG d   1      -1.681  77.596 118.374  0.00  0.00     0.119 C 
BRANCH   8   9
ATOM      9  C   LIG d   1      -1.087  78.103 117.045  0.00  0.00     0.028 C 
ATOM     10  C   LIG d   1      -0.882  79.627 117.038  0.00  0.00     0.006 C 
ENDBRANCH   8   9
BRANCH   8  11
ATOM     11  C   LIG d   1      -0.539  76.848 119.069  0.00  0.00     0.028 C 
ATOM     12  C   LIG d   1       0.534  76.353 118.087  0.00  0.00     0.006 C 
ENDBRANCH   8  11
ENDBRANCH   7   8
ENDBRANCH   1   7
BRANCH   6  13
ATOM     13  N   LIG d   1      -2.590  75.445 115.317  0.00  0.00    -0.311 N 
ATOM     14  C   LIG d   1      -1.709  74.554 115.767  0.00  0.00     0.210 C 
ATOM     15  C   LIG d   1      -0.477  74.356 114.879  0.00  0.00     0.109 C 
ATOM     16  O   LIG d   1      -1.847  73.884 116.802  0.00  0.00    -0.276 OA
ATOM     17  H   LIG d   1      -2.414  75.919 114.452  0.00  0.00     0.149 HD
ENDBRANCH   6  13
BRANCH   5  18
ATOM     18  N   LIG d   1      -5.410  74.800 114.335  0.00  0.00     0.381 N 
ATOM     19  H   LIG d   1      -5.713  74.093 114.975  0.00  0.00    -0.090 HD
ATOM     20  H   LIG d   1      -4.604  74.457 113.843  0.00  0.00    -0.090 HD
ATOM     21  H   LIG d   1      -6.140  75.008 113.689  0.00  0.00    -0.090 HD
ENDBRANCH   5  18
BRANCH   3  22
ATOM     22  C   LIG d   1      -7.018  78.413 117.037  0.00  0.00     0.382 C 
ATOM     23  O   LIG d   1      -8.173  77.971 117.252  0.00  0.00    -0.241 OA
ATOM     24  O   LIG d   1      -6.821  79.643 117.045  0.00  0.00    -0.241 OA
ENDBRANCH   3  22
TORSDOF 7
ENDMDL
MODEL 6
REMARK VINA RESULT:      -4.6      1.562      4.782
REMARK  7 active torsions:
REMARK  status: ('A' for Active; 'I' for Inactive)
REMARK    1  A    between atoms: C_2  and  C_3 
REMARK    2  A    between atoms: C_3  and  O_6 
REMARK    3  A    between atoms: C_3  and  C_4 
REMARK    4  A    between atoms: C_7  and  O_6 
REMARK    5  A    between atoms: C_9  and  C_10 
REMARK    6  A    between atoms: N_15  and  C_14 
REMARK    7  A    between atoms: N_20  and  C_19 
REMARK       I    between atoms: C_22  and  N_20 
ROOT
ATOM      1  C   LIG d   1      -2.564  75.836 115.934  0.00  0.00     0.161 C 
ATOM      2  C   LIG d   1      -2.194  74.917 116.931  0.00  0.00     0.016 C 
ATOM      3  C   LIG d   1      -0.961  74.971 117.621  0.00  0.00     0.038 C 
ATOM      4  C   LIG d   1      -0.071  76.044 117.466  0.00  0.00     0.028 C 
ATOM      5  C   LIG d   1      -0.174  76.724 116.104  0.00  0.00    -0.047 C 
ATOM      6  C   LIG d   1      -1.653  77.077 115.830  0.00  0.00     0.091 C 
ENDROOT
BRANCH   1   7
ATOM      7  O   LIG d   1      -3.936  76.235 116.122  0.00  0.00    -0.368 OA
BRANCH   7   8
ATOM      8  C   LIG d   1      -4.814  76.052 114.984  0.00  0.00     0.119 C 
BRANCH   8   9
ATOM      9  C   LIG d   1      -6.210  76.564 115.390  0.00  0.00     0.028 C 
ATOM     10  C   LIG d   1      -6.156  77.529 116.586  0.00  0.00     0.006 C 
ENDBRANCH   8   9
BRANCH   8  11
ATOM     11  C   LIG d   1      -5.005  74.567 114.660  0.00  0.00     0.028 C 
ATOM     12  C   LIG d   1      -6.157  73.928 115.451  0.00  0.00     0.006 C 
ENDBRANCH   8  11
ENDBRANCH   7   8
ENDBRANCH   1   7
BRANCH   6  13
ATOM     13  N   LIG d   1      -1.854  77.670 114.482  0.00  0.00    -0.311 N 
ATOM     14  C   LIG d   1      -2.502  78.815 114.274  0.00  0.00     0.210 C 
ATOM     15  C   LIG d   1      -2.613  79.237 112.805  0.00  0.00     0.109 C 
ATOM     16  O   LIG d   1      -2.967  79.537 115.168  0.00  0.00    -0.276 OA
ATOM     17  H   LIG d   1      -1.482  77.165 113.702  0.00  0.00     0.149 HD
ENDBRANCH   6  13
BRANCH   5  18
ATOM     18  N   LIG d   1       0.708  77.906 116.129  0.00  0.00     0.381 N 
ATOM     19  H   LIG d   1       1.188  77.989 115.255  0.00  0.00    -0.090 HD
ATOM     20  H   LIG d   1       1.393  77.786 116.854  0.00  0.00    -0.090 HD
ATOM     21  H   LIG d   1       0.172  78.728 116.301  0.00  0.00    -0.090 HD
ENDBRANCH   5  18
BRANCH   3  22
ATOM     22  C   LIG d   1      -0.590  73.922 118.448  0.00  0.00     0.382 C 
ATOM     23  O   LIG d   1      -1.268  72.866 118.465  0.00  0.00    -0.241 OA
ATOM     24  O   LIG d   1       0.388  74.035 119.212  0.00  0.00    -0.241 OA
ENDBRANCH   3  22
TORSDOF 7
ENDMDL
MODEL 7
REMARK VINA RESULT:      -4.5     16.081     19.290
REMARK  7 active torsions:
REMARK  status: ('A' for Active; 'I' for Inactive)
REMARK    1  A    between atoms: C_2  and  C_3 
REMARK    2  A    between atoms: C_3  and  O_6 
REMARK    3  A    between atoms: C_3  and  C_4 
REMARK    4  A    between atoms: C_7  and  O_6 
REMARK    5  A    between atoms: C_9  and  C_10 
REMARK    6  A    between atoms: N_15  and  C_14 
REMARK    7  A    between atoms: N_20  and  C_19 
REMARK       I    between atoms: C_22  and  N_20 
ROOT
ATOM      1  C   LIG d   1     -16.310  64.695 115.882  0.00  0.00     0.161 C 
ATOM      2  C   LIG d   1     -15.215  65.015 116.702  0.00  0.00     0.016 C 
ATOM      3  C   LIG d   1     -15.085  66.250 117.378  0.00  0.00     0.038 C 
ATOM      4  C   LIG d   1     -16.121  67.196 117.401  0.00  0.00     0.028 C 
ATOM      5  C   LIG d   1     -17.030  67.128 116.179  0.00  0.00    -0.047 C 
ATOM      6  C   LIG d   1     -17.502  65.669 115.984  0.00  0.00     0.091 C 
ENDROOT
BRANCH   1   7
ATOM      7  O   LIG d   1     -16.741  63.346 116.150  0.00  0.00    -0.368 OA
BRANCH   7   8
ATOM      8  C   LIG d   1     -16.729  62.936 117.539  0.00  0.00     0.119 C 
BRANCH   8   9
ATOM      9  C   LIG d   1     -16.139  61.513 117.597  0.00  0.00     0.028 C 
ATOM     10  C   LIG d   1     -15.124  61.345 118.740  0.00  0.00     0.006 C 
ENDBRANCH   8   9
BRANCH   8  11
ATOM     11  C   LIG d   1     -18.150  62.809 118.096  0.00  0.00     0.028 C 
ATOM     12  C   LIG d   1     -18.507  63.932 119.082  0.00  0.00     0.006 C 
ENDBRANCH   8  11
ENDBRANCH   7   8
ENDBRANCH   1   7
BRANCH   6  13
ATOM     13  N   LIG d   1     -18.328  65.499 114.761  0.00  0.00    -0.311 N 
ATOM     14  C   LIG d   1     -19.575  65.032 114.777  0.00  0.00     0.210 C 
ATOM     15  C   LIG d   1     -20.241  64.916 113.403  0.00  0.00     0.109 C 
ATOM     16  O   LIG d   1     -20.204  64.732 115.803  0.00  0.00    -0.276 OA
ATOM     17  H   LIG d   1     -17.906  65.747 113.887  0.00  0.00     0.149 HD
ENDBRANCH   6  13
BRANCH   5  18
ATOM     18  N   LIG d   1     -18.142  68.072 116.398  0.00  0.00     0.381 N 
ATOM     19  H   LIG d   1     -17.781  68.991 116.556  0.00  0.00    -0.090 HD
ATOM     20  H   LIG d   1     -18.652  67.788 117.216  0.00  0.00    -0.090 HD
ATOM     21  H   LIG d   1     -18.747  68.076 115.606  0.00  0.00    -0.090 HD
ENDBRANCH   5  18
BRANCH   3  22
ATOM     22  C   LIG d   1     -13.891  66.566 118.009  0.00  0.00     0.382 C 
ATOM     23  O   LIG d   1     -12.925  67.005 117.339  0.00  0.00    -0.241 OA
ATOM     24  O   LIG d   1     -13.753  66.375 119.232  0.00  0.00    -0.241 OA
ENDBRANCH   3  22
TORSDOF 7
ENDMDL
MODEL 8
REMARK VINA RESULT:      -4.5      2.455      4.596
REMARK  7 active torsions:
REMARK  status: ('A' for Active; 'I' for Inactive)
REMARK    1  A    between atoms: C_2  and  C_3 
REMARK    2  A    between atoms: C_3  and  O_6 
REMARK    3  A    between atoms: C_3  and  C_4 
REMARK    4  A    between atoms: C_7  and  O_6 
REMARK    5  A    between atoms: C_9  and  C_10 
REMARK    6  A    between atoms: N_15  and  C_14 
REMARK    7  A    between atoms: N_20  and  C_19 
REMARK       I    between atoms: C_22  and  N_20 
ROOT
ATOM      1  C   LIG d   1      -2.905  76.784 116.942  0.00  0.00     0.161 C 
ATOM      2  C   LIG d   1      -3.791  76.021 116.164  0.00  0.00     0.016 C 
ATOM      3  C   LIG d   1      -4.099  76.319 114.816  0.00  0.00     0.038 C 
ATOM      4  C   LIG d   1      -3.421  77.319 114.105  0.00  0.00     0.028 C 
ATOM      5  C   LIG d   1      -2.886  78.437 114.993  0.00  0.00    -0.047 C 
ATOM      6  C   LIG d   1      -2.072  77.813 116.150  0.00  0.00     0.091 C 
ENDROOT
BRANCH   1   7
ATOM      7  O   LIG d   1      -2.040  75.912 117.695  0.00  0.00    -0.368 OA
BRANCH   7   8
ATOM      8  C   LIG d   1      -1.650  74.680 117.040  0.00  0.00     0.119 C 
BRANCH   8   9
ATOM      9  C   LIG d   1      -1.303  73.659 118.141  0.00  0.00     0.028 C 
ATOM     10  C   LIG d   1      -1.516  74.227 119.555  0.00  0.00     0.006 C 
ENDBRANCH   8   9
BRANCH   8  11
ATOM     11  C   LIG d   1      -0.361  74.860 116.233  0.00  0.00     0.028 C 
ATOM     12  C   LIG d   1      -0.530  74.494 114.750  0.00  0.00     0.006 C 
ENDBRANCH   8  11
ENDBRANCH   7   8
ENDBRANCH   1   7
BRANCH   6  13
ATOM     13  N   LIG d   1      -1.582  78.833 117.113  0.00  0.00    -0.311 N 
ATOM     14  C   LIG d   1      -0.408  79.450 116.995  0.00  0.00     0.210 C 
ATOM     15  C   LIG d   1      -0.089  80.452 118.109  0.00  0.00     0.109 C 
ATOM     16  O   LIG d   1       0.386  79.285 116.057  0.00  0.00    -0.276 OA
ATOM     17  H   LIG d   1      -2.178  79.051 117.889  0.00  0.00     0.149 HD
ENDBRANCH   6  13
BRANCH   5  18
ATOM     18  N   LIG d   1      -2.085  79.338 114.143  0.00  0.00     0.381 N 
ATOM     19  H   LIG d   1      -2.637  79.654 113.370  0.00  0.00    -0.090 HD
ATOM     20  H   LIG d   1      -1.298  78.829 113.780  0.00  0.00    -0.090 HD
ATOM     21  H   LIG d   1      -1.769  80.118 114.675  0.00  0.00    -0.090 HD
ENDBRANCH   5  18
BRANCH   3  22
ATOM     22  C   LIG d   1      -5.124  75.637 114.179  0.00  0.00     0.382 C 
ATOM     23  O   LIG d   1      -5.670  76.132 113.163  0.00  0.00    -0.241 OA
ATOM     24  O   LIG d   1      -5.540  74.553 114.632  0.00  0.00    -0.241 OA
ENDBRANCH   3  22
TORSDOF 7
ENDMDL
MODEL 9
REMARK VINA RESULT:      -4.5     11.072     13.279
REMARK  7 active torsions:
REMARK  status: ('A' for Active; 'I' for Inactive)
REMARK    1  A    between atoms: C_2  and  C_3 
REMARK    2  A    between atoms: C_3  and  O_6 
REMARK    3  A    between atoms: C_3  and  C_4 
REMARK    4  A    between atoms: C_7  and  O_6 
REMARK    5  A    between atoms: C_9  and  C_10 
REMARK    6  A    between atoms: N_15  and  C_14 
REMARK    7  A    between atoms: N_20  and  C_19 
REMARK       I    between atoms: C_22  and  N_20 
ROOT
ATOM      1  C   LIG d   1       1.293  88.377 116.598  0.00  0.00     0.161 C 
ATOM      2  C   LIG d   1      -0.050  88.221 116.977  0.00  0.00     0.016 C 
ATOM      3  C   LIG d   1      -0.856  89.285 117.443  0.00  0.00     0.038 C 
ATOM      4  C   LIG d   1      -0.414  90.616 117.418  0.00  0.00     0.028 C 
ATOM      5  C   LIG d   1       1.102  90.753 117.520  0.00  0.00    -0.047 C 
ATOM      6  C   LIG d   1       1.760  89.842 116.459  0.00  0.00     0.091 C 
ENDROOT
BRANCH   1   7
ATOM      7  O   LIG d   1       1.544  87.654 115.376  0.00  0.00    -0.368 OA
BRANCH   7   8
ATOM      8  C   LIG d   1       1.915  86.261 115.526  0.00  0.00     0.119 C 
BRANCH   8   9
ATOM      9  C   LIG d   1       3.130  86.205 116.473  0.00  0.00     0.028 C 
ATOM     10  C   LIG d   1       4.467  86.307 115.719  0.00  0.00     0.006 C 
ENDBRANCH   8   9
BRANCH   8  11
ATOM     11  C   LIG d   1       2.407  85.671 114.201  0.00  0.00     0.028 C 
ATOM     12  C   LIG d   1       1.349  85.743 113.087  0.00  0.00     0.006 C 
ENDBRANCH   8  11
ENDBRANCH   7   8
ENDBRANCH   1   7
BRANCH   6  13
ATOM     13  N   LIG d   1       3.244  89.851 116.545  0.00  0.00    -0.311 N 
ATOM     14  C   LIG d   1       4.038  90.041 115.493  0.00  0.00     0.210 C 
ATOM     15  C   LIG d   1       5.538  89.993 115.798  0.00  0.00     0.109 C 
ATOM     16  O   LIG d   1       3.642  90.276 114.341  0.00  0.00    -0.276 OA
ATOM     17  H   LIG d   1       3.649  89.699 117.448  0.00  0.00     0.149 HD
ENDBRANCH   6  13
BRANCH   5  18
ATOM     18  N   LIG d   1       1.434  92.179 117.343  0.00  0.00     0.381 N 
ATOM     19  H   LIG d   1       1.275  92.672 118.199  0.00  0.00    -0.090 HD
ATOM     20  H   LIG d   1       0.832  92.568 116.639  0.00  0.00    -0.090 HD
ATOM     21  H   LIG d   1       2.386  92.276 117.067  0.00  0.00    -0.090 HD
ENDBRANCH   5  18
BRANCH   3  22
ATOM     22  C   LIG d   1      -2.107  89.016 117.978  0.00  0.00     0.382 C 
ATOM     23  O   LIG d   1      -2.259  88.046 118.760  0.00  0.00    -0.241 OA
ATOM     24  O   LIG d   1      -3.093  89.705 117.655  0.00  0.00    -0.241 OA
ENDBRANCH   3  22
TORSDOF 7
ENDMDL
