MODEL 1
REMARK VINA RESULT:      -5.4      0.000      0.000
REMARK  7 active torsions:
REMARK  status: ('A' for Active; 'I' for Inactive)
REMARK    1  A    between atoms: C_2  and  C_3 
REMARK    2  A    between atoms: C_3  and  O_6 
REMARK    3  A    between atoms: C_3  and  C_4 
REMARK    4  A    between atoms: C_7  and  O_6 
REMARK    5  A    between atoms: C_9  and  C_10 
REMARK    6  A    between atoms: N_15  and  C_14 
REMARK    7  A    between atoms: N_20  and  C_19 
REMARK       I    between atoms: C_22  and  N_20 
ROOT
ATOM      1  C   LIG d   1      -4.650  76.152 116.168  0.00  0.00     0.161 C 
ATOM      2  C   LIG d   1      -3.517  75.445 115.732  0.00  0.00     0.016 C 
ATOM      3  C   LIG d   1      -2.195  75.800 116.085  0.00  0.00     0.038 C 
ATOM      4  C   LIG d   1      -1.923  76.802 117.029  0.00  0.00     0.028 C 
ATOM      5  C   LIG d   1      -3.008  77.870 117.107  0.00  0.00    -0.047 C 
ATOM      6  C   LIG d   1      -4.380  77.180 117.287  0.00  0.00     0.091 C 
ENDROOT
BRANCH   1   7
ATOM      7  O   LIG d   1      -5.677  75.226 116.576  0.00  0.00    -0.368 OA
BRANCH   7   8
ATOM      8  C   LIG d   1      -6.591  74.792 115.539  0.00  0.00     0.119 C 
BRANCH   8   9
ATOM      9  C   LIG d   1      -7.686  75.868 115.407  0.00  0.00     0.028 C 
ATOM     10  C   LIG d   1      -8.940  75.533 116.232  0.00  0.00     0.006 C 
ENDBRANCH   8   9
BRANCH   8  11
ATOM     11  C   LIG d   1      -7.327  73.512 115.947  0.00  0.00     0.028 C 
ATOM     12  C   LIG d   1      -6.562  72.236 115.561  0.00  0.00     0.006 C 
ENDBRANCH   8  11
ENDBRANCH   7   8
ENDBRANCH   1   7
BRANCH   6  13
ATOM     13  N   LIG d   1      -5.506  78.149 117.288  0.00  0.00    -0.311 N 
ATOM     14  C   LIG d   1      -6.071  78.615 118.401  0.00  0.00     0.210 C 
ATOM     15  C   LIG d   1      -7.231  79.591 118.178  0.00  0.00     0.109 C 
ATOM     16  O   LIG d   1      -5.700  78.338 119.552  0.00  0.00    -0.276 OA
ATOM     17  H   LIG d   1      -5.849  78.452 116.397  0.00  0.00     0.149 HD
ENDBRANCH   6  13
BRANCH   5  18
ATOM     18  N   LIG d   1      -2.665  78.773 118.222  0.00  0.00     0.381 N 
ATOM     19  H   LIG d   1      -3.478  78.949 118.778  0.00  0.00    -0.090 HD
ATOM     20  H   LIG d   1      -2.344  79.647 117.846  0.00  0.00    -0.090 HD
ATOM     21  H   LIG d   1      -1.952  78.364 118.785  0.00  0.00    -0.090 HD
ENDBRANCH   5  18
BRANCH   3  22
ATOM     22  C   LIG d   1      -1.126  75.174 115.462  0.00  0.00     0.382 C 
ATOM     23  O   LIG d   1      -0.855  75.440 114.266  0.00  0.00    -0.241 OA
ATOM     24  O   LIG d   1      -0.456  74.315 116.067  0.00  0.00    -0.241 OA
ENDBRANCH   3  22
TORSDOF 7
ENDMDL
MODEL 2
REMARK VINA RESULT:      -5.3     12.981     15.435
REMARK  7 active torsions:
REMARK  status: ('A' for Active; 'I' for Inactive)
REMARK    1  A    between atoms: C_2  and  C_3 
REMARK    2  A    between atoms: C_3  and  O_6 
REMARK    3  A    between atoms: C_3  and  C_4 
REMARK    4  A    between atoms: C_7  and  O_6 
REMARK    5  A    between atoms: C_9  and  C_10 
REMARK    6  A    between atoms: N_15  and  C_14 
REMARK    7  A    between atoms: N_20  and  C_19 
REMARK       I    between atoms: C_22  and  N_20 
ROOT
ATOM      1  C   LIG d   1       2.212  88.921 115.573  0.00  0.00     0.161 C 
ATOM      2  C   LIG d   1       1.069  89.177 116.348  0.00  0.00     0.016 C 
ATOM      3  C   LIG d   1       0.978  90.241 117.274  0.00  0.00     0.038 C 
ATOM      4  C   LIG d   1       1.978  91.220 117.379  0.00  0.00     0.028 C 
ATOM      5  C   LIG d   1       3.361  90.717 116.981  0.00  0.00    -0.047 C 
ATOM      6  C   LIG d   1       3.271  90.044 115.593  0.00  0.00     0.091 C 
ENDROOT
BRANCH   1   7
ATOM      7  O   LIG d   1       1.827  88.620 114.217  0.00  0.00    -0.368 OA
BRANCH   7   8
ATOM      8  C   LIG d   1       1.980  87.240 113.803  0.00  0.00     0.119 C 
BRANCH   8   9
ATOM      9  C   LIG d   1       0.580  86.596 113.811  0.00  0.00     0.028 C 
ATOM     10  C   LIG d   1       0.639  85.061 113.745  0.00  0.00     0.006 C 
ENDBRANCH   8   9
BRANCH   8  11
ATOM     11  C   LIG d   1       2.800  86.440 114.820  0.00  0.00     0.028 C 
ATOM     12  C   LIG d   1       4.142  85.953 114.252  0.00  0.00     0.006 C 
ENDBRANCH   8  11
ENDBRANCH   7   8
ENDBRANCH   1   7
BRANCH   6  13
ATOM     13  N   LIG d   1       4.565  89.449 115.166  0.00  0.00    -0.311 N 
ATOM     14  C   LIG d   1       5.060  89.578 113.937  0.00  0.00     0.210 C 
ATOM     15  C   LIG d   1       6.398  88.870 113.702  0.00  0.00     0.109 C 
ATOM     16  O   LIG d   1       4.535  90.239 113.028  0.00  0.00    -0.276 OA
ATOM     17  H   LIG d   1       5.072  88.923 115.850  0.00  0.00     0.149 HD
ENDBRANCH   6  13
BRANCH   5  18
ATOM     18  N   LIG d   1       4.279  91.872 117.005  0.00  0.00     0.381 N 
ATOM     19  H   LIG d   1       3.782  92.705 116.758  0.00  0.00    -0.090 HD
ATOM     20  H   LIG d   1       5.005  91.725 116.326  0.00  0.00    -0.090 HD
ATOM     21  H   LIG d   1       4.678  91.972 117.912  0.00  0.00    -0.090 HD
ENDBRANCH   5  18
BRANCH   3  22
ATOM     22  C   LIG d   1      -0.106  90.312 118.136  0.00  0.00     0.382 C 
ATOM     23  O   LIG d   1      -0.138  89.591 119.163  0.00  0.00    -0.241 OA
ATOM     24  O   LIG d   1      -1.072  91.054 117.877  0.00  0.00    -0.241 OA
ENDBRANCH   3  22
TORSDOF 7
ENDMDL
MODEL 3
REMARK VINA RESULT:      -5.2     14.124     16.699
REMARK  7 active torsions:
REMARK  status: ('A' for Active; 'I' for Inactive)
REMARK    1  A    between atoms: C_2  and  C_3 
REMARK    2  A    between atoms: C_3  and  O_6 
REMARK    3  A    between atoms: C_3  and  C_4 
REMARK    4  A    between atoms: C_7  and  O_6 
REMARK    5  A    between atoms: C_9  and  C_10 
REMARK    6  A    between atoms: N_15  and  C_14 
REMARK    7  A    between atoms: N_20  and  C_19 
REMARK       I    between atoms: C_22  and  N_20 
ROOT
ATOM      1  C   LIG d   1      -3.626  91.932 117.213  0.00  0.00     0.161 C 
ATOM      2  C   LIG d   1      -2.948  93.039 117.752  0.00  0.00     0.016 C 
ATOM      3  C   LIG d   1      -3.516  93.907 118.712  0.00  0.00     0.038 C 
ATOM      4  C   LIG d   1      -4.754  93.638 119.315  0.00  0.00     0.028 C 
ATOM      5  C   LIG d   1      -5.689  92.813 118.437  0.00  0.00    -0.047 C 
ATOM      6  C   LIG d   1      -4.935  91.559 117.941  0.00  0.00     0.091 C 
ENDROOT
BRANCH   1   7
ATOM      7  O   LIG d   1      -2.741  90.796 117.159  0.00  0.00    -0.368 OA
BRANCH   7   8
ATOM      8  C   LIG d   1      -1.409  91.000 117.691  0.00  0.00     0.119 C 
BRANCH   8   9
ATOM      9  C   LIG d   1      -0.406  90.514 116.626  0.00  0.00     0.028 C 
ATOM     10  C   LIG d   1       0.821  89.826 117.247  0.00  0.00     0.006 C 
ENDBRANCH   8   9
BRANCH   8  11
ATOM     11  C   LIG d   1      -1.157  90.118 118.917  0.00  0.00     0.028 C 
ATOM     12  C   LIG d   1      -2.322  89.161 119.212  0.00  0.00     0.006 C 
ENDBRANCH   8  11
ENDBRANCH   7   8
ENDBRANCH   1   7
BRANCH   6  13
ATOM     13  N   LIG d   1      -5.750  90.740 117.007  0.00  0.00    -0.311 N 
ATOM     14  C   LIG d   1      -6.229  91.202 115.853  0.00  0.00     0.210 C 
ATOM     15  C   LIG d   1      -7.062  90.198 115.050  0.00  0.00     0.109 C 
ATOM     16  O   LIG d   1      -6.016  92.337 115.403  0.00  0.00    -0.276 OA
ATOM     17  H   LIG d   1      -5.945  89.796 117.279  0.00  0.00     0.149 HD
ENDBRANCH   6  13
BRANCH   5  18
ATOM     18  N   LIG d   1      -6.884  92.490 119.239  0.00  0.00     0.381 N 
ATOM     19  H   LIG d   1      -6.608  92.205 120.158  0.00  0.00    -0.090 HD
ATOM     20  H   LIG d   1      -7.370  91.726 118.805  0.00  0.00    -0.090 HD
ATOM     21  H   LIG d   1      -7.482  93.285 119.296  0.00  0.00    -0.090 HD
ENDBRANCH   5  18
BRANCH   3  22
ATOM     22  C   LIG d   1      -2.861  95.082 119.049  0.00  0.00     0.382 C 
ATOM     23  O   LIG d   1      -1.610  95.144 118.977  0.00  0.00    -0.241 OA
ATOM     24  O   LIG d   1      -3.501  96.065 119.467  0.00  0.00    -0.241 OA
ENDBRANCH   3  22
TORSDOF 7
ENDMDL
MODEL 4
REMARK VINA RESULT:      -4.8     14.755     17.475
REMARK  7 active torsions:
REMARK  status: ('A' for Active; 'I' for Inactive)
REMARK    1  A    between atoms: C_2  and  C_3 
REMARK    2  A    between atoms: C_3  and  O_6 
REMARK    3  A    between atoms: C_3  and  C_4 
REMARK    4  A    between atoms: C_7  and  O_6 
REMARK    5  A    between atoms: C_9  and  C_10 
REMARK    6  A    between atoms: N_15  and  C_14 
REMARK    7  A    between atoms: N_20  and  C_19 
REMARK       I    between atoms: C_22  and  N_20 
ROOT
ATOM      1  C   LIG d   1       3.700  90.326 116.367  0.00  0.00     0.161 C 
ATOM      2  C   LIG d   1       2.556  90.994 116.836  0.00  0.00     0.016 C 
ATOM      3  C   LIG d   1       1.238  90.558 116.573  0.00  0.00     0.038 C 
ATOM      4  C   LIG d   1       0.974  89.330 115.946  0.00  0.00     0.028 C 
ATOM      5  C   LIG d   1       2.091  88.874 115.014  0.00  0.00    -0.047 C 
ATOM      6  C   LIG d   1       3.434  88.926 115.777  0.00  0.00     0.091 C 
ENDROOT
BRANCH   1   7
ATOM      7  O   LIG d   1       4.685  90.249 117.417  0.00  0.00    -0.368 OA
BRANCH   7   8
ATOM      8  C   LIG d   1       5.776  91.199 117.338  0.00  0.00     0.119 C 
BRANCH   8   9
ATOM      9  C   LIG d   1       7.029  90.428 116.878  0.00  0.00     0.028 C 
ATOM     10  C   LIG d   1       8.333  91.088 117.358  0.00  0.00     0.006 C 
ENDBRANCH   8   9
BRANCH   8  11
ATOM     11  C   LIG d   1       6.128  91.759 118.719  0.00  0.00     0.028 C 
ATOM     12  C   LIG d   1       4.917  92.370 119.441  0.00  0.00     0.006 C 
ENDBRANCH   8  11
ENDBRANCH   7   8
ENDBRANCH   1   7
BRANCH   6  13
ATOM     13  N   LIG d   1       4.591  88.575 114.912  0.00  0.00    -0.311 N 
ATOM     14  C   LIG d   1       4.959  89.294 113.853  0.00  0.00     0.210 C 
ATOM     15  C   LIG d   1       6.167  88.745 113.087  0.00  0.00     0.109 C 
ATOM     16  O   LIG d   1       4.419  90.351 113.493  0.00  0.00    -0.276 OA
ATOM     17  H   LIG d   1       5.105  87.749 115.150  0.00  0.00     0.149 HD
ENDBRANCH   6  13
BRANCH   5  18
ATOM     18  N   LIG d   1       1.748  87.521 114.537  0.00  0.00     0.381 N 
ATOM     19  H   LIG d   1       1.478  86.947 115.311  0.00  0.00    -0.090 HD
ATOM     20  H   LIG d   1       2.560  87.112 114.109  0.00  0.00    -0.090 HD
ATOM     21  H   LIG d   1       1.005  87.571 113.875  0.00  0.00    -0.090 HD
ENDBRANCH   5  18
BRANCH   3  22
ATOM     22  C   LIG d   1       0.165  91.372 116.903  0.00  0.00     0.382 C 
ATOM     23  O   LIG d   1      -1.000  90.907 116.899  0.00  0.00    -0.241 OA
ATOM     24  O   LIG d   1       0.344  92.578 117.162  0.00  0.00    -0.241 OA
ENDBRANCH   3  22
TORSDOF 7
ENDMDL
MODEL 5
REMARK VINA RESULT:      -4.7     14.357     16.612
REMARK  7 active torsions:
REMARK  status: ('A' for Active; 'I' for Inactive)
REMARK    1  A    between atoms: C_2  and  C_3 
REMARK    2  A    between atoms: C_3  and  O_6 
REMARK    3  A    between atoms: C_3  and  C_4 
REMARK    4  A    between atoms: C_7  and  O_6 
REMARK    5  A    between atoms: C_9  and  C_10 
REMARK    6  A    between atoms: N_15  and  C_14 
REMARK    7  A    between atoms: N_20  and  C_19 
REMARK       I    between atoms: C_22  and  N_20 
ROOT
ATOM      1  C   LIG d   1       3.342  89.397 115.665  0.00  0.00     0.161 C 
ATOM      2  C   LIG d   1       2.119  90.061 115.853  0.00  0.00     0.016 C 
ATOM      3  C   LIG d   1       1.871  90.945 116.929  0.00  0.00     0.038 C 
ATOM      4  C   LIG d   1       2.887  91.344 117.810  0.00  0.00     0.028 C 
ATOM      5  C   LIG d   1       3.999  90.311 117.959  0.00  0.00    -0.047 C 
ATOM      6  C   LIG d   1       4.497  89.904 116.553  0.00  0.00     0.091 C 
ENDROOT
BRANCH   1   7
ATOM      7  O   LIG d   1       3.718  89.450 114.275  0.00  0.00    -0.368 OA
BRANCH   7   8
ATOM      8  C   LIG d   1       3.594  88.211 113.533  0.00  0.00     0.119 C 
BRANCH   8   9
ATOM      9  C   LIG d   1       3.293  87.092 114.549  0.00  0.00     0.028 C 
ATOM     10  C   LIG d   1       4.328  85.956 114.494  0.00  0.00     0.006 C 
ENDBRANCH   8   9
BRANCH   8  11
ATOM     11  C   LIG d   1       4.922  87.818 112.879  0.00  0.00     0.028 C 
ATOM     12  C   LIG d   1       6.006  88.897 113.036  0.00  0.00     0.006 C 
ENDBRANCH   8  11
ENDBRANCH   7   8
ENDBRANCH   1   7
BRANCH   6  13
ATOM     13  N   LIG d   1       5.528  88.835 116.605  0.00  0.00    -0.311 N 
ATOM     14  C   LIG d   1       6.838  89.079 116.618  0.00  0.00     0.210 C 
ATOM     15  C   LIG d   1       7.727  87.833 116.652  0.00  0.00     0.109 C 
ATOM     16  O   LIG d   1       7.346  90.210 116.637  0.00  0.00    -0.276 OA
ATOM     17  H   LIG d   1       5.203  87.888 116.623  0.00  0.00     0.149 HD
ENDBRANCH   6  13
BRANCH   5  18
ATOM     18  N   LIG d   1       5.056  90.912 118.795  0.00  0.00     0.381 N 
ATOM     19  H   LIG d   1       5.859  91.113 118.233  0.00  0.00    -0.090 HD
ATOM     20  H   LIG d   1       5.324  90.252 119.504  0.00  0.00    -0.090 HD
ATOM     21  H   LIG d   1       4.721  91.748 119.220  0.00  0.00    -0.090 HD
ENDBRANCH   5  18
BRANCH   3  22
ATOM     22  C   LIG d   1       0.584  91.410 117.154  0.00  0.00     0.382 C 
ATOM     23  O   LIG d   1      -0.388  90.620 117.085  0.00  0.00    -0.241 OA
ATOM     24  O   LIG d   1       0.379  92.617 117.382  0.00  0.00    -0.241 OA
ENDBRANCH   3  22
TORSDOF 7
ENDMDL
MODEL 6
REMARK VINA RESULT:      -4.6     12.113     14.589
REMARK  7 active torsions:
REMARK  status: ('A' for Active; 'I' for Inactive)
REMARK    1  A    between atoms: C_2  and  C_3 
REMARK    2  A    between atoms: C_3  and  O_6 
REMARK    3  A    between atoms: C_3  and  C_4 
REMARK    4  A    between atoms: C_7  and  O_6 
REMARK    5  A    between atoms: C_9  and  C_10 
REMARK    6  A    between atoms: N_15  and  C_14 
REMARK    7  A    between atoms: N_20  and  C_19 
REMARK       I    between atoms: C_22  and  N_20 
ROOT
ATOM      1  C   LIG d   1       3.846  87.037 116.002  0.00  0.00     0.161 C 
ATOM      2  C   LIG d   1       4.331  88.156 115.303  0.00  0.00     0.016 C 
ATOM      3  C   LIG d   1       4.419  88.214 113.893  0.00  0.00     0.038 C 
ATOM      4  C   LIG d   1       3.884  87.208 113.075  0.00  0.00     0.028 C 
ATOM      5  C   LIG d   1       3.843  85.839 113.745  0.00  0.00    -0.047 C 
ATOM      6  C   LIG d   1       3.155  85.975 115.122  0.00  0.00     0.091 C 
ENDROOT
BRANCH   1   7
ATOM      7  O   LIG d   1       2.963  87.466 117.057  0.00  0.00    -0.368 OA
BRANCH   7   8
ATOM      8  C   LIG d   1       2.907  88.893 117.301  0.00  0.00     0.119 C 
BRANCH   8   9
ATOM      9  C   LIG d   1       3.474  89.144 118.712  0.00  0.00     0.028 C 
ATOM     10  C   LIG d   1       4.161  90.515 118.833  0.00  0.00     0.006 C 
ENDBRANCH   8   9
BRANCH   8  11
ATOM     11  C   LIG d   1       1.460  89.393 117.351  0.00  0.00     0.028 C 
ATOM     12  C   LIG d   1       0.905  89.750 115.963  0.00  0.00     0.006 C 
ENDBRANCH   8  11
ENDBRANCH   7   8
ENDBRANCH   1   7
BRANCH   6  13
ATOM     13  N   LIG d   1       3.149  84.697 115.881  0.00  0.00    -0.311 N 
ATOM     14  C   LIG d   1       2.173  83.795 115.791  0.00  0.00     0.210 C 
ATOM     15  C   LIG d   1       2.353  82.557 116.674  0.00  0.00     0.109 C 
ATOM     16  O   LIG d   1       1.191  83.889 115.039  0.00  0.00    -0.276 OA
ATOM     17  H   LIG d   1       3.923  84.526 116.492  0.00  0.00     0.149 HD
ENDBRANCH   6  13
BRANCH   5  18
ATOM     18  N   LIG d   1       3.138  84.918 112.834  0.00  0.00     0.381 N 
ATOM     19  H   LIG d   1       2.874  85.402 112.000  0.00  0.00    -0.090 HD
ATOM     20  H   LIG d   1       2.303  84.590 113.286  0.00  0.00    -0.090 HD
ATOM     21  H   LIG d   1       3.726  84.146 112.607  0.00  0.00    -0.090 HD
ENDBRANCH   5  18
BRANCH   3  22
ATOM     22  C   LIG d   1       5.084  89.270 113.289  0.00  0.00     0.382 C 
ATOM     23  O   LIG d   1       6.229  89.096 112.807  0.00  0.00    -0.241 OA
ATOM     24  O   LIG d   1       4.573  90.405 113.260  0.00  0.00    -0.241 OA
ENDBRANCH   3  22
TORSDOF 7
ENDMDL
MODEL 7
REMARK VINA RESULT:      -4.6     13.116     15.564
REMARK  7 active torsions:
REMARK  status: ('A' for Active; 'I' for Inactive)
REMARK    1  A    between atoms: C_2  and  C_3 
REMARK    2  A    between atoms: C_3  and  O_6 
REMARK    3  A    between atoms: C_3  and  C_4 
REMARK    4  A    between atoms: C_7  and  O_6 
REMARK    5  A    between atoms: C_9  and  C_10 
REMARK    6  A    between atoms: N_15  and  C_14 
REMARK    7  A    between atoms: N_20  and  C_19 
REMARK       I    between atoms: C_22  and  N_20 
ROOT
ATOM      1  C   LIG d   1       3.955  87.767 116.576  0.00  0.00     0.161 C 
ATOM      2  C   LIG d   1       3.728  86.720 115.667  0.00  0.00     0.016 C 
ATOM      3  C   LIG d   1       2.607  86.664 114.808  0.00  0.00     0.038 C 
ATOM      4  C   LIG d   1       1.708  87.734 114.692  0.00  0.00     0.028 C 
ATOM      5  C   LIG d   1       1.617  88.589 115.952  0.00  0.00    -0.047 C 
ATOM      6  C   LIG d   1       3.044  88.997 116.385  0.00  0.00     0.091 C 
ENDROOT
BRANCH   1   7
ATOM      7  O   LIG d   1       5.341  88.158 116.535  0.00  0.00    -0.368 OA
BRANCH   7   8
ATOM      8  C   LIG d   1       5.659  89.290 115.687  0.00  0.00     0.119 C 
BRANCH   8   9
ATOM      9  C   LIG d   1       6.486  88.761 114.499  0.00  0.00     0.028 C 
ATOM     10  C   LIG d   1       5.673  88.708 113.195  0.00  0.00     0.006 C 
ENDBRANCH   8   9
BRANCH   8  11
ATOM     11  C   LIG d   1       6.573  90.285 116.407  0.00  0.00     0.028 C 
ATOM     12  C   LIG d   1       6.692  90.004 117.913  0.00  0.00     0.006 C 
ENDBRANCH   8  11
ENDBRANCH   7   8
ENDBRANCH   1   7
BRANCH   6  13
ATOM     13  N   LIG d   1       3.052  89.765 117.657  0.00  0.00    -0.311 N 
ATOM     14  C   LIG d   1       3.092  91.095 117.711  0.00  0.00     0.210 C 
ATOM     15  C   LIG d   1       3.113  91.685 119.124  0.00  0.00     0.109 C 
ATOM     16  O   LIG d   1       3.078  91.843 116.722  0.00  0.00    -0.276 OA
ATOM     17  H   LIG d   1       3.033  89.238 118.508  0.00  0.00     0.149 HD
ENDBRANCH   6  13
BRANCH   5  18
ATOM     18  N   LIG d   1       0.753  89.744 115.646  0.00  0.00     0.381 N 
ATOM     19  H   LIG d   1       0.889  90.460 116.331  0.00  0.00    -0.090 HD
ATOM     20  H   LIG d   1      -0.208  89.450 115.683  0.00  0.00    -0.090 HD
ATOM     21  H   LIG d   1       0.965  90.098 114.739  0.00  0.00    -0.090 HD
ENDBRANCH   5  18
BRANCH   3  22
ATOM     22  C   LIG d   1       2.354  85.510 114.082  0.00  0.00     0.382 C 
ATOM     23  O   LIG d   1       1.193  85.269 113.672  0.00  0.00    -0.241 OA
ATOM     24  O   LIG d   1       3.263  84.685 113.870  0.00  0.00    -0.241 OA
ENDBRANCH   3  22
TORSDOF 7
ENDMDL
MODEL 8
REMARK VINA RESULT:      -4.6     13.840     15.796
REMARK  7 active torsions:
REMARK  status: ('A' for Active; 'I' for Inactive)
REMARK    1  A    between atoms: C_2  and  C_3 
REMARK    2  A    between atoms: C_3  and  O_6 
REMARK    3  A    between atoms: C_3  and  C_4 
REMARK    4  A    between atoms: C_7  and  O_6 
REMARK    5  A    between atoms: C_9  and  C_10 
REMARK    6  A    between atoms: N_15  and  C_14 
REMARK    7  A    between atoms: N_20  and  C_19 
REMARK       I    between atoms: C_22  and  N_20 
ROOT
ATOM      1  C   LIG d   1       2.405  89.764 117.125  0.00  0.00     0.161 C 
ATOM      2  C   LIG d   1       1.840  89.125 116.009  0.00  0.00     0.016 C 
ATOM      3  C   LIG d   1       2.591  88.361 115.086  0.00  0.00     0.038 C 
ATOM      4  C   LIG d   1       3.944  88.058 115.303  0.00  0.00     0.028 C 
ATOM      5  C   LIG d   1       4.670  89.098 116.148  0.00  0.00    -0.047 C 
ATOM      6  C   LIG d   1       3.859  89.352 117.439  0.00  0.00     0.091 C 
ENDROOT
BRANCH   1   7
ATOM      7  O   LIG d   1       1.567  89.562 118.280  0.00  0.00    -0.368 OA
BRANCH   7   8
ATOM      8  C   LIG d   1       0.404  90.420 118.382  0.00  0.00     0.119 C 
BRANCH   8   9
ATOM      9  C   LIG d   1       0.862  91.746 119.020  0.00  0.00     0.028 C 
ATOM     10  C   LIG d   1      -0.184  92.863 118.867  0.00  0.00     0.006 C 
ENDBRANCH   8   9
BRANCH   8  11
ATOM     11  C   LIG d   1      -0.633  89.841 119.349  0.00  0.00     0.028 C 
ATOM     12  C   LIG d   1      -1.930  89.412 118.644  0.00  0.00     0.006 C 
ENDBRANCH   8  11
ENDBRANCH   7   8
ENDBRANCH   1   7
BRANCH   6  13
ATOM     13  N   LIG d   1       4.456  90.419 118.284  0.00  0.00    -0.311 N 
ATOM     14  C   LIG d   1       4.520  91.697 117.914  0.00  0.00     0.210 C 
ATOM     15  C   LIG d   1       5.194  92.630 118.925  0.00  0.00     0.109 C 
ATOM     16  O   LIG d   1       4.054  92.152 116.858  0.00  0.00    -0.276 OA
ATOM     17  H   LIG d   1       4.830  90.143 119.170  0.00  0.00     0.149 HD
ENDBRANCH   6  13
BRANCH   5  18
ATOM     18  N   LIG d   1       6.030  88.589 116.410  0.00  0.00     0.381 N 
ATOM     19  H   LIG d   1       6.281  88.768 117.362  0.00  0.00    -0.090 HD
ATOM     20  H   LIG d   1       6.679  89.075 115.817  0.00  0.00    -0.090 HD
ATOM     21  H   LIG d   1       6.069  87.611 116.227  0.00  0.00    -0.090 HD
ENDBRANCH   5  18
BRANCH   3  22
ATOM     22  C   LIG d   1       1.999  87.925 113.911  0.00  0.00     0.382 C 
ATOM     23  O   LIG d   1       1.025  87.135 113.955  0.00  0.00    -0.241 OA
ATOM     24  O   LIG d   1       2.453  88.278 112.806  0.00  0.00    -0.241 OA
ENDBRANCH   3  22
TORSDOF 7
ENDMDL
MODEL 9
REMARK VINA RESULT:      -4.5     14.699     17.745
REMARK  7 active torsions:
REMARK  status: ('A' for Active; 'I' for Inactive)
REMARK    1  A    between atoms: C_2  and  C_3 
REMARK    2  A    between atoms: C_3  and  O_6 
REMARK    3  A    between atoms: C_3  and  C_4 
REMARK    4  A    between atoms: C_7  and  O_6 
REMARK    5  A    between atoms: C_9  and  C_10 
REMARK    6  A    between atoms: N_15  and  C_14 
REMARK    7  A    between atoms: N_20  and  C_19 
REMARK       I    between atoms: C_22  and  N_20 
ROOT
ATOM      1  C   LIG d   1     -18.635  65.515 117.468  0.00  0.00     0.161 C 
ATOM      2  C   LIG d   1     -17.750  66.359 118.159  0.00  0.00     0.016 C 
ATOM      3  C   LIG d   1     -16.609  66.945 117.565  0.00  0.00     0.038 C 
ATOM      4  C   LIG d   1     -16.357  66.846 116.188  0.00  0.00     0.028 C 
ATOM      5  C   LIG d   1     -16.945  65.591 115.553  0.00  0.00    -0.047 C 
ATOM      6  C   LIG d   1     -18.438  65.486 115.938  0.00  0.00     0.091 C 
ENDROOT
BRANCH   1   7
ATOM      7  O   LIG d   1     -19.995  65.864 117.792  0.00  0.00    -0.368 OA
BRANCH   7   8
ATOM      8  C   LIG d   1     -20.421  67.195 117.410  0.00  0.00     0.119 C 
BRANCH   8   9
ATOM      9  C   LIG d   1     -21.128  67.822 118.627  0.00  0.00     0.028 C 
ATOM     10  C   LIG d   1     -20.153  68.566 119.554  0.00  0.00     0.006 C 
ENDBRANCH   8   9
BRANCH   8  11
ATOM     11  C   LIG d   1     -21.480  67.146 116.305  0.00  0.00     0.028 C 
ATOM     12  C   LIG d   1     -22.325  65.863 116.346  0.00  0.00     0.006 C 
ENDBRANCH   8  11
ENDBRANCH   7   8
ENDBRANCH   1   7
BRANCH   6  13
ATOM     13  N   LIG d   1     -19.069  64.241 115.427  0.00  0.00    -0.311 N 
ATOM     14  C   LIG d   1     -19.745  64.178 114.282  0.00  0.00     0.210 C 
ATOM     15  C   LIG d   1     -20.332  62.802 113.951  0.00  0.00     0.109 C 
ATOM     16  O   LIG d   1     -19.887  65.124 113.492  0.00  0.00    -0.276 OA
ATOM     17  H   LIG d   1     -18.975  63.418 115.990  0.00  0.00     0.149 HD
ENDBRANCH   6  13
BRANCH   5  18
ATOM     18  N   LIG d   1     -16.728  65.684 114.097  0.00  0.00     0.381 N 
ATOM     19  H   LIG d   1     -16.955  66.605 113.779  0.00  0.00    -0.090 HD
ATOM     20  H   LIG d   1     -17.337  65.032 113.635  0.00  0.00    -0.090 HD
ATOM     21  H   LIG d   1     -15.778  65.474 113.880  0.00  0.00    -0.090 HD
ENDBRANCH   5  18
BRANCH   3  22
ATOM     22  C   LIG d   1     -15.683  67.606 118.358  0.00  0.00     0.382 C 
ATOM     23  O   LIG d   1     -14.582  67.065 118.620  0.00  0.00    -0.241 OA
ATOM     24  O   LIG d   1     -15.953  68.717 118.851  0.00  0.00    -0.241 OA
ENDBRANCH   3  22
TORSDOF 7
ENDMDL
