MODEL 1
REMARK VINA RESULT:      -5.0      0.000      0.000
REMARK  7 active torsions:
REMARK  status: ('A' for Active; 'I' for Inactive)
REMARK    1  A    between atoms: C_2  and  C_3 
REMARK    2  A    between atoms: C_3  and  O_6 
REMARK    3  A    between atoms: C_3  and  C_4 
REMARK    4  A    between atoms: C_7  and  O_6 
REMARK    5  A    between atoms: C_9  and  C_10 
REMARK    6  A    between atoms: N_15  and  C_14 
REMARK    7  A    between atoms: N_20  and  C_19 
REMARK       I    between atoms: C_22  and  N_20 
ROOT
ATOM      1  C   LIG d   1      -2.712  74.259 116.139  0.00  0.00     0.161 C 
ATOM      2  C   LIG d   1      -1.720  75.050 115.536  0.00  0.00     0.016 C 
ATOM      3  C   LIG d   1      -1.977  75.941 114.469  0.00  0.00     0.038 C 
ATOM      4  C   LIG d   1      -3.281  76.215 114.029  0.00  0.00     0.028 C 
ATOM      5  C   LIG d   1      -4.254  75.065 114.268  0.00  0.00    -0.047 C 
ATOM      6  C   LIG d   1      -4.158  74.626 115.747  0.00  0.00     0.091 C 
ENDROOT
BRANCH   1   7
ATOM      7  O   LIG d   1      -2.557  74.289 117.571  0.00  0.00    -0.368 OA
BRANCH   7   8
ATOM      8  C   LIG d   1      -1.843  75.429 118.111  0.00  0.00     0.119 C 
BRANCH   8   9
ATOM      9  C   LIG d   1      -0.924  74.909 119.234  0.00  0.00     0.028 C 
ATOM     10  C   LIG d   1      -1.101  73.402 119.487  0.00  0.00     0.006 C 
ENDBRANCH   8   9
BRANCH   8  11
ATOM     11  C   LIG d   1      -2.799  76.413 118.792  0.00  0.00     0.028 C 
ATOM     12  C   LIG d   1      -3.239  77.555 117.863  0.00  0.00     0.006 C 
ENDBRANCH   8  11
ENDBRANCH   7   8
ENDBRANCH   1   7
BRANCH   6  13
ATOM     13  N   LIG d   1      -5.017  73.450 116.045  0.00  0.00    -0.311 N 
ATOM     14  C   LIG d   1      -6.245  73.549 116.551  0.00  0.00     0.210 C 
ATOM     15  C   LIG d   1      -6.951  72.212 116.802  0.00  0.00     0.109 C 
ATOM     16  O   LIG d   1      -6.830  74.617 116.786  0.00  0.00    -0.276 OA
ATOM     17  H   LIG d   1      -4.633  72.545 115.856  0.00  0.00     0.149 HD
ENDBRANCH   6  13
BRANCH   5  18
ATOM     18  N   LIG d   1      -5.600  75.536 113.891  0.00  0.00     0.381 N 
ATOM     19  H   LIG d   1      -5.528  76.236 113.180  0.00  0.00    -0.090 HD
ATOM     20  H   LIG d   1      -6.038  75.948 114.696  0.00  0.00    -0.090 HD
ATOM     21  H   LIG d   1      -6.148  74.772 113.560  0.00  0.00    -0.090 HD
ENDBRANCH   5  18
BRANCH   3  22
ATOM     22  C   LIG d   1      -0.918  76.540 113.803  0.00  0.00     0.382 C 
ATOM     23  O   LIG d   1       0.262  76.258 114.121  0.00  0.00    -0.241 OA
ATOM     24  O   LIG d   1      -1.128  77.391 112.918  0.00  0.00    -0.241 OA
ENDBRANCH   3  22
TORSDOF 7
ENDMDL
MODEL 2
REMARK VINA RESULT:      -4.9      3.800      6.663
REMARK  7 active torsions:
REMARK  status: ('A' for Active; 'I' for Inactive)
REMARK    1  A    between atoms: C_2  and  C_3 
REMARK    2  A    between atoms: C_3  and  O_6 
REMARK    3  A    between atoms: C_3  and  C_4 
REMARK    4  A    between atoms: C_7  and  O_6 
REMARK    5  A    between atoms: C_9  and  C_10 
REMARK    6  A    between atoms: N_15  and  C_14 
REMARK    7  A    between atoms: N_20  and  C_19 
REMARK       I    between atoms: C_22  and  N_20 
ROOT
ATOM      1  C   LIG d   1      -5.914  77.500 117.007  0.00  0.00     0.161 C 
ATOM      2  C   LIG d   1      -7.217  78.020 117.095  0.00  0.00     0.016 C 
ATOM      3  C   LIG d   1      -7.556  79.139 117.890  0.00  0.00     0.038 C 
ATOM      4  C   LIG d   1      -6.580  79.912 118.537  0.00  0.00     0.028 C 
ATOM      5  C   LIG d   1      -5.319  79.129 118.884  0.00  0.00    -0.047 C 
ATOM      6  C   LIG d   1      -4.818  78.398 117.618  0.00  0.00     0.091 C 
ENDROOT
BRANCH   1   7
ATOM      7  O   LIG d   1      -5.603  77.193 115.634  0.00  0.00    -0.368 OA
BRANCH   7   8
ATOM      8  C   LIG d   1      -5.917  75.848 115.195  0.00  0.00     0.119 C 
BRANCH   8   9
ATOM      9  C   LIG d   1      -5.426  74.878 116.288  0.00  0.00     0.028 C 
ATOM     10  C   LIG d   1      -6.470  73.801 116.627  0.00  0.00     0.006 C 
ENDBRANCH   8   9
BRANCH   8  11
ATOM     11  C   LIG d   1      -5.127  75.474 113.937  0.00  0.00     0.028 C 
ATOM     12  C   LIG d   1      -3.693  76.026 113.947  0.00  0.00     0.006 C 
ENDBRANCH   8  11
ENDBRANCH   7   8
ENDBRANCH   1   7
BRANCH   6  13
ATOM     13  N   LIG d   1      -3.634  77.540 117.890  0.00  0.00    -0.311 N 
ATOM     14  C   LIG d   1      -2.489  77.638 117.218  0.00  0.00     0.210 C 
ATOM     15  C   LIG d   1      -1.403  76.645 117.644  0.00  0.00     0.109 C 
ATOM     16  O   LIG d   1      -2.257  78.474 116.331  0.00  0.00    -0.276 OA
ATOM     17  H   LIG d   1      -3.724  76.855 118.614  0.00  0.00     0.149 HD
ENDBRANCH   6  13
BRANCH   5  18
ATOM     18  N   LIG d   1      -4.336  80.085 119.427  0.00  0.00     0.381 N 
ATOM     19  H   LIG d   1      -3.740  80.411 118.693  0.00  0.00    -0.090 HD
ATOM     20  H   LIG d   1      -3.768  79.615 120.110  0.00  0.00    -0.090 HD
ATOM     21  H   LIG d   1      -4.806  80.855 119.850  0.00  0.00    -0.090 HD
ENDBRANCH   5  18
BRANCH   3  22
ATOM     22  C   LIG d   1      -8.889  79.471 118.076  0.00  0.00     0.382 C 
ATOM     23  O   LIG d   1      -9.753  78.566 118.171  0.00  0.00    -0.241 OA
ATOM     24  O   LIG d   1      -9.245  80.664 118.105  0.00  0.00    -0.241 OA
ENDBRANCH   3  22
TORSDOF 7
ENDMDL
MODEL 3
REMARK VINA RESULT:      -4.7      2.951      5.112
REMARK  7 active torsions:
REMARK  status: ('A' for Active; 'I' for Inactive)
REMARK    1  A    between atoms: C_2  and  C_3 
REMARK    2  A    between atoms: C_3  and  O_6 
REMARK    3  A    between atoms: C_3  and  C_4 
REMARK    4  A    between atoms: C_7  and  O_6 
REMARK    5  A    between atoms: C_9  and  C_10 
REMARK    6  A    between atoms: N_15  and  C_14 
REMARK    7  A    between atoms: N_20  and  C_19 
REMARK       I    between atoms: C_22  and  N_20 
ROOT
ATOM      1  C   LIG d   1      -0.615  76.043 115.672  0.00  0.00     0.161 C 
ATOM      2  C   LIG d   1      -1.856  76.168 115.025  0.00  0.00     0.016 C 
ATOM      3  C   LIG d   1      -2.866  75.181 115.082  0.00  0.00     0.038 C 
ATOM      4  C   LIG d   1      -2.762  74.061 115.920  0.00  0.00     0.028 C 
ATOM      5  C   LIG d   1      -1.321  73.644 116.198  0.00  0.00    -0.047 C 
ATOM      6  C   LIG d   1      -0.526  74.879 116.681  0.00  0.00     0.091 C 
ENDROOT
BRANCH   1   7
ATOM      7  O   LIG d   1      -0.270  77.288 116.312  0.00  0.00    -0.368 OA
BRANCH   7   8
ATOM      8  C   LIG d   1      -0.992  77.601 117.529  0.00  0.00     0.119 C 
BRANCH   8   9
ATOM      9  C   LIG d   1      -1.734  78.931 117.297  0.00  0.00     0.028 C 
ATOM     10  C   LIG d   1      -2.000  79.690 118.608  0.00  0.00     0.006 C 
ENDBRANCH   8   9
BRANCH   8  11
ATOM     11  C   LIG d   1      -0.033  77.869 118.692  0.00  0.00     0.028 C 
ATOM     12  C   LIG d   1       1.426  78.028 118.238  0.00  0.00     0.006 C 
ENDBRANCH   8  11
ENDBRANCH   7   8
ENDBRANCH   1   7
BRANCH   6  13
ATOM     13  N   LIG d   1       0.913  74.578 116.895  0.00  0.00    -0.311 N 
ATOM     14  C   LIG d   1       1.437  74.312 118.091  0.00  0.00     0.210 C 
ATOM     15  C   LIG d   1       2.946  74.049 118.091  0.00  0.00     0.109 C 
ATOM     16  O   LIG d   1       0.789  74.239 119.146  0.00  0.00    -0.276 OA
ATOM     17  H   LIG d   1       1.506  74.585 116.088  0.00  0.00     0.149 HD
ENDBRANCH   6  13
BRANCH   5  18
ATOM     18  N   LIG d   1      -1.356  72.554 117.191  0.00  0.00     0.381 N 
ATOM     19  H   LIG d   1      -2.151  71.970 117.024  0.00  0.00    -0.090 HD
ATOM     20  H   LIG d   1      -1.445  72.953 118.109  0.00  0.00    -0.090 HD
ATOM     21  H   LIG d   1      -0.521  72.014 117.134  0.00  0.00    -0.090 HD
ENDBRANCH   5  18
BRANCH   3  22
ATOM     22  C   LIG d   1      -3.980  75.290 114.264  0.00  0.00     0.382 C 
ATOM     23  O   LIG d   1      -4.388  76.422 113.907  0.00  0.00    -0.241 OA
ATOM     24  O   LIG d   1      -4.609  74.273 113.914  0.00  0.00    -0.241 OA
ENDBRANCH   3  22
TORSDOF 7
ENDMDL
MODEL 4
REMARK VINA RESULT:      -4.7      3.408      6.324
REMARK  7 active torsions:
REMARK  status: ('A' for Active; 'I' for Inactive)
REMARK    1  A    between atoms: C_2  and  C_3 
REMARK    2  A    between atoms: C_3  and  O_6 
REMARK    3  A    between atoms: C_3  and  C_4 
REMARK    4  A    between atoms: C_7  and  O_6 
REMARK    5  A    between atoms: C_9  and  C_10 
REMARK    6  A    between atoms: N_15  and  C_14 
REMARK    7  A    between atoms: N_20  and  C_19 
REMARK       I    between atoms: C_22  and  N_20 
ROOT
ATOM      1  C   LIG d   1      -5.705  76.705 117.492  0.00  0.00     0.161 C 
ATOM      2  C   LIG d   1      -6.875  77.453 117.273  0.00  0.00     0.016 C 
ATOM      3  C   LIG d   1      -7.063  78.765 117.764  0.00  0.00     0.038 C 
ATOM      4  C   LIG d   1      -6.028  79.480 118.384  0.00  0.00     0.028 C 
ATOM      5  C   LIG d   1      -5.001  78.586 119.071  0.00  0.00    -0.047 C 
ATOM      6  C   LIG d   1      -4.523  77.510 118.070  0.00  0.00     0.091 C 
ENDROOT
BRANCH   1   7
ATOM      7  O   LIG d   1      -5.313  76.044 116.273  0.00  0.00    -0.368 OA
BRANCH   7   8
ATOM      8  C   LIG d   1      -5.228  74.599 116.331  0.00  0.00     0.119 C 
BRANCH   8   9
ATOM      9  C   LIG d   1      -4.971  74.092 114.898  0.00  0.00     0.028 C 
ATOM     10  C   LIG d   1      -5.089  75.211 113.850  0.00  0.00     0.006 C 
ENDBRANCH   8   9
BRANCH   8  11
ATOM     11  C   LIG d   1      -6.565  73.978 116.747  0.00  0.00     0.028 C 
ATOM     12  C   LIG d   1      -6.589  72.450 116.583  0.00  0.00     0.006 C 
ENDBRANCH   8  11
ENDBRANCH   7   8
ENDBRANCH   1   7
BRANCH   6  13
ATOM     13  N   LIG d   1      -3.579  76.542 118.687  0.00  0.00    -0.311 N 
ATOM     14  C   LIG d   1      -2.380  76.261 118.178  0.00  0.00     0.210 C 
ATOM     15  C   LIG d   1      -1.574  75.219 118.960  0.00  0.00     0.109 C 
ATOM     16  O   LIG d   1      -1.895  76.800 117.173  0.00  0.00    -0.276 OA
ATOM     17  H   LIG d   1      -3.879  76.081 119.524  0.00  0.00     0.149 HD
ENDBRANCH   6  13
BRANCH   5  18
ATOM     18  N   LIG d   1      -3.909  79.452 119.555  0.00  0.00     0.381 N 
ATOM     19  H   LIG d   1      -4.273  80.351 119.802  0.00  0.00    -0.090 HD
ATOM     20  H   LIG d   1      -3.240  79.575 118.815  0.00  0.00    -0.090 HD
ATOM     21  H   LIG d   1      -3.468  79.036 120.345  0.00  0.00    -0.090 HD
ENDBRANCH   5  18
BRANCH   3  22
ATOM     22  C   LIG d   1      -8.312  79.360 117.673  0.00  0.00     0.382 C 
ATOM     23  O   LIG d   1      -9.339  78.714 117.991  0.00  0.00    -0.241 OA
ATOM     24  O   LIG d   1      -8.428  80.520 117.235  0.00  0.00    -0.241 OA
ENDBRANCH   3  22
TORSDOF 7
ENDMDL
MODEL 5
REMARK VINA RESULT:      -4.5      3.128      5.337
REMARK  7 active torsions:
REMARK  status: ('A' for Active; 'I' for Inactive)
REMARK    1  A    between atoms: C_2  and  C_3 
REMARK    2  A    between atoms: C_3  and  O_6 
REMARK    3  A    between atoms: C_3  and  C_4 
REMARK    4  A    between atoms: C_7  and  O_6 
REMARK    5  A    between atoms: C_9  and  C_10 
REMARK    6  A    between atoms: N_15  and  C_14 
REMARK    7  A    between atoms: N_20  and  C_19 
REMARK       I    between atoms: C_22  and  N_20 
ROOT
ATOM      1  C   LIG d   1      -2.255  76.851 116.382  0.00  0.00     0.161 C 
ATOM      2  C   LIG d   1      -3.234  76.040 115.786  0.00  0.00     0.016 C 
ATOM      3  C   LIG d   1      -3.623  76.157 114.432  0.00  0.00     0.038 C 
ATOM      4  C   LIG d   1      -2.946  76.998 113.536  0.00  0.00     0.028 C 
ATOM      5  C   LIG d   1      -2.289  78.198 114.211  0.00  0.00    -0.047 C 
ATOM      6  C   LIG d   1      -1.427  77.699 115.393  0.00  0.00     0.091 C 
ENDROOT
BRANCH   1   7
ATOM      7  O   LIG d   1      -1.385  76.045 117.201  0.00  0.00    -0.368 OA
BRANCH   7   8
ATOM      8  C   LIG d   1      -0.363  75.295 116.499  0.00  0.00     0.119 C 
BRANCH   8   9
ATOM      9  C   LIG d   1      -0.615  73.800 116.776  0.00  0.00     0.028 C 
ATOM     10  C   LIG d   1      -1.075  73.039 115.521  0.00  0.00     0.006 C 
ENDBRANCH   8   9
BRANCH   8  11
ATOM     11  C   LIG d   1       1.029  75.584 117.066  0.00  0.00     0.028 C 
ATOM     12  C   LIG d   1       1.559  74.447 117.955  0.00  0.00     0.006 C 
ENDBRANCH   8  11
ENDBRANCH   7   8
ENDBRANCH   1   7
BRANCH   6  13
ATOM     13  N   LIG d   1      -0.816  78.816 116.160  0.00  0.00    -0.311 N 
ATOM     14  C   LIG d   1       0.435  79.233 115.976  0.00  0.00     0.210 C 
ATOM     15  C   LIG d   1       0.873  80.385 116.886  0.00  0.00     0.109 C 
ATOM     16  O   LIG d   1       1.214  78.779 115.124  0.00  0.00    -0.276 OA
ATOM     17  H   LIG d   1      -1.388  79.261 116.851  0.00  0.00     0.149 HD
ENDBRANCH   6  13
BRANCH   5  18
ATOM     18  N   LIG d   1      -1.505  78.912 113.186  0.00  0.00     0.381 N 
ATOM     19  H   LIG d   1      -0.900  79.577 113.624  0.00  0.00    -0.090 HD
ATOM     20  H   LIG d   1      -2.136  79.410 112.582  0.00  0.00    -0.090 HD
ATOM     21  H   LIG d   1      -0.968  78.263 112.654  0.00  0.00    -0.090 HD
ENDBRANCH   5  18
BRANCH   3  22
ATOM     22  C   LIG d   1      -4.726  75.456 113.970  0.00  0.00     0.382 C 
ATOM     23  O   LIG d   1      -5.796  76.063 113.721  0.00  0.00    -0.241 OA
ATOM     24  O   LIG d   1      -4.679  74.218 113.842  0.00  0.00    -0.241 OA
ENDBRANCH   3  22
TORSDOF 7
ENDMDL
MODEL 6
REMARK VINA RESULT:      -4.4     11.752     14.328
REMARK  7 active torsions:
REMARK  status: ('A' for Active; 'I' for Inactive)
REMARK    1  A    between atoms: C_2  and  C_3 
REMARK    2  A    between atoms: C_3  and  O_6 
REMARK    3  A    between atoms: C_3  and  C_4 
REMARK    4  A    between atoms: C_7  and  O_6 
REMARK    5  A    between atoms: C_9  and  C_10 
REMARK    6  A    between atoms: N_15  and  C_14 
REMARK    7  A    between atoms: N_20  and  C_19 
REMARK       I    between atoms: C_22  and  N_20 
ROOT
ATOM      1  C   LIG d   1       0.926  87.188 116.238  0.00  0.00     0.161 C 
ATOM      2  C   LIG d   1      -0.393  87.062 116.707  0.00  0.00     0.016 C 
ATOM      3  C   LIG d   1      -1.068  88.082 117.415  0.00  0.00     0.038 C 
ATOM      4  C   LIG d   1      -0.518  89.364 117.572  0.00  0.00     0.028 C 
ATOM      5  C   LIG d   1       1.007  89.375 117.556  0.00  0.00    -0.047 C 
ATOM      6  C   LIG d   1       1.501  88.618 116.303  0.00  0.00     0.091 C 
ENDROOT
BRANCH   1   7
ATOM      7  O   LIG d   1       1.019  86.670 114.896  0.00  0.00    -0.368 OA
BRANCH   7   8
ATOM      8  C   LIG d   1       1.451  85.293 114.773  0.00  0.00     0.119 C 
BRANCH   8   9
ATOM      9  C   LIG d   1       2.907  85.308 114.269  0.00  0.00     0.028 C 
ATOM     10  C   LIG d   1       3.047  85.994 112.899  0.00  0.00     0.006 C 
ENDBRANCH   8   9
BRANCH   8  11
ATOM     11  C   LIG d   1       0.656  84.554 113.692  0.00  0.00     0.028 C 
ATOM     12  C   LIG d   1      -0.658  85.264 113.330  0.00  0.00     0.006 C 
ENDBRANCH   8  11
ENDBRANCH   7   8
ENDBRANCH   1   7
BRANCH   6  13
ATOM     13  N   LIG d   1       2.983  88.509 116.254  0.00  0.00    -0.311 N 
ATOM     14  C   LIG d   1       3.709  88.860 115.195  0.00  0.00     0.210 C 
ATOM     15  C   LIG d   1       5.219  88.649 115.347  0.00  0.00     0.109 C 
ATOM     16  O   LIG d   1       3.250  89.356 114.155  0.00  0.00    -0.276 OA
ATOM     17  H   LIG d   1       3.440  88.145 117.067  0.00  0.00     0.149 HD
ENDBRANCH   6  13
BRANCH   5  18
ATOM     18  N   LIG d   1       1.442  90.784 117.590  0.00  0.00     0.381 N 
ATOM     19  H   LIG d   1       1.144  91.210 118.445  0.00  0.00    -0.090 HD
ATOM     20  H   LIG d   1       1.013  91.275 116.826  0.00  0.00    -0.090 HD
ATOM     21  H   LIG d   1       2.434  90.836 117.513  0.00  0.00    -0.090 HD
ENDBRANCH   5  18
BRANCH   3  22
ATOM     22  C   LIG d   1      -2.291  87.813 118.010  0.00  0.00     0.382 C 
ATOM     23  O   LIG d   1      -2.351  87.043 118.999  0.00  0.00    -0.241 OA
ATOM     24  O   LIG d   1      -3.340  88.295 117.543  0.00  0.00    -0.241 OA
ENDBRANCH   3  22
TORSDOF 7
ENDMDL
MODEL 7
REMARK VINA RESULT:      -4.3     20.232     22.118
REMARK  7 active torsions:
REMARK  status: ('A' for Active; 'I' for Inactive)
REMARK    1  A    between atoms: C_2  and  C_3 
REMARK    2  A    between atoms: C_3  and  O_6 
REMARK    3  A    between atoms: C_3  and  C_4 
REMARK    4  A    between atoms: C_7  and  O_6 
REMARK    5  A    between atoms: C_9  and  C_10 
REMARK    6  A    between atoms: N_15  and  C_14 
REMARK    7  A    between atoms: N_20  and  C_19 
REMARK       I    between atoms: C_22  and  N_20 
ROOT
ATOM      1  C   LIG d   1     -22.860  83.127 115.691  0.00  0.00     0.161 C 
ATOM      2  C   LIG d   1     -22.369  84.416 115.423  0.00  0.00     0.016 C 
ATOM      3  C   LIG d   1     -22.852  85.228 114.371  0.00  0.00     0.038 C 
ATOM      4  C   LIG d   1     -23.970  84.864 113.606  0.00  0.00     0.028 C 
ATOM      5  C   LIG d   1     -24.175  83.356 113.513  0.00  0.00    -0.047 C 
ATOM      6  C   LIG d   1     -24.155  82.758 114.938  0.00  0.00     0.091 C 
ENDROOT
BRANCH   1   7
ATOM      7  O   LIG d   1     -23.042  82.959 117.111  0.00  0.00    -0.368 OA
BRANCH   7   8
ATOM      8  C   LIG d   1     -22.684  84.094 117.938  0.00  0.00     0.119 C 
BRANCH   8   9
ATOM      9  C   LIG d   1     -21.871  83.559 119.133  0.00  0.00     0.028 C 
ATOM     10  C   LIG d   1     -21.077  82.289 118.781  0.00  0.00     0.006 C 
ENDBRANCH   8   9
BRANCH   8  11
ATOM     11  C   LIG d   1     -23.924  84.750 118.552  0.00  0.00     0.028 C 
ATOM     12  C   LIG d   1     -24.125  86.200 118.084  0.00  0.00     0.006 C 
ENDBRANCH   8  11
ENDBRANCH   7   8
ENDBRANCH   1   7
BRANCH   6  13
ATOM     13  N   LIG d   1     -24.264  81.275 114.931  0.00  0.00    -0.311 N 
ATOM     14  C   LIG d   1     -25.421  80.625 115.045  0.00  0.00     0.210 C 
ATOM     15  C   LIG d   1     -25.308  79.098 115.035  0.00  0.00     0.109 C 
ATOM     16  O   LIG d   1     -26.533  81.169 115.120  0.00  0.00    -0.276 OA
ATOM     17  H   LIG d   1     -23.413  80.755 114.843  0.00  0.00     0.149 HD
ENDBRANCH   6  13
BRANCH   5  18
ATOM     18  N   LIG d   1     -25.448  83.122 112.805  0.00  0.00     0.381 N 
ATOM     19  H   LIG d   1     -26.213  83.415 113.380  0.00  0.00    -0.090 HD
ATOM     20  H   LIG d   1     -25.546  82.138 112.628  0.00  0.00    -0.090 HD
ATOM     21  H   LIG d   1     -25.458  83.625 111.945  0.00  0.00    -0.090 HD
ENDBRANCH   5  18
BRANCH   3  22
ATOM     22  C   LIG d   1     -22.189  86.403 114.051  0.00  0.00     0.382 C 
ATOM     23  O   LIG d   1     -21.235  86.382 113.236  0.00  0.00    -0.241 OA
ATOM     24  O   LIG d   1     -22.504  87.476 114.599  0.00  0.00    -0.241 OA
ENDBRANCH   3  22
TORSDOF 7
ENDMDL
MODEL 8
REMARK VINA RESULT:      -4.3      2.485      3.655
REMARK  7 active torsions:
REMARK  status: ('A' for Active; 'I' for Inactive)
REMARK    1  A    between atoms: C_2  and  C_3 
REMARK    2  A    between atoms: C_3  and  O_6 
REMARK    3  A    between atoms: C_3  and  C_4 
REMARK    4  A    between atoms: C_7  and  O_6 
REMARK    5  A    between atoms: C_9  and  C_10 
REMARK    6  A    between atoms: N_15  and  C_14 
REMARK    7  A    between atoms: N_20  and  C_19 
REMARK       I    between atoms: C_22  and  N_20 
ROOT
ATOM      1  C   LIG d   1      -2.891  75.685 118.067  0.00  0.00     0.161 C 
ATOM      2  C   LIG d   1      -1.956  74.764 117.566  0.00  0.00     0.016 C 
ATOM      3  C   LIG d   1      -2.102  74.104 116.324  0.00  0.00     0.038 C 
ATOM      4  C   LIG d   1      -3.127  74.435 115.425  0.00  0.00     0.028 C 
ATOM      5  C   LIG d   1      -4.373  74.991 116.105  0.00  0.00    -0.047 C 
ATOM      6  C   LIG d   1      -3.958  76.141 117.051  0.00  0.00     0.091 C 
ENDROOT
BRANCH   1   7
ATOM      7  O   LIG d   1      -2.206  76.825 118.621  0.00  0.00    -0.368 OA
BRANCH   7   8
ATOM      8  C   LIG d   1      -2.036  77.959 117.735  0.00  0.00     0.119 C 
BRANCH   8   9
ATOM      9  C   LIG d   1      -0.527  78.111 117.461  0.00  0.00     0.028 C 
ATOM     10  C   LIG d   1      -0.130  77.604 116.065  0.00  0.00     0.006 C 
ENDBRANCH   8   9
BRANCH   8  11
ATOM     11  C   LIG d   1      -2.459  79.265 118.413  0.00  0.00     0.028 C 
ATOM     12  C   LIG d   1      -1.320  80.294 118.488  0.00  0.00     0.006 C 
ENDBRANCH   8  11
ENDBRANCH   7   8
ENDBRANCH   1   7
BRANCH   6  13
ATOM     13  N   LIG d   1      -5.108  76.686 117.819  0.00  0.00    -0.311 N 
ATOM     14  C   LIG d   1      -5.796  77.762 117.444  0.00  0.00     0.210 C 
ATOM     15  C   LIG d   1      -6.931  78.167 118.390  0.00  0.00     0.109 C 
ATOM     16  O   LIG d   1      -5.596  78.402 116.400  0.00  0.00    -0.276 OA
ATOM     17  H   LIG d   1      -5.358  76.210 118.664  0.00  0.00     0.149 HD
ENDBRANCH   6  13
BRANCH   5  18
ATOM     18  N   LIG d   1      -5.305  75.422 115.045  0.00  0.00     0.381 N 
ATOM     19  H   LIG d   1      -6.198  75.629 115.443  0.00  0.00    -0.090 HD
ATOM     20  H   LIG d   1      -5.419  74.670 114.388  0.00  0.00    -0.090 HD
ATOM     21  H   LIG d   1      -4.945  76.227 114.581  0.00  0.00    -0.090 HD
ENDBRANCH   5  18
BRANCH   3  22
ATOM     22  C   LIG d   1      -1.240  73.071 115.989  0.00  0.00     0.382 C 
ATOM     23  O   LIG d   1      -0.948  72.864 114.787  0.00  0.00    -0.241 OA
ATOM     24  O   LIG d   1      -0.785  72.317 116.870  0.00  0.00    -0.241 OA
ENDBRANCH   3  22
TORSDOF 7
ENDMDL
MODEL 9
REMARK VINA RESULT:      -4.3      2.669      4.018
REMARK  7 active torsions:
REMARK  status: ('A' for Active; 'I' for Inactive)
REMARK    1  A    between atoms: C_2  and  C_3 
REMARK    2  A    between atoms: C_3  and  O_6 
REMARK    3  A    between atoms: C_3  and  C_4 
REMARK    4  A    between atoms: C_7  and  O_6 
REMARK    5  A    between atoms: C_9  and  C_10 
REMARK    6  A    between atoms: N_15  and  C_14 
REMARK    7  A    between atoms: N_20  and  C_19 
REMARK       I    between atoms: C_22  and  N_20 
ROOT
ATOM      1  C   LIG d   1      -1.350  75.640 116.787  0.00  0.00     0.161 C 
ATOM      2  C   LIG d   1      -0.011  75.736 117.202  0.00  0.00     0.016 C 
ATOM      3  C   LIG d   1       1.075  75.857 116.305  0.00  0.00     0.038 C 
ATOM      4  C   LIG d   1       0.882  76.043 114.928  0.00  0.00     0.028 C 
ATOM      5  C   LIG d   1      -0.424  75.447 114.413  0.00  0.00    -0.047 C 
ATOM      6  C   LIG d   1      -1.588  75.952 115.295  0.00  0.00     0.091 C 
ENDROOT
BRANCH   1   7
ATOM      7  O   LIG d   1      -2.179  76.479 117.614  0.00  0.00    -0.368 OA
BRANCH   7   8
ATOM      8  C   LIG d   1      -2.477  77.796 117.089  0.00  0.00     0.119 C 
BRANCH   8   9
ATOM      9  C   LIG d   1      -1.728  78.823 117.960  0.00  0.00     0.028 C 
ATOM     10  C   LIG d   1      -0.519  79.438 117.235  0.00  0.00     0.006 C 
ENDBRANCH   8   9
BRANCH   8  11
ATOM     11  C   LIG d   1      -3.962  78.137 117.247  0.00  0.00     0.028 C 
ATOM     12  C   LIG d   1      -4.820  76.910 117.596  0.00  0.00     0.006 C 
ENDBRANCH   8  11
ENDBRANCH   7   8
ENDBRANCH   1   7
BRANCH   6  13
ATOM     13  N   LIG d   1      -2.892  75.350 114.913  0.00  0.00    -0.311 N 
ATOM     14  C   LIG d   1      -3.769  75.949 114.109  0.00  0.00     0.210 C 
ATOM     15  C   LIG d   1      -5.060  75.163 113.859  0.00  0.00     0.109 C 
ATOM     16  O   LIG d   1      -3.586  77.043 113.554  0.00  0.00    -0.276 OA
ATOM     17  H   LIG d   1      -3.108  74.450 115.294  0.00  0.00     0.149 HD
ENDBRANCH   6  13
BRANCH   5  18
ATOM     18  N   LIG d   1      -0.562  75.832 112.996  0.00  0.00     0.381 N 
ATOM     19  H   LIG d   1      -0.375  75.043 112.411  0.00  0.00    -0.090 HD
ATOM     20  H   LIG d   1       0.111  76.547 112.787  0.00  0.00    -0.090 HD
ATOM     21  H   LIG d   1      -1.483  76.171 112.824  0.00  0.00    -0.090 HD
ENDBRANCH   5  18
BRANCH   3  22
ATOM     22  C   LIG d   1       2.374  75.753 116.779  0.00  0.00     0.382 C 
ATOM     23  O   LIG d   1       3.321  75.566 115.978  0.00  0.00    -0.241 OA
ATOM     24  O   LIG d   1       2.605  75.798 118.003  0.00  0.00    -0.241 OA
ENDBRANCH   3  22
TORSDOF 7
ENDMDL
