MODEL 1
REMARK VINA RESULT:      -5.3      0.000      0.000
REMARK  7 active torsions:
REMARK  status: ('A' for Active; 'I' for Inactive)
REMARK    1  A    between atoms: C_2  and  C_3 
REMARK    2  A    between atoms: C_3  and  O_6 
REMARK    3  A    between atoms: C_3  and  C_4 
REMARK    4  A    between atoms: C_7  and  O_6 
REMARK    5  A    between atoms: C_9  and  C_10 
REMARK    6  A    between atoms: N_15  and  C_14 
REMARK    7  A    between atoms: N_20  and  C_19 
REMARK       I    between atoms: C_22  and  N_20 
ROOT
ATOM      1  C   LIG d   1      -7.502  75.785 117.204  0.00  0.00     0.161 C 
ATOM      2  C   LIG d   1      -8.847  75.906 117.591  0.00  0.00     0.016 C 
ATOM      3  C   LIG d   1      -9.418  77.114 118.051  0.00  0.00     0.038 C 
ATOM      4  C   LIG d   1      -8.716  78.328 118.013  0.00  0.00     0.028 C 
ATOM      5  C   LIG d   1      -7.204  78.157 118.106  0.00  0.00    -0.047 C 
ATOM      6  C   LIG d   1      -6.750  77.123 117.050  0.00  0.00     0.091 C 
ENDROOT
BRANCH   1   7
ATOM      7  O   LIG d   1      -7.410  75.016 115.988  0.00  0.00    -0.368 OA
BRANCH   7   8
ATOM      8  C   LIG d   1      -6.612  73.809 116.056  0.00  0.00     0.119 C 
BRANCH   8   9
ATOM      9  C   LIG d   1      -5.496  73.932 115.000  0.00  0.00     0.028 C 
ATOM     10  C   LIG d   1      -5.767  75.058 113.988  0.00  0.00     0.006 C 
ENDBRANCH   8   9
BRANCH   8  11
ATOM     11  C   LIG d   1      -7.426  72.578 115.645  0.00  0.00     0.028 C 
ATOM     12  C   LIG d   1      -8.649  72.345 116.546  0.00  0.00     0.006 C 
ENDBRANCH   8  11
ENDBRANCH   7   8
ENDBRANCH   1   7
BRANCH   6  13
ATOM     13  N   LIG d   1      -5.294  76.833 117.130  0.00  0.00    -0.311 N 
ATOM     14  C   LIG d   1      -4.381  77.459 116.390  0.00  0.00     0.210 C 
ATOM     15  C   LIG d   1      -2.938  76.994 116.614  0.00  0.00     0.109 C 
ATOM     16  O   LIG d   1      -4.624  78.378 115.593  0.00  0.00    -0.276 OA
ATOM     17  H   LIG d   1      -5.005  76.123 117.774  0.00  0.00     0.149 HD
ENDBRANCH   6  13
BRANCH   5  18
ATOM     18  N   LIG d   1      -6.592  79.485 117.916  0.00  0.00     0.381 N 
ATOM     19  H   LIG d   1      -7.270  80.199 118.091  0.00  0.00    -0.090 HD
ATOM     20  H   LIG d   1      -6.286  79.568 116.962  0.00  0.00    -0.090 HD
ATOM     21  H   LIG d   1      -5.816  79.595 118.532  0.00  0.00    -0.090 HD
ENDBRANCH   5  18
BRANCH   3  22
ATOM     22  C   LIG d   1     -10.694  77.108 118.595  0.00  0.00     0.382 C 
ATOM     23  O   LIG d   1     -11.586  76.385 118.090  0.00  0.00    -0.241 OA
ATOM     24  O   LIG d   1     -10.975  77.850 119.555  0.00  0.00    -0.241 OA
ENDBRANCH   3  22
TORSDOF 7
ENDMDL
MODEL 2
REMARK VINA RESULT:      -5.2      2.217      4.282
REMARK  7 active torsions:
REMARK  status: ('A' for Active; 'I' for Inactive)
REMARK    1  A    between atoms: C_2  and  C_3 
REMARK    2  A    between atoms: C_3  and  O_6 
REMARK    3  A    between atoms: C_3  and  C_4 
REMARK    4  A    between atoms: C_7  and  O_6 
REMARK    5  A    between atoms: C_9  and  C_10 
REMARK    6  A    between atoms: N_15  and  C_14 
REMARK    7  A    between atoms: N_20  and  C_19 
REMARK       I    between atoms: C_22  and  N_20 
ROOT
ATOM      1  C   LIG d   1      -7.176  75.718 116.548  0.00  0.00     0.161 C 
ATOM      2  C   LIG d   1      -8.537  75.732 116.894  0.00  0.00     0.016 C 
ATOM      3  C   LIG d   1      -9.350  74.575 116.903  0.00  0.00     0.038 C 
ATOM      4  C   LIG d   1      -8.815  73.292 116.712  0.00  0.00     0.028 C 
ATOM      5  C   LIG d   1      -7.548  73.285 115.864  0.00  0.00    -0.047 C 
ATOM      6  C   LIG d   1      -6.549  74.312 116.444  0.00  0.00     0.091 C 
ENDROOT
BRANCH   1   7
ATOM      7  O   LIG d   1      -6.428  76.533 117.472  0.00  0.00    -0.368 OA
BRANCH   7   8
ATOM      8  C   LIG d   1      -5.978  77.816 116.971  0.00  0.00     0.119 C 
BRANCH   8   9
ATOM      9  C   LIG d   1      -4.437  77.810 117.004  0.00  0.00     0.028 C 
ATOM     10  C   LIG d   1      -3.821  78.011 115.609  0.00  0.00     0.006 C 
ENDBRANCH   8   9
BRANCH   8  11
ATOM     11  C   LIG d   1      -6.399  78.957 117.903  0.00  0.00     0.028 C 
ATOM     12  C   LIG d   1      -7.916  79.199 117.899  0.00  0.00     0.006 C 
ENDBRANCH   8  11
ENDBRANCH   7   8
ENDBRANCH   1   7
BRANCH   6  13
ATOM     13  N   LIG d   1      -5.316  74.429 115.624  0.00  0.00    -0.311 N 
ATOM     14  C   LIG d   1      -4.093  74.200 116.102  0.00  0.00     0.210 C 
ATOM     15  C   LIG d   1      -2.958  74.396 115.093  0.00  0.00     0.109 C 
ATOM     16  O   LIG d   1      -3.845  73.822 117.256  0.00  0.00    -0.276 OA
ATOM     17  H   LIG d   1      -5.428  74.701 114.667  0.00  0.00     0.149 HD
ENDBRANCH   6  13
BRANCH   5  18
ATOM     18  N   LIG d   1      -7.023  71.906 115.860  0.00  0.00     0.381 N 
ATOM     19  H   LIG d   1      -6.652  71.683 116.762  0.00  0.00    -0.090 HD
ATOM     20  H   LIG d   1      -6.277  71.844 115.189  0.00  0.00    -0.090 HD
ATOM     21  H   LIG d   1      -7.748  71.266 115.622  0.00  0.00    -0.090 HD
ENDBRANCH   5  18
BRANCH   3  22
ATOM     22  C   LIG d   1     -10.721  74.700 117.067  0.00  0.00     0.382 C 
ATOM     23  O   LIG d   1     -11.485  73.785 116.674  0.00  0.00    -0.241 OA
ATOM     24  O   LIG d   1     -11.207  75.734 117.562  0.00  0.00    -0.241 OA
ENDBRANCH   3  22
TORSDOF 7
ENDMDL
MODEL 3
REMARK VINA RESULT:      -5.2      2.433      4.454
REMARK  7 active torsions:
REMARK  status: ('A' for Active; 'I' for Inactive)
REMARK    1  A    between atoms: C_2  and  C_3 
REMARK    2  A    between atoms: C_3  and  O_6 
REMARK    3  A    between atoms: C_3  and  C_4 
REMARK    4  A    between atoms: C_7  and  O_6 
REMARK    5  A    between atoms: C_9  and  C_10 
REMARK    6  A    between atoms: N_15  and  C_14 
REMARK    7  A    between atoms: N_20  and  C_19 
REMARK       I    between atoms: C_22  and  N_20 
ROOT
ATOM      1  C   LIG d   1      -7.200  76.346 116.718  0.00  0.00     0.161 C 
ATOM      2  C   LIG d   1      -6.597  77.581 117.010  0.00  0.00     0.016 C 
ATOM      3  C   LIG d   1      -7.228  78.596 117.765  0.00  0.00     0.038 C 
ATOM      4  C   LIG d   1      -8.455  78.385 118.411  0.00  0.00     0.028 C 
ATOM      5  C   LIG d   1      -9.328  77.337 117.728  0.00  0.00    -0.047 C 
ATOM      6  C   LIG d   1      -8.493  76.055 117.508  0.00  0.00     0.091 C 
ENDROOT
BRANCH   1   7
ATOM      7  O   LIG d   1      -6.248  75.280 116.905  0.00  0.00    -0.368 OA
BRANCH   7   8
ATOM      8  C   LIG d   1      -5.294  75.082 115.833  0.00  0.00     0.119 C 
BRANCH   8   9
ATOM      9  C   LIG d   1      -5.981  74.219 114.757  0.00  0.00     0.028 C 
ATOM     10  C   LIG d   1      -6.574  72.922 115.334  0.00  0.00     0.006 C 
ENDBRANCH   8   9
BRANCH   8  11
ATOM     11  C   LIG d   1      -4.090  74.260 116.303  0.00  0.00     0.028 C 
ATOM     12  C   LIG d   1      -2.886  74.372 115.354  0.00  0.00     0.006 C 
ENDBRANCH   8  11
ENDBRANCH   7   8
ENDBRANCH   1   7
BRANCH   6  13
ATOM     13  N   LIG d   1      -9.246  75.008 116.769  0.00  0.00    -0.311 N 
ATOM     14  C   LIG d   1      -9.533  73.812 117.280  0.00  0.00     0.210 C 
ATOM     15  C   LIG d   1     -10.300  72.875 116.342  0.00  0.00     0.109 C 
ATOM     16  O   LIG d   1      -9.253  73.451 118.433  0.00  0.00    -0.276 OA
ATOM     17  H   LIG d   1      -9.539  75.229 115.837  0.00  0.00     0.149 HD
ENDBRANCH   6  13
BRANCH   5  18
ATOM     18  N   LIG d   1     -10.511  77.118 118.580  0.00  0.00     0.381 N 
ATOM     19  H   LIG d   1     -10.223  76.960 119.525  0.00  0.00    -0.090 HD
ATOM     20  H   LIG d   1     -10.997  76.300 118.258  0.00  0.00    -0.090 HD
ATOM     21  H   LIG d   1     -11.114  77.910 118.537  0.00  0.00    -0.090 HD
ENDBRANCH   5  18
BRANCH   3  22
ATOM     22  C   LIG d   1      -6.649  79.853 117.846  0.00  0.00     0.382 C 
ATOM     23  O   LIG d   1      -6.912  80.721 116.979  0.00  0.00    -0.241 OA
ATOM     24  O   LIG d   1      -5.832  80.115 118.748  0.00  0.00    -0.241 OA
ENDBRANCH   3  22
TORSDOF 7
ENDMDL
MODEL 4
REMARK VINA RESULT:      -5.2      2.353      4.490
REMARK  7 active torsions:
REMARK  status: ('A' for Active; 'I' for Inactive)
REMARK    1  A    between atoms: C_2  and  C_3 
REMARK    2  A    between atoms: C_3  and  O_6 
REMARK    3  A    between atoms: C_3  and  C_4 
REMARK    4  A    between atoms: C_7  and  O_6 
REMARK    5  A    between atoms: C_9  and  C_10 
REMARK    6  A    between atoms: N_15  and  C_14 
REMARK    7  A    between atoms: N_20  and  C_19 
REMARK       I    between atoms: C_22  and  N_20 
ROOT
ATOM      1  C   LIG d   1      -6.704  75.504 116.927  0.00  0.00     0.161 C 
ATOM      2  C   LIG d   1      -8.076  75.580 117.220  0.00  0.00     0.016 C 
ATOM      3  C   LIG d   1      -8.985  74.527 116.970  0.00  0.00     0.038 C 
ATOM      4  C   LIG d   1      -8.555  73.261 116.546  0.00  0.00     0.028 C 
ATOM      5  C   LIG d   1      -7.249  73.298 115.759  0.00  0.00    -0.047 C 
ATOM      6  C   LIG d   1      -6.198  74.091 116.568  0.00  0.00     0.091 C 
ENDROOT
BRANCH   1   7
ATOM      7  O   LIG d   1      -5.940  76.047 118.022  0.00  0.00    -0.368 OA
BRANCH   7   8
ATOM      8  C   LIG d   1      -5.234  77.284 117.755  0.00  0.00     0.119 C 
BRANCH   8   9
ATOM      9  C   LIG d   1      -5.945  78.401 118.542  0.00  0.00     0.028 C 
ATOM     10  C   LIG d   1      -6.964  79.169 117.682  0.00  0.00     0.006 C 
ENDBRANCH   8   9
BRANCH   8  11
ATOM     11  C   LIG d   1      -5.353  77.686 116.282  0.00  0.00     0.028 C 
ATOM     12  C   LIG d   1      -3.987  77.835 115.593  0.00  0.00     0.006 C 
ENDBRANCH   8  11
ENDBRANCH   7   8
ENDBRANCH   1   7
BRANCH   6  13
ATOM     13  N   LIG d   1      -4.916  74.247 115.832  0.00  0.00    -0.311 N 
ATOM     14  C   LIG d   1      -3.725  73.998 116.374  0.00  0.00     0.210 C 
ATOM     15  C   LIG d   1      -2.529  74.242 115.448  0.00  0.00     0.109 C 
ATOM     16  O   LIG d   1      -3.547  73.567 117.523  0.00  0.00    -0.276 OA
ATOM     17  H   LIG d   1      -4.969  74.563 114.883  0.00  0.00     0.149 HD
ENDBRANCH   6  13
BRANCH   5  18
ATOM     18  N   LIG d   1      -6.846  71.903 115.499  0.00  0.00     0.381 N 
ATOM     19  H   LIG d   1      -6.327  71.853 114.645  0.00  0.00    -0.090 HD
ATOM     20  H   LIG d   1      -7.672  71.339 115.400  0.00  0.00    -0.090 HD
ATOM     21  H   LIG d   1      -6.291  71.562 116.253  0.00  0.00    -0.090 HD
ENDBRANCH   5  18
BRANCH   3  22
ATOM     22  C   LIG d   1     -10.347  74.748 117.105  0.00  0.00     0.382 C 
ATOM     23  O   LIG d   1     -10.760  75.780 117.687  0.00  0.00    -0.241 OA
ATOM     24  O   LIG d   1     -11.168  73.907 116.693  0.00  0.00    -0.241 OA
ENDBRANCH   3  22
TORSDOF 7
ENDMDL
MODEL 5
REMARK VINA RESULT:      -5.1      2.046      4.612
REMARK  7 active torsions:
REMARK  status: ('A' for Active; 'I' for Inactive)
REMARK    1  A    between atoms: C_2  and  C_3 
REMARK    2  A    between atoms: C_3  and  O_6 
REMARK    3  A    between atoms: C_3  and  C_4 
REMARK    4  A    between atoms: C_7  and  O_6 
REMARK    5  A    between atoms: C_9  and  C_10 
REMARK    6  A    between atoms: N_15  and  C_14 
REMARK    7  A    between atoms: N_20  and  C_19 
REMARK       I    between atoms: C_22  and  N_20 
ROOT
ATOM      1  C   LIG d   1      -8.122  76.214 116.931  0.00  0.00     0.161 C 
ATOM      2  C   LIG d   1      -9.235  75.363 117.021  0.00  0.00     0.016 C 
ATOM      3  C   LIG d   1      -9.172  73.971 116.780  0.00  0.00     0.038 C 
ATOM      4  C   LIG d   1      -7.953  73.308 116.578  0.00  0.00     0.028 C 
ATOM      5  C   LIG d   1      -6.871  74.200 115.979  0.00  0.00    -0.047 C 
ATOM      6  C   LIG d   1      -6.763  75.492 116.820  0.00  0.00     0.091 C 
ENDROOT
BRANCH   1   7
ATOM      7  O   LIG d   1      -8.114  77.129 118.045  0.00  0.00    -0.368 OA
BRANCH   7   8
ATOM      8  C   LIG d   1      -9.205  78.081 118.095  0.00  0.00     0.119 C 
BRANCH   8   9
ATOM      9  C   LIG d   1      -8.598  79.489 117.936  0.00  0.00     0.028 C 
ATOM     10  C   LIG d   1      -9.670  80.592 117.921  0.00  0.00     0.006 C 
ENDBRANCH   8   9
BRANCH   8  11
ATOM     11  C   LIG d   1      -9.880  78.083 119.470  0.00  0.00     0.028 C 
ATOM     12  C   LIG d   1     -11.193  77.284 119.490  0.00  0.00     0.006 C 
ENDBRANCH   8  11
ENDBRANCH   7   8
ENDBRANCH   1   7
BRANCH   6  13
ATOM     13  N   LIG d   1      -5.785  76.458 116.254  0.00  0.00    -0.311 N 
ATOM     14  C   LIG d   1      -4.513  76.525 116.641  0.00  0.00     0.210 C 
ATOM     15  C   LIG d   1      -3.681  77.606 115.943  0.00  0.00     0.109 C 
ATOM     16  O   LIG d   1      -3.986  75.772 117.473  0.00  0.00    -0.276 OA
ATOM     17  H   LIG d   1      -6.120  77.086 115.550  0.00  0.00     0.149 HD
ENDBRANCH   6  13
BRANCH   5  18
ATOM     18  N   LIG d   1      -5.617  73.423 115.950  0.00  0.00     0.381 N 
ATOM     19  H   LIG d   1      -5.579  72.813 116.742  0.00  0.00    -0.090 HD
ATOM     20  H   LIG d   1      -4.840  74.057 116.003  0.00  0.00    -0.090 HD
ATOM     21  H   LIG d   1      -5.565  72.891 115.109  0.00  0.00    -0.090 HD
ENDBRANCH   5  18
BRANCH   3  22
ATOM     22  C   LIG d   1     -10.344  73.234 116.700  0.00  0.00     0.382 C 
ATOM     23  O   LIG d   1     -10.293  71.995 116.507  0.00  0.00    -0.241 OA
ATOM     24  O   LIG d   1     -11.452  73.798 116.774  0.00  0.00    -0.241 OA
ENDBRANCH   3  22
TORSDOF 7
ENDMDL
MODEL 6
REMARK VINA RESULT:      -5.1      2.112      3.258
REMARK  7 active torsions:
REMARK  status: ('A' for Active; 'I' for Inactive)
REMARK    1  A    between atoms: C_2  and  C_3 
REMARK    2  A    between atoms: C_3  and  O_6 
REMARK    3  A    between atoms: C_3  and  C_4 
REMARK    4  A    between atoms: C_7  and  O_6 
REMARK    5  A    between atoms: C_9  and  C_10 
REMARK    6  A    between atoms: N_15  and  C_14 
REMARK    7  A    between atoms: N_20  and  C_19 
REMARK       I    between atoms: C_22  and  N_20 
ROOT
ATOM      1  C   LIG d   1      -7.028  75.606 117.283  0.00  0.00     0.161 C 
ATOM      2  C   LIG d   1      -7.900  74.572 116.904  0.00  0.00     0.016 C 
ATOM      3  C   LIG d   1      -9.309  74.688 116.943  0.00  0.00     0.038 C 
ATOM      4  C   LIG d   1      -9.945  75.907 117.223  0.00  0.00     0.028 C 
ATOM      5  C   LIG d   1      -9.113  76.837 118.101  0.00  0.00    -0.047 C 
ATOM      6  C   LIG d   1      -7.702  76.979 117.485  0.00  0.00     0.091 C 
ENDROOT
BRANCH   1   7
ATOM      7  O   LIG d   1      -5.952  75.712 116.330  0.00  0.00    -0.368 OA
BRANCH   7   8
ATOM      8  C   LIG d   1      -5.325  74.466 115.937  0.00  0.00     0.119 C 
BRANCH   8   9
ATOM      9  C   LIG d   1      -3.827  74.573 116.282  0.00  0.00     0.028 C 
ATOM     10  C   LIG d   1      -3.423  73.640 117.436  0.00  0.00     0.006 C 
ENDBRANCH   8   9
BRANCH   8  11
ATOM     11  C   LIG d   1      -5.377  74.271 114.418  0.00  0.00     0.028 C 
ATOM     12  C   LIG d   1      -5.931  75.499 113.679  0.00  0.00     0.006 C 
ENDBRANCH   8  11
ENDBRANCH   7   8
ENDBRANCH   1   7
BRANCH   6  13
ATOM     13  N   LIG d   1      -6.797  77.805 118.326  0.00  0.00    -0.311 N 
ATOM     14  C   LIG d   1      -6.608  79.110 118.137  0.00  0.00     0.210 C 
ATOM     15  C   LIG d   1      -5.618  79.767 119.104  0.00  0.00     0.109 C 
ATOM     16  O   LIG d   1      -7.191  79.792 117.280  0.00  0.00    -0.276 OA
ATOM     17  H   LIG d   1      -6.308  77.338 119.064  0.00  0.00     0.149 HD
ENDBRANCH   6  13
BRANCH   5  18
ATOM     18  N   LIG d   1      -9.834  78.120 118.199  0.00  0.00     0.381 N 
ATOM     19  H   LIG d   1      -9.201  78.877 118.032  0.00  0.00    -0.090 HD
ATOM     20  H   LIG d   1     -10.202  78.215 119.129  0.00  0.00    -0.090 HD
ATOM     21  H   LIG d   1     -10.576  78.146 117.535  0.00  0.00    -0.090 HD
ENDBRANCH   5  18
BRANCH   3  22
ATOM     22  C   LIG d   1     -10.097  73.566 116.740  0.00  0.00     0.382 C 
ATOM     23  O   LIG d   1      -9.567  72.481 116.400  0.00  0.00    -0.241 OA
ATOM     24  O   LIG d   1     -11.336  73.636 116.848  0.00  0.00    -0.241 OA
ENDBRANCH   3  22
TORSDOF 7
ENDMDL
MODEL 7
REMARK VINA RESULT:      -4.9      2.241      4.165
REMARK  7 active torsions:
REMARK  status: ('A' for Active; 'I' for Inactive)
REMARK    1  A    between atoms: C_2  and  C_3 
REMARK    2  A    between atoms: C_3  and  O_6 
REMARK    3  A    between atoms: C_3  and  C_4 
REMARK    4  A    between atoms: C_7  and  O_6 
REMARK    5  A    between atoms: C_9  and  C_10 
REMARK    6  A    between atoms: N_15  and  C_14 
REMARK    7  A    between atoms: N_20  and  C_19 
REMARK       I    between atoms: C_22  and  N_20 
ROOT
ATOM      1  C   LIG d   1      -6.470  75.158 116.697  0.00  0.00     0.161 C 
ATOM      2  C   LIG d   1      -7.014  73.939 116.260  0.00  0.00     0.016 C 
ATOM      3  C   LIG d   1      -8.365  73.573 116.462  0.00  0.00     0.038 C 
ATOM      4  C   LIG d   1      -9.307  74.472 116.984  0.00  0.00     0.028 C 
ATOM      5  C   LIG d   1      -8.694  75.527 117.900  0.00  0.00    -0.047 C 
ATOM      6  C   LIG d   1      -7.508  76.198 117.169  0.00  0.00     0.091 C 
ENDROOT
BRANCH   1   7
ATOM      7  O   LIG d   1      -5.635  75.719 115.664  0.00  0.00    -0.368 OA
BRANCH   7   8
ATOM      8  C   LIG d   1      -4.233  75.878 115.994  0.00  0.00     0.119 C 
BRANCH   8   9
ATOM      9  C   LIG d   1      -3.705  77.086 115.197  0.00  0.00     0.028 C 
ATOM     10  C   LIG d   1      -4.055  78.427 115.864  0.00  0.00     0.006 C 
ENDBRANCH   8   9
BRANCH   8  11
ATOM     11  C   LIG d   1      -3.408  74.681 115.511  0.00  0.00     0.028 C 
ATOM     12  C   LIG d   1      -2.939  73.777 116.662  0.00  0.00     0.006 C 
ENDBRANCH   8  11
ENDBRANCH   7   8
ENDBRANCH   1   7
BRANCH   6  13
ATOM     13  N   LIG d   1      -6.800  77.184 118.026  0.00  0.00    -0.311 N 
ATOM     14  C   LIG d   1      -7.101  78.481 118.054  0.00  0.00     0.210 C 
ATOM     15  C   LIG d   1      -6.234  79.326 118.992  0.00  0.00     0.109 C 
ATOM     16  O   LIG d   1      -8.026  79.006 117.416  0.00  0.00    -0.276 OA
ATOM     17  H   LIG d   1      -6.056  76.838 118.600  0.00  0.00     0.149 HD
ENDBRANCH   6  13
BRANCH   5  18
ATOM     18  N   LIG d   1      -9.762  76.477 118.262  0.00  0.00     0.381 N 
ATOM     19  H   LIG d   1      -9.972  77.065 117.480  0.00  0.00    -0.090 HD
ATOM     20  H   LIG d   1      -9.439  77.058 119.016  0.00  0.00    -0.090 HD
ATOM     21  H   LIG d   1     -10.580  75.981 118.542  0.00  0.00    -0.090 HD
ENDBRANCH   5  18
BRANCH   3  22
ATOM     22  C   LIG d   1      -8.777  72.280 116.176  0.00  0.00     0.382 C 
ATOM     23  O   LIG d   1      -7.949  71.438 115.751  0.00  0.00    -0.241 OA
ATOM     24  O   LIG d   1      -9.974  71.957 116.296  0.00  0.00    -0.241 OA
ENDBRANCH   3  22
TORSDOF 7
ENDMDL
MODEL 8
REMARK VINA RESULT:      -4.6      2.027      4.404
REMARK  7 active torsions:
REMARK  status: ('A' for Active; 'I' for Inactive)
REMARK    1  A    between atoms: C_2  and  C_3 
REMARK    2  A    between atoms: C_3  and  O_6 
REMARK    3  A    between atoms: C_3  and  C_4 
REMARK    4  A    between atoms: C_7  and  O_6 
REMARK    5  A    between atoms: C_9  and  C_10 
REMARK    6  A    between atoms: N_15  and  C_14 
REMARK    7  A    between atoms: N_20  and  C_19 
REMARK       I    between atoms: C_22  and  N_20 
ROOT
ATOM      1  C   LIG d   1      -7.037  76.152 117.336  0.00  0.00     0.161 C 
ATOM      2  C   LIG d   1      -8.421  75.994 117.519  0.00  0.00     0.016 C 
ATOM      3  C   LIG d   1      -9.134  74.845 117.107  0.00  0.00     0.038 C 
ATOM      4  C   LIG d   1      -8.482  73.704 116.616  0.00  0.00     0.028 C 
ATOM      5  C   LIG d   1      -7.147  74.011 115.946  0.00  0.00    -0.047 C 
ATOM      6  C   LIG d   1      -6.292  74.873 116.903  0.00  0.00     0.091 C 
ENDROOT
BRANCH   1   7
ATOM      7  O   LIG d   1      -6.445  76.697 118.531  0.00  0.00    -0.368 OA
BRANCH   7   8
ATOM      8  C   LIG d   1      -6.087  78.100 118.483  0.00  0.00     0.119 C 
BRANCH   8   9
ATOM      9  C   LIG d   1      -7.195  78.886 119.211  0.00  0.00     0.028 C 
ATOM     10  C   LIG d   1      -8.115  79.642 118.237  0.00  0.00     0.006 C 
ENDBRANCH   8   9
BRANCH   8  11
ATOM     11  C   LIG d   1      -6.093  78.628 117.046  0.00  0.00     0.028 C 
ATOM     12  C   LIG d   1      -4.754  79.262 116.638  0.00  0.00     0.006 C 
ENDBRANCH   8  11
ENDBRANCH   7   8
ENDBRANCH   1   7
BRANCH   6  13
ATOM     13  N   LIG d   1      -5.002  75.288 116.292  0.00  0.00    -0.311 N 
ATOM     14  C   LIG d   1      -4.914  75.904 115.114  0.00  0.00     0.210 C 
ATOM     15  C   LIG d   1      -3.488  76.227 114.659  0.00  0.00     0.109 C 
ATOM     16  O   LIG d   1      -5.883  76.243 114.419  0.00  0.00    -0.276 OA
ATOM     17  H   LIG d   1      -4.167  75.080 116.803  0.00  0.00     0.149 HD
ENDBRANCH   6  13
BRANCH   5  18
ATOM     18  N   LIG d   1      -6.513  72.723 115.605  0.00  0.00     0.381 N 
ATOM     19  H   LIG d   1      -6.853  72.006 116.215  0.00  0.00    -0.090 HD
ATOM     20  H   LIG d   1      -5.521  72.805 115.737  0.00  0.00    -0.090 HD
ATOM     21  H   LIG d   1      -6.712  72.485 114.658  0.00  0.00    -0.090 HD
ENDBRANCH   5  18
BRANCH   3  22
ATOM     22  C   LIG d   1     -10.520  74.845 117.147  0.00  0.00     0.382 C 
ATOM     23  O   LIG d   1     -11.132  75.802 117.682  0.00  0.00    -0.241 OA
ATOM     24  O   LIG d   1     -11.166  73.880 116.696  0.00  0.00    -0.241 OA
ENDBRANCH   3  22
TORSDOF 7
ENDMDL
MODEL 9
REMARK VINA RESULT:      -4.5      2.059      3.828
REMARK  7 active torsions:
REMARK  status: ('A' for Active; 'I' for Inactive)
REMARK    1  A    between atoms: C_2  and  C_3 
REMARK    2  A    between atoms: C_3  and  O_6 
REMARK    3  A    between atoms: C_3  and  C_4 
REMARK    4  A    between atoms: C_7  and  O_6 
REMARK    5  A    between atoms: C_9  and  C_10 
REMARK    6  A    between atoms: N_15  and  C_14 
REMARK    7  A    between atoms: N_20  and  C_19 
REMARK       I    between atoms: C_22  and  N_20 
ROOT
ATOM      1  C   LIG d   1      -6.725  76.523 116.728  0.00  0.00     0.161 C 
ATOM      2  C   LIG d   1      -7.354  75.288 116.498  0.00  0.00     0.016 C 
ATOM      3  C   LIG d   1      -8.657  74.982 116.955  0.00  0.00     0.038 C 
ATOM      4  C   LIG d   1      -9.483  75.950 117.545  0.00  0.00     0.028 C 
ATOM      5  C   LIG d   1      -8.708  77.059 118.248  0.00  0.00    -0.047 C 
ATOM      6  C   LIG d   1      -7.652  77.630 117.273  0.00  0.00     0.091 C 
ENDROOT
BRANCH   1   7
ATOM      7  O   LIG d   1      -6.069  76.968 115.524  0.00  0.00    -0.368 OA
BRANCH   7   8
ATOM      8  C   LIG d   1      -4.632  76.787 115.478  0.00  0.00     0.119 C 
BRANCH   8   9
ATOM      9  C   LIG d   1      -4.358  75.441 114.779  0.00  0.00     0.028 C 
ATOM     10  C   LIG d   1      -3.138  74.712 115.366  0.00  0.00     0.006 C 
ENDBRANCH   8   9
BRANCH   8  11
ATOM     11  C   LIG d   1      -4.043  76.640 116.884  0.00  0.00     0.028 C 
ATOM     12  C   LIG d   1      -3.262  77.885 117.335  0.00  0.00     0.006 C 
ENDBRANCH   8  11
ENDBRANCH   7   8
ENDBRANCH   1   7
BRANCH   6  13
ATOM     13  N   LIG d   1      -6.794  78.663 117.909  0.00  0.00    -0.311 N 
ATOM     14  C   LIG d   1      -7.024  79.971 117.808  0.00  0.00     0.210 C 
ATOM     15  C   LIG d   1      -6.005  80.864 118.522  0.00  0.00     0.109 C 
ATOM     16  O   LIG d   1      -7.994  80.475 117.221  0.00  0.00    -0.276 OA
ATOM     17  H   LIG d   1      -6.002  78.341 118.430  0.00  0.00     0.149 HD
ENDBRANCH   6  13
BRANCH   5  18
ATOM     18  N   LIG d   1      -9.685  78.069 118.698  0.00  0.00     0.381 N 
ATOM     19  H   LIG d   1     -10.608  77.786 118.438  0.00  0.00    -0.090 HD
ATOM     20  H   LIG d   1      -9.482  78.942 118.244  0.00  0.00    -0.090 HD
ATOM     21  H   LIG d   1      -9.630  78.180 119.687  0.00  0.00    -0.090 HD
ENDBRANCH   5  18
BRANCH   3  22
ATOM     22  C   LIG d   1      -9.131  73.682 116.857  0.00  0.00     0.382 C 
ATOM     23  O   LIG d   1      -8.394  72.779 116.394  0.00  0.00    -0.241 OA
ATOM     24  O   LIG d   1     -10.302  73.411 117.186  0.00  0.00    -0.241 OA
ENDBRANCH   3  22
TORSDOF 7
ENDMDL
