MODEL 1
REMARK VINA RESULT:      -6.3      0.000      0.000
REMARK  7 active torsions:
REMARK  status: ('A' for Active; 'I' for Inactive)
REMARK    1  A    between atoms: C_2  and  C_3 
REMARK    2  A    between atoms: C_3  and  O_6 
REMARK    3  A    between atoms: C_3  and  C_4 
REMARK    4  A    between atoms: C_7  and  O_6 
REMARK    5  A    between atoms: C_9  and  C_10 
REMARK    6  A    between atoms: N_15  and  C_14 
REMARK    7  A    between atoms: N_20  and  C_19 
REMARK       I    between atoms: C_22  and  N_20 
ROOT
ATOM      1  C   LIG d   1      -7.592  76.789 117.607  0.00  0.00     0.161 C 
ATOM      2  C   LIG d   1      -8.839  77.297 118.005  0.00  0.00     0.016 C 
ATOM      3  C   LIG d   1      -9.058  78.654 118.335  0.00  0.00     0.038 C 
ATOM      4  C   LIG d   1      -8.070  79.632 118.141  0.00  0.00     0.028 C 
ATOM      5  C   LIG d   1      -6.650  79.083 118.222  0.00  0.00    -0.047 C 
ATOM      6  C   LIG d   1      -6.530  77.861 117.283  0.00  0.00     0.091 C 
ENDROOT
BRANCH   1   7
ATOM      7  O   LIG d   1      -7.762  75.898 116.487  0.00  0.00    -0.368 OA
BRANCH   7   8
ATOM      8  C   LIG d   1      -7.867  74.488 116.804  0.00  0.00     0.119 C 
BRANCH   8   9
ATOM      9  C   LIG d   1      -6.998  73.719 115.790  0.00  0.00     0.028 C 
ATOM     10  C   LIG d   1      -6.121  74.654 114.941  0.00  0.00     0.006 C 
ENDBRANCH   8   9
BRANCH   8  11
ATOM     11  C   LIG d   1      -9.294  73.974 116.588  0.00  0.00     0.028 C 
ATOM     12  C   LIG d   1      -9.384  72.439 116.613  0.00  0.00     0.006 C 
ENDBRANCH   8  11
ENDBRANCH   7   8
ENDBRANCH   1   7
BRANCH   6  13
ATOM     13  N   LIG d   1      -5.196  77.212 117.365  0.00  0.00    -0.311 N 
ATOM     14  C   LIG d   1      -4.157  77.574 116.615  0.00  0.00     0.210 C 
ATOM     15  C   LIG d   1      -2.879  76.761 116.844  0.00  0.00     0.109 C 
ATOM     16  O   LIG d   1      -4.163  78.513 115.804  0.00  0.00    -0.276 OA
ATOM     17  H   LIG d   1      -5.093  76.461 118.020  0.00  0.00     0.149 HD
ENDBRANCH   6  13
BRANCH   5  18
ATOM     18  N   LIG d   1      -5.728  80.178 117.866  0.00  0.00     0.381 N 
ATOM     19  H   LIG d   1      -6.225  80.892 117.371  0.00  0.00    -0.090 HD
ATOM     20  H   LIG d   1      -5.011  79.816 117.262  0.00  0.00    -0.090 HD
ATOM     21  H   LIG d   1      -5.317  80.560 118.690  0.00  0.00    -0.090 HD
ENDBRANCH   5  18
BRANCH   3  22
ATOM     22  C   LIG d   1     -10.263  79.039 118.902  0.00  0.00     0.382 C 
ATOM     23  O   LIG d   1     -11.174  78.193 119.072  0.00  0.00    -0.241 OA
ATOM     24  O   LIG d   1     -10.468  80.230 119.204  0.00  0.00    -0.241 OA
ENDBRANCH   3  22
TORSDOF 7
ENDMDL
MODEL 2
REMARK VINA RESULT:      -5.7      2.085      4.658
REMARK  7 active torsions:
REMARK  status: ('A' for Active; 'I' for Inactive)
REMARK    1  A    between atoms: C_2  and  C_3 
REMARK    2  A    between atoms: C_3  and  O_6 
REMARK    3  A    between atoms: C_3  and  C_4 
REMARK    4  A    between atoms: C_7  and  O_6 
REMARK    5  A    between atoms: C_9  and  C_10 
REMARK    6  A    between atoms: N_15  and  C_14 
REMARK    7  A    between atoms: N_20  and  C_19 
REMARK       I    between atoms: C_22  and  N_20 
ROOT
ATOM      1  C   LIG d   1      -7.171  77.063 116.865  0.00  0.00     0.161 C 
ATOM      2  C   LIG d   1      -6.541  76.386 115.807  0.00  0.00     0.016 C 
ATOM      3  C   LIG d   1      -5.149  76.439 115.570  0.00  0.00     0.038 C 
ATOM      4  C   LIG d   1      -4.266  77.054 116.470  0.00  0.00     0.028 C 
ATOM      5  C   LIG d   1      -4.909  78.176 117.278  0.00  0.00    -0.047 C 
ATOM      6  C   LIG d   1      -6.211  77.648 117.922  0.00  0.00     0.091 C 
ENDROOT
BRANCH   1   7
ATOM      7  O   LIG d   1      -8.139  76.197 117.492  0.00  0.00    -0.368 OA
BRANCH   7   8
ATOM      8  C   LIG d   1      -8.853  75.296 116.610  0.00  0.00     0.119 C 
BRANCH   8   9
ATOM      9  C   LIG d   1     -10.327  75.280 117.060  0.00  0.00     0.028 C 
ATOM     10  C   LIG d   1     -10.627  76.349 118.124  0.00  0.00     0.006 C 
ENDBRANCH   8   9
BRANCH   8  11
ATOM     11  C   LIG d   1      -8.364  73.854 116.772  0.00  0.00     0.028 C 
ATOM     12  C   LIG d   1      -9.497  72.823 116.651  0.00  0.00     0.006 C 
ENDBRANCH   8  11
ENDBRANCH   7   8
ENDBRANCH   1   7
BRANCH   6  13
ATOM     13  N   LIG d   1      -6.947  78.706 118.661  0.00  0.00    -0.311 N 
ATOM     14  C   LIG d   1      -6.977  79.982 118.280  0.00  0.00     0.210 C 
ATOM     15  C   LIG d   1      -7.778  80.912 119.196  0.00  0.00     0.109 C 
ATOM     16  O   LIG d   1      -6.442  80.425 117.253  0.00  0.00    -0.276 OA
ATOM     17  H   LIG d   1      -7.435  78.428 119.490  0.00  0.00     0.149 HD
ENDBRANCH   6  13
BRANCH   5  18
ATOM     18  N   LIG d   1      -3.918  78.635 118.270  0.00  0.00     0.381 N 
ATOM     19  H   LIG d   1      -3.851  79.633 118.245  0.00  0.00    -0.090 HD
ATOM     20  H   LIG d   1      -3.020  78.253 118.033  0.00  0.00    -0.090 HD
ATOM     21  H   LIG d   1      -4.185  78.335 119.182  0.00  0.00    -0.090 HD
ENDBRANCH   5  18
BRANCH   3  22
ATOM     22  C   LIG d   1      -4.630  75.905 114.400  0.00  0.00     0.382 C 
ATOM     23  O   LIG d   1      -4.722  74.674 114.177  0.00  0.00    -0.241 OA
ATOM     24  O   LIG d   1      -4.033  76.633 113.584  0.00  0.00    -0.241 OA
ENDBRANCH   3  22
TORSDOF 7
ENDMDL
MODEL 3
REMARK VINA RESULT:      -5.4      1.400      2.211
REMARK  7 active torsions:
REMARK  status: ('A' for Active; 'I' for Inactive)
REMARK    1  A    between atoms: C_2  and  C_3 
REMARK    2  A    between atoms: C_3  and  O_6 
REMARK    3  A    between atoms: C_3  and  C_4 
REMARK    4  A    between atoms: C_7  and  O_6 
REMARK    5  A    between atoms: C_9  and  C_10 
REMARK    6  A    between atoms: N_15  and  C_14 
REMARK    7  A    between atoms: N_20  and  C_19 
REMARK       I    between atoms: C_22  and  N_20 
ROOT
ATOM      1  C   LIG d   1      -6.840  76.950 117.770  0.00  0.00     0.161 C 
ATOM      2  C   LIG d   1      -8.213  76.660 117.835  0.00  0.00     0.016 C 
ATOM      3  C   LIG d   1      -9.198  77.626 118.144  0.00  0.00     0.038 C 
ATOM      4  C   LIG d   1      -8.888  78.989 118.263  0.00  0.00     0.028 C 
ATOM      5  C   LIG d   1      -7.452  79.248 118.704  0.00  0.00    -0.047 C 
ATOM      6  C   LIG d   1      -6.494  78.453 117.787  0.00  0.00     0.091 C 
ENDROOT
BRANCH   1   7
ATOM      7  O   LIG d   1      -6.261  76.315 116.613  0.00  0.00    -0.368 OA
BRANCH   7   8
ATOM      8  C   LIG d   1      -7.181  75.604 115.749  0.00  0.00     0.119 C 
BRANCH   8   9
ATOM      9  C   LIG d   1      -6.865  74.101 115.874  0.00  0.00     0.028 C 
ATOM     10  C   LIG d   1      -8.110  73.266 116.219  0.00  0.00     0.006 C 
ENDBRANCH   8   9
BRANCH   8  11
ATOM     11  C   LIG d   1      -6.941  75.948 114.276  0.00  0.00     0.028 C 
ATOM     12  C   LIG d   1      -5.463  75.829 113.870  0.00  0.00     0.006 C 
ENDBRANCH   8  11
ENDBRANCH   7   8
ENDBRANCH   1   7
BRANCH   6  13
ATOM     13  N   LIG d   1      -5.073  78.584 118.202  0.00  0.00    -0.311 N 
ATOM     14  C   LIG d   1      -4.098  78.949 117.372  0.00  0.00     0.210 C 
ATOM     15  C   LIG d   1      -2.701  79.002 118.000  0.00  0.00     0.109 C 
ATOM     16  O   LIG d   1      -4.261  79.266 116.184  0.00  0.00    -0.276 OA
ATOM     17  H   LIG d   1      -4.856  78.376 119.157  0.00  0.00     0.149 HD
ENDBRANCH   6  13
BRANCH   5  18
ATOM     18  N   LIG d   1      -7.225  80.705 118.652  0.00  0.00     0.381 N 
ATOM     19  H   LIG d   1      -7.027  80.984 117.712  0.00  0.00    -0.090 HD
ATOM     20  H   LIG d   1      -6.430  80.931 119.223  0.00  0.00    -0.090 HD
ATOM     21  H   LIG d   1      -8.031  81.187 118.987  0.00  0.00    -0.090 HD
ENDBRANCH   5  18
BRANCH   3  22
ATOM     22  C   LIG d   1     -10.504  77.225 118.378  0.00  0.00     0.382 C 
ATOM     23  O   LIG d   1     -10.923  76.143 117.901  0.00  0.00    -0.241 OA
ATOM     24  O   LIG d   1     -11.283  77.952 119.024  0.00  0.00    -0.241 OA
ENDBRANCH   3  22
TORSDOF 7
ENDMDL
MODEL 4
REMARK VINA RESULT:      -5.4      2.476      5.897
REMARK  7 active torsions:
REMARK  status: ('A' for Active; 'I' for Inactive)
REMARK    1  A    between atoms: C_2  and  C_3 
REMARK    2  A    between atoms: C_3  and  O_6 
REMARK    3  A    between atoms: C_3  and  C_4 
REMARK    4  A    between atoms: C_7  and  O_6 
REMARK    5  A    between atoms: C_9  and  C_10 
REMARK    6  A    between atoms: N_15  and  C_14 
REMARK    7  A    between atoms: N_20  and  C_19 
REMARK       I    between atoms: C_22  and  N_20 
ROOT
ATOM      1  C   LIG d   1      -4.205  76.912 115.463  0.00  0.00     0.161 C 
ATOM      2  C   LIG d   1      -3.282  75.899 115.156  0.00  0.00     0.016 C 
ATOM      3  C   LIG d   1      -2.244  75.501 116.030  0.00  0.00     0.038 C 
ATOM      4  C   LIG d   1      -2.151  75.991 117.341  0.00  0.00     0.028 C 
ATOM      5  C   LIG d   1      -2.755  77.380 117.514  0.00  0.00    -0.047 C 
ATOM      6  C   LIG d   1      -4.187  77.380 116.933  0.00  0.00     0.091 C 
ENDROOT
BRANCH   1   7
ATOM      7  O   LIG d   1      -5.532  76.495 115.086  0.00  0.00    -0.368 OA
BRANCH   7   8
ATOM      8  C   LIG d   1      -6.193  75.576 115.991  0.00  0.00     0.119 C 
BRANCH   8   9
ATOM      9  C   LIG d   1      -6.116  74.172 115.362  0.00  0.00     0.028 C 
ATOM     10  C   LIG d   1      -6.968  73.141 116.121  0.00  0.00     0.006 C 
ENDBRANCH   8   9
BRANCH   8  11
ATOM     11  C   LIG d   1      -7.688  75.887 116.107  0.00  0.00     0.028 C 
ATOM     12  C   LIG d   1      -8.075  76.444 117.487  0.00  0.00     0.006 C 
ENDBRANCH   8  11
ENDBRANCH   7   8
ENDBRANCH   1   7
BRANCH   6  13
ATOM     13  N   LIG d   1      -4.820  78.724 116.985  0.00  0.00    -0.311 N 
ATOM     14  C   LIG d   1      -5.562  79.146 118.007  0.00  0.00     0.210 C 
ATOM     15  C   LIG d   1      -6.137  80.557 117.850  0.00  0.00     0.109 C 
ATOM     16  O   LIG d   1      -5.773  78.498 119.043  0.00  0.00    -0.276 OA
ATOM     17  H   LIG d   1      -4.675  79.327 116.199  0.00  0.00     0.149 HD
ENDBRANCH   6  13
BRANCH   5  18
ATOM     18  N   LIG d   1      -2.714  77.709 118.951  0.00  0.00     0.381 N 
ATOM     19  H   LIG d   1      -1.782  77.597 119.297  0.00  0.00    -0.090 HD
ATOM     20  H   LIG d   1      -3.313  77.073 119.447  0.00  0.00    -0.090 HD
ATOM     21  H   LIG d   1      -3.019  78.646 119.095  0.00  0.00    -0.090 HD
ENDBRANCH   5  18
BRANCH   3  22
ATOM     22  C   LIG d   1      -1.261  74.633 115.579  0.00  0.00     0.382 C 
ATOM     23  O   LIG d   1      -0.671  74.862 114.496  0.00  0.00    -0.241 OA
ATOM     24  O   LIG d   1      -0.988  73.601 116.220  0.00  0.00    -0.241 OA
ENDBRANCH   3  22
TORSDOF 7
ENDMDL
MODEL 5
REMARK VINA RESULT:      -5.3      1.876      4.819
REMARK  7 active torsions:
REMARK  status: ('A' for Active; 'I' for Inactive)
REMARK    1  A    between atoms: C_2  and  C_3 
REMARK    2  A    between atoms: C_3  and  O_6 
REMARK    3  A    between atoms: C_3  and  C_4 
REMARK    4  A    between atoms: C_7  and  O_6 
REMARK    5  A    between atoms: C_9  and  C_10 
REMARK    6  A    between atoms: N_15  and  C_14 
REMARK    7  A    between atoms: N_20  and  C_19 
REMARK       I    between atoms: C_22  and  N_20 
ROOT
ATOM      1  C   LIG d   1      -6.998  76.466 115.736  0.00  0.00     0.161 C 
ATOM      2  C   LIG d   1      -5.897  76.291 114.882  0.00  0.00     0.016 C 
ATOM      3  C   LIG d   1      -4.569  76.608 115.251  0.00  0.00     0.038 C 
ATOM      4  C   LIG d   1      -4.232  76.981 116.561  0.00  0.00     0.028 C 
ATOM      5  C   LIG d   1      -5.375  77.654 117.312  0.00  0.00    -0.047 C 
ATOM      6  C   LIG d   1      -6.637  76.766 117.206  0.00  0.00     0.091 C 
ENDROOT
BRANCH   1   7
ATOM      7  O   LIG d   1      -7.863  75.315 115.659  0.00  0.00    -0.368 OA
BRANCH   7   8
ATOM      8  C   LIG d   1      -7.591  74.249 116.601  0.00  0.00     0.119 C 
BRANCH   8   9
ATOM      9  C   LIG d   1      -6.716  73.205 115.879  0.00  0.00     0.028 C 
ATOM     10  C   LIG d   1      -7.255  71.774 116.041  0.00  0.00     0.006 C 
ENDBRANCH   8   9
BRANCH   8  11
ATOM     11  C   LIG d   1      -8.874  73.505 116.986  0.00  0.00     0.028 C 
ATOM     12  C   LIG d   1     -10.128  74.387 116.883  0.00  0.00     0.006 C 
ENDBRANCH   8  11
ENDBRANCH   7   8
ENDBRANCH   1   7
BRANCH   6  13
ATOM     13  N   LIG d   1      -7.825  77.391 117.843  0.00  0.00    -0.311 N 
ATOM     14  C   LIG d   1      -7.984  78.708 117.965  0.00  0.00     0.210 C 
ATOM     15  C   LIG d   1      -9.272  79.141 118.671  0.00  0.00     0.109 C 
ATOM     16  O   LIG d   1      -7.196  79.559 117.526  0.00  0.00    -0.276 OA
ATOM     17  H   LIG d   1      -8.529  76.775 118.199  0.00  0.00     0.149 HD
ENDBRANCH   6  13
BRANCH   5  18
ATOM     18  N   LIG d   1      -4.932  77.864 118.703  0.00  0.00     0.381 N 
ATOM     19  H   LIG d   1      -5.257  77.114 119.279  0.00  0.00    -0.090 HD
ATOM     20  H   LIG d   1      -5.331  78.720 119.046  0.00  0.00    -0.090 HD
ATOM     21  H   LIG d   1      -3.938  77.915 118.740  0.00  0.00    -0.090 HD
ENDBRANCH   5  18
BRANCH   3  22
ATOM     22  C   LIG d   1      -3.567  76.591 114.292  0.00  0.00     0.382 C 
ATOM     23  O   LIG d   1      -2.386  76.329 114.625  0.00  0.00    -0.241 OA
ATOM     24  O   LIG d   1      -3.822  76.878 113.107  0.00  0.00    -0.241 OA
ENDBRANCH   3  22
TORSDOF 7
ENDMDL
MODEL 6
REMARK VINA RESULT:      -5.2      2.458      4.896
REMARK  7 active torsions:
REMARK  status: ('A' for Active; 'I' for Inactive)
REMARK    1  A    between atoms: C_2  and  C_3 
REMARK    2  A    between atoms: C_3  and  O_6 
REMARK    3  A    between atoms: C_3  and  C_4 
REMARK    4  A    between atoms: C_7  and  O_6 
REMARK    5  A    between atoms: C_9  and  C_10 
REMARK    6  A    between atoms: N_15  and  C_14 
REMARK    7  A    between atoms: N_20  and  C_19 
REMARK       I    between atoms: C_22  and  N_20 
ROOT
ATOM      1  C   LIG d   1      -6.583  77.068 116.595  0.00  0.00     0.161 C 
ATOM      2  C   LIG d   1      -7.848  76.589 116.973  0.00  0.00     0.016 C 
ATOM      3  C   LIG d   1      -8.314  75.291 116.659  0.00  0.00     0.038 C 
ATOM      4  C   LIG d   1      -7.482  74.326 116.072  0.00  0.00     0.028 C 
ATOM      5  C   LIG d   1      -6.367  74.925 115.220  0.00  0.00    -0.047 C 
ATOM      6  C   LIG d   1      -5.619  75.993 116.051  0.00  0.00     0.091 C 
ENDROOT
BRANCH   1   7
ATOM      7  O   LIG d   1      -5.978  77.772 117.697  0.00  0.00    -0.368 OA
BRANCH   7   8
ATOM      8  C   LIG d   1      -5.719  79.182 117.489  0.00  0.00     0.119 C 
BRANCH   8   9
ATOM      9  C   LIG d   1      -4.205  79.406 117.665  0.00  0.00     0.028 C 
ATOM     10  C   LIG d   1      -3.527  78.260 118.434  0.00  0.00     0.006 C 
ENDBRANCH   8   9
BRANCH   8  11
ATOM     11  C   LIG d   1      -6.384  80.037 118.572  0.00  0.00     0.028 C 
ATOM     12  C   LIG d   1      -7.011  81.324 118.014  0.00  0.00     0.006 C 
ENDBRANCH   8  11
ENDBRANCH   7   8
ENDBRANCH   1   7
BRANCH   6  13
ATOM     13  N   LIG d   1      -4.567  76.688 115.265  0.00  0.00    -0.311 N 
ATOM     14  C   LIG d   1      -3.294  76.297 115.238  0.00  0.00     0.210 C 
ATOM     15  C   LIG d   1      -2.369  77.165 114.379  0.00  0.00     0.109 C 
ATOM     16  O   LIG d   1      -2.849  75.294 115.817  0.00  0.00    -0.276 OA
ATOM     17  H   LIG d   1      -4.847  77.493 114.740  0.00  0.00     0.149 HD
ENDBRANCH   6  13
BRANCH   5  18
ATOM     18  N   LIG d   1      -5.496  73.818 114.783  0.00  0.00     0.381 N 
ATOM     19  H   LIG d   1      -4.867  74.141 114.076  0.00  0.00    -0.090 HD
ATOM     20  H   LIG d   1      -6.068  73.091 114.389  0.00  0.00    -0.090 HD
ATOM     21  H   LIG d   1      -4.982  73.462 115.559  0.00  0.00    -0.090 HD
ENDBRANCH   5  18
BRANCH   3  22
ATOM     22  C   LIG d   1      -9.640  74.961 116.896  0.00  0.00     0.382 C 
ATOM     23  O   LIG d   1     -10.102  73.876 116.468  0.00  0.00    -0.241 OA
ATOM     24  O   LIG d   1     -10.390  75.754 117.496  0.00  0.00    -0.241 OA
ENDBRANCH   3  22
TORSDOF 7
ENDMDL
MODEL 7
REMARK VINA RESULT:      -5.2      2.114      4.638
REMARK  7 active torsions:
REMARK  status: ('A' for Active; 'I' for Inactive)
REMARK    1  A    between atoms: C_2  and  C_3 
REMARK    2  A    between atoms: C_3  and  O_6 
REMARK    3  A    between atoms: C_3  and  C_4 
REMARK    4  A    between atoms: C_7  and  O_6 
REMARK    5  A    between atoms: C_9  and  C_10 
REMARK    6  A    between atoms: N_15  and  C_14 
REMARK    7  A    between atoms: N_20  and  C_19 
REMARK       I    between atoms: C_22  and  N_20 
ROOT
ATOM      1  C   LIG d   1      -6.043  76.719 116.834  0.00  0.00     0.161 C 
ATOM      2  C   LIG d   1      -6.800  75.600 116.448  0.00  0.00     0.016 C 
ATOM      3  C   LIG d   1      -8.192  75.488 116.668  0.00  0.00     0.038 C 
ATOM      4  C   LIG d   1      -8.954  76.561 117.156  0.00  0.00     0.028 C 
ATOM      5  C   LIG d   1      -8.155  77.525 118.026  0.00  0.00    -0.047 C 
ATOM      6  C   LIG d   1      -6.876  77.944 117.266  0.00  0.00     0.091 C 
ENDROOT
BRANCH   1   7
ATOM      7  O   LIG d   1      -5.132  77.080 115.777  0.00  0.00    -0.368 OA
BRANCH   7   8
ATOM      8  C   LIG d   1      -3.732  76.794 116.018  0.00  0.00     0.119 C 
BRANCH   8   9
ATOM      9  C   LIG d   1      -2.908  77.875 115.291  0.00  0.00     0.028 C 
ATOM     10  C   LIG d   1      -2.892  79.212 116.052  0.00  0.00     0.006 C 
ENDBRANCH   8   9
BRANCH   8  11
ATOM     11  C   LIG d   1      -3.316  75.467 115.376  0.00  0.00     0.028 C 
ATOM     12  C   LIG d   1      -1.913  75.012 115.806  0.00  0.00     0.006 C 
ENDBRANCH   8  11
ENDBRANCH   7   8
ENDBRANCH   1   7
BRANCH   6  13
ATOM     13  N   LIG d   1      -5.995  78.822 118.081  0.00  0.00    -0.311 N 
ATOM     14  C   LIG d   1      -6.027  80.152 118.020  0.00  0.00     0.210 C 
ATOM     15  C   LIG d   1      -5.021  80.865 118.929  0.00  0.00     0.109 C 
ATOM     16  O   LIG d   1      -6.816  80.809 117.325  0.00  0.00    -0.276 OA
ATOM     17  H   LIG d   1      -5.346  78.372 118.696  0.00  0.00     0.149 HD
ENDBRANCH   6  13
BRANCH   5  18
ATOM     18  N   LIG d   1      -9.034  78.664 118.352  0.00  0.00     0.381 N 
ATOM     19  H   LIG d   1      -9.555  78.932 117.541  0.00  0.00    -0.090 HD
ATOM     20  H   LIG d   1      -8.465  79.443 118.633  0.00  0.00    -0.090 HD
ATOM     21  H   LIG d   1      -9.656  78.415 119.088  0.00  0.00    -0.090 HD
ENDBRANCH   5  18
BRANCH   3  22
ATOM     22  C   LIG d   1      -8.830  74.279 116.436  0.00  0.00     0.382 C 
ATOM     23  O   LIG d   1     -10.074  74.190 116.572  0.00  0.00    -0.241 OA
ATOM     24  O   LIG d   1      -8.172  73.266 116.135  0.00  0.00    -0.241 OA
ENDBRANCH   3  22
TORSDOF 7
ENDMDL
MODEL 8
REMARK VINA RESULT:      -5.1      1.843      4.767
REMARK  7 active torsions:
REMARK  status: ('A' for Active; 'I' for Inactive)
REMARK    1  A    between atoms: C_2  and  C_3 
REMARK    2  A    between atoms: C_3  and  O_6 
REMARK    3  A    between atoms: C_3  and  C_4 
REMARK    4  A    between atoms: C_7  and  O_6 
REMARK    5  A    between atoms: C_9  and  C_10 
REMARK    6  A    between atoms: N_15  and  C_14 
REMARK    7  A    between atoms: N_20  and  C_19 
REMARK       I    between atoms: C_22  and  N_20 
ROOT
ATOM      1  C   LIG d   1      -7.289  77.540 117.362  0.00  0.00     0.161 C 
ATOM      2  C   LIG d   1      -6.079  77.205 116.732  0.00  0.00     0.016 C 
ATOM      3  C   LIG d   1      -4.856  77.863 116.997  0.00  0.00     0.038 C 
ATOM      4  C   LIG d   1      -4.729  78.807 118.028  0.00  0.00     0.028 C 
ATOM      5  C   LIG d   1      -6.031  79.535 118.345  0.00  0.00    -0.047 C 
ATOM      6  C   LIG d   1      -7.149  78.491 118.569  0.00  0.00     0.091 C 
ENDROOT
BRANCH   1   7
ATOM      7  O   LIG d   1      -7.988  76.340 117.749  0.00  0.00    -0.368 OA
BRANCH   7   8
ATOM      8  C   LIG d   1      -8.438  75.488 116.667  0.00  0.00     0.119 C 
BRANCH   8   9
ATOM      9  C   LIG d   1      -9.956  75.288 116.837  0.00  0.00     0.028 C 
ATOM     10  C   LIG d   1     -10.542  76.163 117.958  0.00  0.00     0.006 C 
ENDBRANCH   8   9
BRANCH   8  11
ATOM     11  C   LIG d   1      -7.830  74.087 116.771  0.00  0.00     0.028 C 
ATOM     12  C   LIG d   1      -6.746  73.827 115.712  0.00  0.00     0.006 C 
ENDBRANCH   8  11
ENDBRANCH   7   8
ENDBRANCH   1   7
BRANCH   6  13
ATOM     13  N   LIG d   1      -8.474  79.122 118.802  0.00  0.00    -0.311 N 
ATOM     14  C   LIG d   1      -8.841  80.281 118.258  0.00  0.00     0.210 C 
ATOM     15  C   LIG d   1     -10.243  80.762 118.645  0.00  0.00     0.109 C 
ATOM     16  O   LIG d   1      -8.150  80.940 117.467  0.00  0.00    -0.276 OA
ATOM     17  H   LIG d   1      -9.109  78.639 119.408  0.00  0.00     0.149 HD
ENDBRANCH   6  13
BRANCH   5  18
ATOM     18  N   LIG d   1      -5.789  80.386 119.526  0.00  0.00     0.381 N 
ATOM     19  H   LIG d   1      -5.537  79.816 120.308  0.00  0.00    -0.090 HD
ATOM     20  H   LIG d   1      -6.636  80.876 119.752  0.00  0.00    -0.090 HD
ATOM     21  H   LIG d   1      -5.061  81.038 119.332  0.00  0.00    -0.090 HD
ENDBRANCH   5  18
BRANCH   3  22
ATOM     22  C   LIG d   1      -3.751  77.607 116.199  0.00  0.00     0.382 C 
ATOM     23  O   LIG d   1      -3.453  78.395 115.269  0.00  0.00    -0.241 OA
ATOM     24  O   LIG d   1      -3.075  76.575 116.369  0.00  0.00    -0.241 OA
ENDBRANCH   3  22
TORSDOF 7
ENDMDL
MODEL 9
REMARK VINA RESULT:      -5.0      2.542      5.885
REMARK  7 active torsions:
REMARK  status: ('A' for Active; 'I' for Inactive)
REMARK    1  A    between atoms: C_2  and  C_3 
REMARK    2  A    between atoms: C_3  and  O_6 
REMARK    3  A    between atoms: C_3  and  C_4 
REMARK    4  A    between atoms: C_7  and  O_6 
REMARK    5  A    between atoms: C_9  and  C_10 
REMARK    6  A    between atoms: N_15  and  C_14 
REMARK    7  A    between atoms: N_20  and  C_19 
REMARK       I    between atoms: C_22  and  N_20 
ROOT
ATOM      1  C   LIG d   1      -4.912  77.762 116.706  0.00  0.00     0.161 C 
ATOM      2  C   LIG d   1      -4.890  76.583 115.942  0.00  0.00     0.016 C 
ATOM      3  C   LIG d   1      -6.008  75.731 115.794  0.00  0.00     0.038 C 
ATOM      4  C   LIG d   1      -7.276  76.081 116.281  0.00  0.00     0.028 C 
ATOM      5  C   LIG d   1      -7.227  77.014 117.486  0.00  0.00    -0.047 C 
ATOM      6  C   LIG d   1      -6.317  78.218 117.152  0.00  0.00     0.091 C 
ENDROOT
BRANCH   1   7
ATOM      7  O   LIG d   1      -4.246  78.821 115.990  0.00  0.00    -0.368 OA
BRANCH   7   8
ATOM      8  C   LIG d   1      -2.963  79.239 116.518  0.00  0.00     0.119 C 
BRANCH   8   9
ATOM      9  C   LIG d   1      -1.879  78.767 115.529  0.00  0.00     0.028 C 
ATOM     10  C   LIG d   1      -1.057  77.589 116.078  0.00  0.00     0.006 C 
ENDBRANCH   8   9
BRANCH   8  11
ATOM     11  C   LIG d   1      -2.645  78.529 117.837  0.00  0.00     0.028 C 
ATOM     12  C   LIG d   1      -2.652  79.482 119.043  0.00  0.00     0.006 C 
ENDBRANCH   8  11
ENDBRANCH   7   8
ENDBRANCH   1   7
BRANCH   6  13
ATOM     13  N   LIG d   1      -6.146  79.137 118.308  0.00  0.00    -0.311 N 
ATOM     14  C   LIG d   1      -6.426  80.438 118.257  0.00  0.00     0.210 C 
ATOM     15  C   LIG d   1      -6.159  81.208 119.554  0.00  0.00     0.109 C 
ATOM     16  O   LIG d   1      -6.900  81.021 117.271  0.00  0.00    -0.276 OA
ATOM     17  H   LIG d   1      -5.795  78.741 119.158  0.00  0.00     0.149 HD
ENDBRANCH   6  13
BRANCH   5  18
ATOM     18  N   LIG d   1      -8.613  77.407 117.803  0.00  0.00     0.381 N 
ATOM     19  H   LIG d   1      -9.054  76.688 118.342  0.00  0.00    -0.090 HD
ATOM     20  H   LIG d   1      -9.124  77.516 116.945  0.00  0.00    -0.090 HD
ATOM     21  H   LIG d   1      -8.617  78.263 118.312  0.00  0.00    -0.090 HD
ENDBRANCH   5  18
BRANCH   3  22
ATOM     22  C   LIG d   1      -5.854  74.494 115.188  0.00  0.00     0.382 C 
ATOM     23  O   LIG d   1      -5.072  74.366 114.214  0.00  0.00    -0.241 OA
ATOM     24  O   LIG d   1      -6.519  73.514 115.573  0.00  0.00    -0.241 OA
ENDBRANCH   3  22
TORSDOF 7
ENDMDL
