MODEL 1
REMARK VINA RESULT:      -5.5      0.000      0.000
REMARK  7 active torsions:
REMARK  status: ('A' for Active; 'I' for Inactive)
REMARK    1  A    between atoms: C_2  and  C_3 
REMARK    2  A    between atoms: C_3  and  O_6 
REMARK    3  A    between atoms: C_3  and  C_4 
REMARK    4  A    between atoms: C_7  and  O_6 
REMARK    5  A    between atoms: C_9  and  C_10 
REMARK    6  A    between atoms: N_15  and  C_14 
REMARK    7  A    between atoms: N_20  and  C_19 
REMARK       I    between atoms: C_22  and  N_20 
ROOT
ATOM      1  C   LIG d   1      -6.601  74.876 118.273  0.00  0.00     0.161 C 
ATOM      2  C   LIG d   1      -7.905  75.308 117.980  0.00  0.00     0.016 C 
ATOM      3  C   LIG d   1      -8.260  76.668 117.834  0.00  0.00     0.038 C 
ATOM      4  C   LIG d   1      -7.298  77.689 117.821  0.00  0.00     0.028 C 
ATOM      5  C   LIG d   1      -6.041  77.346 118.615  0.00  0.00    -0.047 C 
ATOM      6  C   LIG d   1      -5.516  75.967 118.153  0.00  0.00     0.091 C 
ENDROOT
BRANCH   1   7
ATOM      7  O   LIG d   1      -6.264  73.743 117.449  0.00  0.00    -0.368 OA
BRANCH   7   8
ATOM      8  C   LIG d   1      -6.925  73.672 116.162  0.00  0.00     0.119 C 
BRANCH   8   9
ATOM      9  C   LIG d   1      -7.387  72.216 115.959  0.00  0.00     0.028 C 
ATOM     10  C   LIG d   1      -8.882  72.026 116.268  0.00  0.00     0.006 C 
ENDBRANCH   8   9
BRANCH   8  11
ATOM     11  C   LIG d   1      -5.947  73.950 115.017  0.00  0.00     0.028 C 
ATOM     12  C   LIG d   1      -5.944  75.424 114.582  0.00  0.00     0.006 C 
ENDBRANCH   8  11
ENDBRANCH   7   8
ENDBRANCH   1   7
BRANCH   6  13
ATOM     13  N   LIG d   1      -4.337  75.518 118.938  0.00  0.00    -0.311 N 
ATOM     14  C   LIG d   1      -3.152  75.250 118.393  0.00  0.00     0.210 C 
ATOM     15  C   LIG d   1      -2.077  74.782 119.379  0.00  0.00     0.109 C 
ATOM     16  O   LIG d   1      -2.880  75.386 117.190  0.00  0.00    -0.276 OA
ATOM     17  H   LIG d   1      -4.461  75.411 119.926  0.00  0.00     0.149 HD
ENDBRANCH   6  13
BRANCH   5  18
ATOM     18  N   LIG d   1      -5.070  78.435 118.404  0.00  0.00     0.381 N 
ATOM     19  H   LIG d   1      -4.748  78.778 119.287  0.00  0.00    -0.090 HD
ATOM     20  H   LIG d   1      -5.526  79.189 117.920  0.00  0.00    -0.090 HD
ATOM     21  H   LIG d   1      -4.299  78.105 117.866  0.00  0.00    -0.090 HD
ENDBRANCH   5  18
BRANCH   3  22
ATOM     22  C   LIG d   1      -9.597  77.023 117.737  0.00  0.00     0.382 C 
ATOM     23  O   LIG d   1      -9.968  78.171 118.081  0.00  0.00    -0.241 OA
ATOM     24  O   LIG d   1     -10.444  76.195 117.352  0.00  0.00    -0.241 OA
ENDBRANCH   3  22
TORSDOF 7
ENDMDL
MODEL 2
REMARK VINA RESULT:      -5.4      1.762      2.501
REMARK  7 active torsions:
REMARK  status: ('A' for Active; 'I' for Inactive)
REMARK    1  A    between atoms: C_2  and  C_3 
REMARK    2  A    between atoms: C_3  and  O_6 
REMARK    3  A    between atoms: C_3  and  C_4 
REMARK    4  A    between atoms: C_7  and  O_6 
REMARK    5  A    between atoms: C_9  and  C_10 
REMARK    6  A    between atoms: N_15  and  C_14 
REMARK    7  A    between atoms: N_20  and  C_19 
REMARK       I    between atoms: C_22  and  N_20 
ROOT
ATOM      1  C   LIG d   1      -6.585  76.192 118.533  0.00  0.00     0.161 C 
ATOM      2  C   LIG d   1      -7.473  77.281 118.555  0.00  0.00     0.016 C 
ATOM      3  C   LIG d   1      -7.244  78.487 117.854  0.00  0.00     0.038 C 
ATOM      4  C   LIG d   1      -6.176  78.630 116.956  0.00  0.00     0.028 C 
ATOM      5  C   LIG d   1      -4.981  77.744 117.288  0.00  0.00    -0.047 C 
ATOM      6  C   LIG d   1      -5.471  76.289 117.470  0.00  0.00     0.091 C 
ENDROOT
BRANCH   1   7
ATOM      7  O   LIG d   1      -7.322  74.964 118.376  0.00  0.00    -0.368 OA
BRANCH   7   8
ATOM      8  C   LIG d   1      -7.832  74.691 117.048  0.00  0.00     0.119 C 
BRANCH   8   9
ATOM      9  C   LIG d   1      -9.340  74.406 117.180  0.00  0.00     0.028 C 
ATOM     10  C   LIG d   1     -10.186  75.690 117.142  0.00  0.00     0.006 C 
ENDBRANCH   8   9
BRANCH   8  11
ATOM     11  C   LIG d   1      -7.226  73.408 116.471  0.00  0.00     0.028 C 
ATOM     12  C   LIG d   1      -8.251  72.271 116.342  0.00  0.00     0.006 C 
ENDBRANCH   8  11
ENDBRANCH   7   8
ENDBRANCH   1   7
BRANCH   6  13
ATOM     13  N   LIG d   1      -4.377  75.370 117.881  0.00  0.00    -0.311 N 
ATOM     14  C   LIG d   1      -3.644  74.670 117.016  0.00  0.00     0.210 C 
ATOM     15  C   LIG d   1      -2.582  73.768 117.651  0.00  0.00     0.109 C 
ATOM     16  O   LIG d   1      -3.752  74.736 115.782  0.00  0.00    -0.276 OA
ATOM     17  H   LIG d   1      -4.201  75.280 118.862  0.00  0.00     0.149 HD
ENDBRANCH   6  13
BRANCH   5  18
ATOM     18  N   LIG d   1      -3.999  77.891 116.198  0.00  0.00     0.381 N 
ATOM     19  H   LIG d   1      -3.339  78.606 116.430  0.00  0.00    -0.090 HD
ATOM     20  H   LIG d   1      -4.482  78.168 115.361  0.00  0.00    -0.090 HD
ATOM     21  H   LIG d   1      -3.526  77.028 116.046  0.00  0.00    -0.090 HD
ENDBRANCH   5  18
BRANCH   3  22
ATOM     22  C   LIG d   1      -8.066  79.580 118.080  0.00  0.00     0.382 C 
ATOM     23  O   LIG d   1      -7.984  80.590 117.340  0.00  0.00    -0.241 OA
ATOM     24  O   LIG d   1      -8.859  79.587 119.041  0.00  0.00    -0.241 OA
ENDBRANCH   3  22
TORSDOF 7
ENDMDL
MODEL 3
REMARK VINA RESULT:      -5.3      2.483      4.695
REMARK  7 active torsions:
REMARK  status: ('A' for Active; 'I' for Inactive)
REMARK    1  A    between atoms: C_2  and  C_3 
REMARK    2  A    between atoms: C_3  and  O_6 
REMARK    3  A    between atoms: C_3  and  C_4 
REMARK    4  A    between atoms: C_7  and  O_6 
REMARK    5  A    between atoms: C_9  and  C_10 
REMARK    6  A    between atoms: N_15  and  C_14 
REMARK    7  A    between atoms: N_20  and  C_19 
REMARK       I    between atoms: C_22  and  N_20 
ROOT
ATOM      1  C   LIG d   1      -7.010  74.722 118.050  0.00  0.00     0.161 C 
ATOM      2  C   LIG d   1      -7.095  73.373 117.666  0.00  0.00     0.016 C 
ATOM      3  C   LIG d   1      -8.225  72.817 117.024  0.00  0.00     0.038 C 
ATOM      4  C   LIG d   1      -9.293  73.612 116.582  0.00  0.00     0.028 C 
ATOM      5  C   LIG d   1      -9.474  74.889 117.395  0.00  0.00    -0.047 C 
ATOM      6  C   LIG d   1      -8.119  75.629 117.477  0.00  0.00     0.091 C 
ENDROOT
BRANCH   1   7
ATOM      7  O   LIG d   1      -5.710  75.245 117.710  0.00  0.00    -0.368 OA
BRANCH   7   8
ATOM      8  C   LIG d   1      -4.906  74.428 116.824  0.00  0.00     0.119 C 
BRANCH   8   9
ATOM      9  C   LIG d   1      -3.537  74.222 117.501  0.00  0.00     0.028 C 
ATOM     10  C   LIG d   1      -2.368  74.335 116.508  0.00  0.00     0.006 C 
ENDBRANCH   8   9
BRANCH   8  11
ATOM     11  C   LIG d   1      -4.604  75.160 115.513  0.00  0.00     0.028 C 
ATOM     12  C   LIG d   1      -5.850  75.341 114.631  0.00  0.00     0.006 C 
ENDBRANCH   8  11
ENDBRANCH   7   8
ENDBRANCH   1   7
BRANCH   6  13
ATOM     13  N   LIG d   1      -8.188  76.846 118.326  0.00  0.00    -0.311 N 
ATOM     14  C   LIG d   1      -7.678  78.022 117.964  0.00  0.00     0.210 C 
ATOM     15  C   LIG d   1      -7.841  79.143 118.996  0.00  0.00     0.109 C 
ATOM     16  O   LIG d   1      -7.136  78.252 116.873  0.00  0.00    -0.276 OA
ATOM     17  H   LIG d   1      -8.639  76.757 119.215  0.00  0.00     0.149 HD
ENDBRANCH   6  13
BRANCH   5  18
ATOM     18  N   LIG d   1     -10.530  75.687 116.744  0.00  0.00     0.381 N 
ATOM     19  H   LIG d   1     -11.366  75.656 117.293  0.00  0.00    -0.090 HD
ATOM     20  H   LIG d   1     -10.730  75.288 115.843  0.00  0.00    -0.090 HD
ATOM     21  H   LIG d   1     -10.228  76.630 116.638  0.00  0.00    -0.090 HD
ENDBRANCH   5  18
BRANCH   3  22
ATOM     22  C   LIG d   1      -8.311  71.444 116.852  0.00  0.00     0.382 C 
ATOM     23  O   LIG d   1      -7.269  70.766 116.684  0.00  0.00    -0.241 OA
ATOM     24  O   LIG d   1      -9.421  70.880 116.819  0.00  0.00    -0.241 OA
ENDBRANCH   3  22
TORSDOF 7
ENDMDL
MODEL 4
REMARK VINA RESULT:      -4.9      2.166      4.763
REMARK  7 active torsions:
REMARK  status: ('A' for Active; 'I' for Inactive)
REMARK    1  A    between atoms: C_2  and  C_3 
REMARK    2  A    between atoms: C_3  and  O_6 
REMARK    3  A    between atoms: C_3  and  C_4 
REMARK    4  A    between atoms: C_7  and  O_6 
REMARK    5  A    between atoms: C_9  and  C_10 
REMARK    6  A    between atoms: N_15  and  C_14 
REMARK    7  A    between atoms: N_20  and  C_19 
REMARK       I    between atoms: C_22  and  N_20 
ROOT
ATOM      1  C   LIG d   1      -7.166  75.747 117.575  0.00  0.00     0.161 C 
ATOM      2  C   LIG d   1      -7.965  74.645 117.227  0.00  0.00     0.016 C 
ATOM      3  C   LIG d   1      -7.454  73.338 117.050  0.00  0.00     0.038 C 
ATOM      4  C   LIG d   1      -6.124  73.014 117.358  0.00  0.00     0.028 C 
ATOM      5  C   LIG d   1      -5.167  74.193 117.226  0.00  0.00    -0.047 C 
ATOM      6  C   LIG d   1      -5.733  75.391 118.023  0.00  0.00     0.091 C 
ENDROOT
BRANCH   1   7
ATOM      7  O   LIG d   1      -7.828  76.530 118.588  0.00  0.00    -0.368 OA
BRANCH   7   8
ATOM      8  C   LIG d   1      -8.474  77.744 118.133  0.00  0.00     0.119 C 
BRANCH   8   9
ATOM      9  C   LIG d   1      -7.737  78.932 118.780  0.00  0.00     0.028 C 
ATOM     10  C   LIG d   1      -7.249  79.957 117.742  0.00  0.00     0.006 C 
ENDBRANCH   8   9
BRANCH   8  11
ATOM     11  C   LIG d   1      -9.915  77.834 118.645  0.00  0.00     0.028 C 
ATOM     12  C   LIG d   1     -10.793  76.669 118.161  0.00  0.00     0.006 C 
ENDBRANCH   8  11
ENDBRANCH   7   8
ENDBRANCH   1   7
BRANCH   6  13
ATOM     13  N   LIG d   1      -4.900  76.613 117.879  0.00  0.00    -0.311 N 
ATOM     14  C   LIG d   1      -4.832  77.325 116.755  0.00  0.00     0.210 C 
ATOM     15  C   LIG d   1      -3.897  78.538 116.814  0.00  0.00     0.109 C 
ATOM     16  O   LIG d   1      -5.481  77.086 115.726  0.00  0.00    -0.276 OA
ATOM     17  H   LIG d   1      -4.364  76.896 118.675  0.00  0.00     0.149 HD
ENDBRANCH   6  13
BRANCH   5  18
ATOM     18  N   LIG d   1      -3.845  73.751 117.708  0.00  0.00     0.381 N 
ATOM     19  H   LIG d   1      -3.255  73.536 116.930  0.00  0.00    -0.090 HD
ATOM     20  H   LIG d   1      -3.961  72.916 118.256  0.00  0.00    -0.090 HD
ATOM     21  H   LIG d   1      -3.428  74.465 118.263  0.00  0.00    -0.090 HD
ENDBRANCH   5  18
BRANCH   3  22
ATOM     22  C   LIG d   1      -8.268  72.348 116.521  0.00  0.00     0.382 C 
ATOM     23  O   LIG d   1      -9.513  72.423 116.653  0.00  0.00    -0.241 OA
ATOM     24  O   LIG d   1      -7.770  71.358 115.952  0.00  0.00    -0.241 OA
ENDBRANCH   3  22
TORSDOF 7
ENDMDL
MODEL 5
REMARK VINA RESULT:      -4.7      2.361      5.287
REMARK  7 active torsions:
REMARK  status: ('A' for Active; 'I' for Inactive)
REMARK    1  A    between atoms: C_2  and  C_3 
REMARK    2  A    between atoms: C_3  and  O_6 
REMARK    3  A    between atoms: C_3  and  C_4 
REMARK    4  A    between atoms: C_7  and  O_6 
REMARK    5  A    between atoms: C_9  and  C_10 
REMARK    6  A    between atoms: N_15  and  C_14 
REMARK    7  A    between atoms: N_20  and  C_19 
REMARK       I    between atoms: C_22  and  N_20 
ROOT
ATOM      1  C   LIG d   1      -4.554  75.430 117.099  0.00  0.00     0.161 C 
ATOM      2  C   LIG d   1      -3.561  74.587 116.573  0.00  0.00     0.016 C 
ATOM      3  C   LIG d   1      -2.177  74.805 116.759  0.00  0.00     0.038 C 
ATOM      4  C   LIG d   1      -1.692  75.803 117.618  0.00  0.00     0.028 C 
ATOM      5  C   LIG d   1      -2.642  76.987 117.768  0.00  0.00    -0.047 C 
ATOM      6  C   LIG d   1      -4.048  76.460 118.131  0.00  0.00     0.091 C 
ENDROOT
BRANCH   1   7
ATOM      7  O   LIG d   1      -5.619  74.638 117.662  0.00  0.00    -0.368 OA
BRANCH   7   8
ATOM      8  C   LIG d   1      -6.795  74.470 116.833  0.00  0.00     0.119 C 
BRANCH   8   9
ATOM      9  C   LIG d   1      -7.984  75.101 117.584  0.00  0.00     0.028 C 
ATOM     10  C   LIG d   1      -8.489  76.387 116.908  0.00  0.00     0.006 C 
ENDBRANCH   8   9
BRANCH   8  11
ATOM     11  C   LIG d   1      -7.156  72.991 116.672  0.00  0.00     0.028 C 
ATOM     12  C   LIG d   1      -6.862  72.164 117.933  0.00  0.00     0.006 C 
ENDBRANCH   8  11
ENDBRANCH   7   8
ENDBRANCH   1   7
BRANCH   6  13
ATOM     13  N   LIG d   1      -5.058  77.547 118.214  0.00  0.00    -0.311 N 
ATOM     14  C   LIG d   1      -5.310  78.390 117.214  0.00  0.00     0.210 C 
ATOM     15  C   LIG d   1      -6.374  79.450 117.514  0.00  0.00     0.109 C 
ATOM     16  O   LIG d   1      -4.777  78.340 116.095  0.00  0.00    -0.276 OA
ATOM     17  H   LIG d   1      -5.559  77.640 119.075  0.00  0.00     0.149 HD
ENDBRANCH   6  13
BRANCH   5  18
ATOM     18  N   LIG d   1      -2.077  77.884 118.794  0.00  0.00     0.381 N 
ATOM     19  H   LIG d   1      -1.094  77.995 118.643  0.00  0.00    -0.090 HD
ATOM     20  H   LIG d   1      -2.212  77.468 119.699  0.00  0.00    -0.090 HD
ATOM     21  H   LIG d   1      -2.529  78.771 118.757  0.00  0.00    -0.090 HD
ENDBRANCH   5  18
BRANCH   3  22
ATOM     22  C   LIG d   1      -1.260  74.044 116.051  0.00  0.00     0.382 C 
ATOM     23  O   LIG d   1      -0.943  74.372 114.882  0.00  0.00    -0.241 OA
ATOM     24  O   LIG d   1      -0.779  73.008 116.549  0.00  0.00    -0.241 OA
ENDBRANCH   3  22
TORSDOF 7
ENDMDL
MODEL 6
REMARK VINA RESULT:      -4.5     13.958     15.524
REMARK  7 active torsions:
REMARK  status: ('A' for Active; 'I' for Inactive)
REMARK    1  A    between atoms: C_2  and  C_3 
REMARK    2  A    between atoms: C_3  and  O_6 
REMARK    3  A    between atoms: C_3  and  C_4 
REMARK    4  A    between atoms: C_7  and  O_6 
REMARK    5  A    between atoms: C_9  and  C_10 
REMARK    6  A    between atoms: N_15  and  C_14 
REMARK    7  A    between atoms: N_20  and  C_19 
REMARK       I    between atoms: C_22  and  N_20 
ROOT
ATOM      1  C   LIG d   1       1.653  88.052 116.205  0.00  0.00     0.161 C 
ATOM      2  C   LIG d   1       0.306  87.942 116.586  0.00  0.00     0.016 C 
ATOM      3  C   LIG d   1      -0.417  88.988 117.203  0.00  0.00     0.038 C 
ATOM      4  C   LIG d   1       0.119  90.277 117.344  0.00  0.00     0.028 C 
ATOM      5  C   LIG d   1       1.641  90.293 117.434  0.00  0.00    -0.047 C 
ATOM      6  C   LIG d   1       2.222  89.486 116.250  0.00  0.00     0.091 C 
ENDROOT
BRANCH   1   7
ATOM      7  O   LIG d   1       1.840  87.480 114.895  0.00  0.00    -0.368 OA
BRANCH   7   8
ATOM      8  C   LIG d   1       2.035  86.045 114.848  0.00  0.00     0.119 C 
BRANCH   8   9
ATOM      9  C   LIG d   1       3.425  85.748 115.444  0.00  0.00     0.028 C 
ATOM     10  C   LIG d   1       4.558  85.962 114.426  0.00  0.00     0.006 C 
ENDBRANCH   8   9
BRANCH   8  11
ATOM     11  C   LIG d   1       2.096  85.538 113.405  0.00  0.00     0.028 C 
ATOM     12  C   LIG d   1       0.705  85.278 112.805  0.00  0.00     0.006 C 
ENDBRANCH   8  11
ENDBRANCH   7   8
ENDBRANCH   1   7
BRANCH   6  13
ATOM     13  N   LIG d   1       3.703  89.380 116.309  0.00  0.00    -0.311 N 
ATOM     14  C   LIG d   1       4.495  89.583 115.257  0.00  0.00     0.210 C 
ATOM     15  C   LIG d   1       5.992  89.404 115.531  0.00  0.00     0.109 C 
ATOM     16  O   LIG d   1       4.102  89.925 114.132  0.00  0.00    -0.276 OA
ATOM     17  H   LIG d   1       4.109  89.137 117.192  0.00  0.00     0.149 HD
ENDBRANCH   6  13
BRANCH   5  18
ATOM     18  N   LIG d   1       2.073  91.703 117.439  0.00  0.00     0.381 N 
ATOM     19  H   LIG d   1       2.042  92.063 118.372  0.00  0.00    -0.090 HD
ATOM     20  H   LIG d   1       1.438  92.239 116.874  0.00  0.00    -0.090 HD
ATOM     21  H   LIG d   1       2.997  91.778 117.076  0.00  0.00    -0.090 HD
ENDBRANCH   5  18
BRANCH   3  22
ATOM     22  C   LIG d   1      -1.679  88.740 117.722  0.00  0.00     0.382 C 
ATOM     23  O   LIG d   1      -2.698  89.150 117.116  0.00  0.00    -0.241 OA
ATOM     24  O   LIG d   1      -1.809  88.149 118.811  0.00  0.00    -0.241 OA
ENDBRANCH   3  22
TORSDOF 7
ENDMDL
MODEL 7
REMARK VINA RESULT:      -4.5     17.638     20.230
REMARK  7 active torsions:
REMARK  status: ('A' for Active; 'I' for Inactive)
REMARK    1  A    between atoms: C_2  and  C_3 
REMARK    2  A    between atoms: C_3  and  O_6 
REMARK    3  A    between atoms: C_3  and  C_4 
REMARK    4  A    between atoms: C_7  and  O_6 
REMARK    5  A    between atoms: C_9  and  C_10 
REMARK    6  A    between atoms: N_15  and  C_14 
REMARK    7  A    between atoms: N_20  and  C_19 
REMARK       I    between atoms: C_22  and  N_20 
ROOT
ATOM      1  C   LIG d   1     -23.742  83.528 114.954  0.00  0.00     0.161 C 
ATOM      2  C   LIG d   1     -22.790  84.558 114.863  0.00  0.00     0.016 C 
ATOM      3  C   LIG d   1     -23.092  85.858 114.396  0.00  0.00     0.038 C 
ATOM      4  C   LIG d   1     -24.408  86.262 114.129  0.00  0.00     0.028 C 
ATOM      5  C   LIG d   1     -25.325  85.113 113.724  0.00  0.00    -0.047 C 
ATOM      6  C   LIG d   1     -25.205  83.983 114.772  0.00  0.00     0.091 C 
ENDROOT
BRANCH   1   7
ATOM      7  O   LIG d   1     -23.586  82.828 116.204  0.00  0.00    -0.368 OA
BRANCH   7   8
ATOM      8  C   LIG d   1     -23.092  81.469 116.117  0.00  0.00     0.119 C 
BRANCH   8   9
ATOM      9  C   LIG d   1     -24.237  80.532 116.546  0.00  0.00     0.028 C 
ATOM     10  C   LIG d   1     -24.470  79.391 115.542  0.00  0.00     0.006 C 
ENDBRANCH   8   9
BRANCH   8  11
ATOM     11  C   LIG d   1     -21.965  81.220 117.123  0.00  0.00     0.028 C 
ATOM     12  C   LIG d   1     -21.322  82.520 117.632  0.00  0.00     0.006 C 
ENDBRANCH   8  11
ENDBRANCH   7   8
ENDBRANCH   1   7
BRANCH   6  13
ATOM     13  N   LIG d   1     -26.006  82.785 114.409  0.00  0.00    -0.311 N 
ATOM     14  C   LIG d   1     -27.237  82.560 114.865  0.00  0.00     0.210 C 
ATOM     15  C   LIG d   1     -27.877  81.255 114.382  0.00  0.00     0.109 C 
ATOM     16  O   LIG d   1     -27.872  83.333 115.598  0.00  0.00    -0.276 OA
ATOM     17  H   LIG d   1     -25.580  82.121 113.793  0.00  0.00     0.149 HD
ENDBRANCH   6  13
BRANCH   5  18
ATOM     18  N   LIG d   1     -26.693  85.653 113.610  0.00  0.00     0.381 N 
ATOM     19  H   LIG d   1     -26.683  86.484 113.053  0.00  0.00    -0.090 HD
ATOM     20  H   LIG d   1     -27.025  85.893 114.528  0.00  0.00    -0.090 HD
ATOM     21  H   LIG d   1     -27.294  84.974 113.198  0.00  0.00    -0.090 HD
ENDBRANCH   5  18
BRANCH   3  22
ATOM     22  C   LIG d   1     -22.064  86.756 114.154  0.00  0.00     0.382 C 
ATOM     23  O   LIG d   1     -21.997  87.824 114.810  0.00  0.00    -0.241 OA
ATOM     24  O   LIG d   1     -21.229  86.534 113.257  0.00  0.00    -0.241 OA
ENDBRANCH   3  22
TORSDOF 7
ENDMDL
MODEL 8
REMARK VINA RESULT:      -4.5     14.522     16.172
REMARK  7 active torsions:
REMARK  status: ('A' for Active; 'I' for Inactive)
REMARK    1  A    between atoms: C_2  and  C_3 
REMARK    2  A    between atoms: C_3  and  O_6 
REMARK    3  A    between atoms: C_3  and  C_4 
REMARK    4  A    between atoms: C_7  and  O_6 
REMARK    5  A    between atoms: C_9  and  C_10 
REMARK    6  A    between atoms: N_15  and  C_14 
REMARK    7  A    between atoms: N_20  and  C_19 
REMARK       I    between atoms: C_22  and  N_20 
ROOT
ATOM      1  C   LIG d   1       1.160  88.828 116.836  0.00  0.00     0.161 C 
ATOM      2  C   LIG d   1      -0.220  88.573 116.899  0.00  0.00     0.016 C 
ATOM      3  C   LIG d   1      -1.152  89.472 117.465  0.00  0.00     0.038 C 
ATOM      4  C   LIG d   1      -0.784  90.762 117.874  0.00  0.00     0.028 C 
ATOM      5  C   LIG d   1       0.678  90.870 118.294  0.00  0.00    -0.047 C 
ATOM      6  C   LIG d   1       1.566  90.277 117.176  0.00  0.00     0.091 C 
ENDROOT
BRANCH   1   7
ATOM      7  O   LIG d   1       1.668  88.457 115.539  0.00  0.00    -0.368 OA
BRANCH   7   8
ATOM      8  C   LIG d   1       2.755  87.499 115.530  0.00  0.00     0.119 C 
BRANCH   8   9
ATOM      9  C   LIG d   1       3.621  87.794 114.290  0.00  0.00     0.028 C 
ATOM     10  C   LIG d   1       4.289  89.177 114.355  0.00  0.00     0.006 C 
ENDBRANCH   8   9
BRANCH   8  11
ATOM     11  C   LIG d   1       2.238  86.071 115.333  0.00  0.00     0.028 C 
ATOM     12  C   LIG d   1       1.706  85.820 113.914  0.00  0.00     0.006 C 
ENDBRANCH   8  11
ENDBRANCH   7   8
ENDBRANCH   1   7
BRANCH   6  13
ATOM     13  N   LIG d   1       3.007  90.266 117.543  0.00  0.00    -0.311 N 
ATOM     14  C   LIG d   1       3.826  91.294 117.325  0.00  0.00     0.210 C 
ATOM     15  C   LIG d   1       5.277  91.067 117.760  0.00  0.00     0.109 C 
ATOM     16  O   LIG d   1       3.482  92.383 116.842  0.00  0.00    -0.276 OA
ATOM     17  H   LIG d   1       3.363  89.433 117.968  0.00  0.00     0.149 HD
ENDBRANCH   6  13
BRANCH   5  18
ATOM     18  N   LIG d   1       0.961  92.293 118.563  0.00  0.00     0.381 N 
ATOM     19  H   LIG d   1       0.286  92.657 119.205  0.00  0.00    -0.090 HD
ATOM     20  H   LIG d   1       0.887  92.807 117.703  0.00  0.00    -0.090 HD
ATOM     21  H   LIG d   1       1.877  92.393 118.941  0.00  0.00    -0.090 HD
ENDBRANCH   5  18
BRANCH   3  22
ATOM     22  C   LIG d   1      -2.464  89.067 117.663  0.00  0.00     0.382 C 
ATOM     23  O   LIG d   1      -3.341  89.343 116.810  0.00  0.00    -0.241 OA
ATOM     24  O   LIG d   1      -2.789  88.469 118.706  0.00  0.00    -0.241 OA
ENDBRANCH   3  22
TORSDOF 7
ENDMDL
MODEL 9
REMARK VINA RESULT:      -4.3     15.118     17.189
REMARK  7 active torsions:
REMARK  status: ('A' for Active; 'I' for Inactive)
REMARK    1  A    between atoms: C_2  and  C_3 
REMARK    2  A    between atoms: C_3  and  O_6 
REMARK    3  A    between atoms: C_3  and  C_4 
REMARK    4  A    between atoms: C_7  and  O_6 
REMARK    5  A    between atoms: C_9  and  C_10 
REMARK    6  A    between atoms: N_15  and  C_14 
REMARK    7  A    between atoms: N_20  and  C_19 
REMARK       I    between atoms: C_22  and  N_20 
ROOT
ATOM      1  C   LIG d   1       3.630  88.746 115.953  0.00  0.00     0.161 C 
ATOM      2  C   LIG d   1       3.907  89.934 116.650  0.00  0.00     0.016 C 
ATOM      3  C   LIG d   1       2.910  90.726 117.266  0.00  0.00     0.038 C 
ATOM      4  C   LIG d   1       1.576  90.301 117.356  0.00  0.00     0.028 C 
ATOM      5  C   LIG d   1       1.164  89.357 116.231  0.00  0.00    -0.047 C 
ATOM      6  C   LIG d   1       2.195  88.209 116.137  0.00  0.00     0.091 C 
ENDROOT
BRANCH   1   7
ATOM      7  O   LIG d   1       4.593  87.735 116.310  0.00  0.00    -0.368 OA
BRANCH   7   8
ATOM      8  C   LIG d   1       5.565  87.394 115.291  0.00  0.00     0.119 C 
BRANCH   8   9
ATOM      9  C   LIG d   1       6.836  88.219 115.570  0.00  0.00     0.028 C 
ATOM     10  C   LIG d   1       7.929  87.396 116.271  0.00  0.00     0.006 C 
ENDBRANCH   8   9
BRANCH   8  11
ATOM     11  C   LIG d   1       5.094  87.831 113.902  0.00  0.00     0.028 C 
ATOM     12  C   LIG d   1       6.075  88.794 113.215  0.00  0.00     0.006 C 
ENDBRANCH   8  11
ENDBRANCH   7   8
ENDBRANCH   1   7
BRANCH   6  13
ATOM     13  N   LIG d   1       1.913  87.285 115.007  0.00  0.00    -0.311 N 
ATOM     14  C   LIG d   1       2.022  85.961 115.097  0.00  0.00     0.210 C 
ATOM     15  C   LIG d   1       1.704  85.197 113.808  0.00  0.00     0.109 C 
ATOM     16  O   LIG d   1       2.321  85.345 116.131  0.00  0.00    -0.276 OA
ATOM     17  H   LIG d   1       1.633  87.699 114.139  0.00  0.00     0.149 HD
ENDBRANCH   6  13
BRANCH   5  18
ATOM     18  N   LIG d   1      -0.202  88.884 116.525  0.00  0.00     0.381 N 
ATOM     19  H   LIG d   1      -0.240  87.887 116.449  0.00  0.00    -0.090 HD
ATOM     20  H   LIG d   1      -0.834  89.276 115.848  0.00  0.00    -0.090 HD
ATOM     21  H   LIG d   1      -0.471  89.165 117.442  0.00  0.00    -0.090 HD
ENDBRANCH   5  18
BRANCH   3  22
ATOM     22  C   LIG d   1       3.238  91.977 117.765  0.00  0.00     0.382 C 
ATOM     23  O   LIG d   1       2.785  92.348 118.874  0.00  0.00    -0.241 OA
ATOM     24  O   LIG d   1       3.944  92.758 117.099  0.00  0.00    -0.241 OA
ENDBRANCH   3  22
TORSDOF 7
ENDMDL
