MODEL 1
REMARK VINA RESULT:      -4.9      0.000      0.000
REMARK  7 active torsions:
REMARK  status: ('A' for Active; 'I' for Inactive)
REMARK    1  A    between atoms: C_2  and  C_3 
REMARK    2  A    between atoms: C_3  and  O_6 
REMARK    3  A    between atoms: C_3  and  C_4 
REMARK    4  A    between atoms: C_7  and  O_6 
REMARK    5  A    between atoms: C_9  and  C_10 
REMARK    6  A    between atoms: N_15  and  C_14 
REMARK    7  A    between atoms: N_20  and  C_19 
REMARK       I    between atoms: C_22  and  N_20 
ROOT
ATOM      1  C   LIG d   1      -5.497  91.098 118.405  0.00  0.00     0.161 C 
ATOM      2  C   LIG d   1      -6.449  92.127 118.486  0.00  0.00     0.016 C 
ATOM      3  C   LIG d   1      -6.137  93.446 118.889  0.00  0.00     0.038 C 
ATOM      4  C   LIG d   1      -4.814  93.865 119.092  0.00  0.00     0.028 C 
ATOM      5  C   LIG d   1      -3.878  92.736 119.511  0.00  0.00    -0.047 C 
ATOM      6  C   LIG d   1      -4.030  91.563 118.516  0.00  0.00     0.091 C 
ENDROOT
BRANCH   1   7
ATOM      7  O   LIG d   1      -5.693  90.346 117.191  0.00  0.00    -0.368 OA
BRANCH   7   8
ATOM      8  C   LIG d   1      -6.715  90.842 116.292  0.00  0.00     0.119 C 
BRANCH   8   9
ATOM      9  C   LIG d   1      -7.483  89.623 115.746  0.00  0.00     0.028 C 
ATOM     10  C   LIG d   1      -8.768  89.335 116.541  0.00  0.00     0.006 C 
ENDBRANCH   8   9
BRANCH   8  11
ATOM     11  C   LIG d   1      -6.097  91.515 115.063  0.00  0.00     0.028 C 
ATOM     12  C   LIG d   1      -7.149  92.145 114.136  0.00  0.00     0.006 C 
ENDBRANCH   8  11
ENDBRANCH   7   8
ENDBRANCH   1   7
BRANCH   6  13
ATOM     13  N   LIG d   1      -3.212  90.384 118.901  0.00  0.00    -0.311 N 
ATOM     14  C   LIG d   1      -2.350  89.790 118.077  0.00  0.00     0.210 C 
ATOM     15  C   LIG d   1      -1.623  88.577 118.668  0.00  0.00     0.109 C 
ATOM     16  O   LIG d   1      -2.094  90.171 116.925  0.00  0.00    -0.276 OA
ATOM     17  H   LIG d   1      -3.333  90.027 119.829  0.00  0.00     0.149 HD
ENDBRANCH   6  13
BRANCH   5  18
ATOM     18  N   LIG d   1      -2.509  93.284 119.555  0.00  0.00     0.381 N 
ATOM     19  H   LIG d   1      -2.544  94.284 119.531  0.00  0.00    -0.090 HD
ATOM     20  H   LIG d   1      -2.006  92.966 118.745  0.00  0.00    -0.090 HD
ATOM     21  H   LIG d   1      -2.047  92.980 120.383  0.00  0.00    -0.090 HD
ENDBRANCH   5  18
BRANCH   3  22
ATOM     22  C   LIG d   1      -7.159  94.351 119.129  0.00  0.00     0.382 C 
ATOM     23  O   LIG d   1      -6.944  95.583 119.024  0.00  0.00    -0.241 OA
ATOM     24  O   LIG d   1      -8.282  93.954 119.494  0.00  0.00    -0.241 OA
ENDBRANCH   3  22
TORSDOF 7
ENDMDL
MODEL 2
REMARK VINA RESULT:      -4.8      1.923      2.554
REMARK  7 active torsions:
REMARK  status: ('A' for Active; 'I' for Inactive)
REMARK    1  A    between atoms: C_2  and  C_3 
REMARK    2  A    between atoms: C_3  and  O_6 
REMARK    3  A    between atoms: C_3  and  C_4 
REMARK    4  A    between atoms: C_7  and  O_6 
REMARK    5  A    between atoms: C_9  and  C_10 
REMARK    6  A    between atoms: N_15  and  C_14 
REMARK    7  A    between atoms: N_20  and  C_19 
REMARK       I    between atoms: C_22  and  N_20 
ROOT
ATOM      1  C   LIG d   1      -6.346  92.478 118.872  0.00  0.00     0.161 C 
ATOM      2  C   LIG d   1      -7.538  93.221 118.869  0.00  0.00     0.016 C 
ATOM      3  C   LIG d   1      -7.579  94.627 119.015  0.00  0.00     0.038 C 
ATOM      4  C   LIG d   1      -6.412  95.406 119.022  0.00  0.00     0.028 C 
ATOM      5  C   LIG d   1      -5.186  94.657 119.534  0.00  0.00    -0.047 C 
ATOM      6  C   LIG d   1      -5.058  93.321 118.767  0.00  0.00     0.091 C 
ENDROOT
BRANCH   1   7
ATOM      7  O   LIG d   1      -6.384  91.489 117.824  0.00  0.00    -0.368 OA
BRANCH   7   8
ATOM      8  C   LIG d   1      -5.934  91.927 116.518  0.00  0.00     0.119 C 
BRANCH   8   9
ATOM      9  C   LIG d   1      -7.179  92.370 115.724  0.00  0.00     0.028 C 
ATOM     10  C   LIG d   1      -7.035  92.111 114.215  0.00  0.00     0.006 C 
ENDBRANCH   8   9
BRANCH   8  11
ATOM     11  C   LIG d   1      -5.335  90.767 115.718  0.00  0.00     0.028 C 
ATOM     12  C   LIG d   1      -4.050  90.208 116.349  0.00  0.00     0.006 C 
ENDBRANCH   8  11
ENDBRANCH   7   8
ENDBRANCH   1   7
BRANCH   6  13
ATOM     13  N   LIG d   1      -3.932  92.488 119.264  0.00  0.00    -0.311 N 
ATOM     14  C   LIG d   1      -2.715  92.501 118.724  0.00  0.00     0.210 C 
ATOM     15  C   LIG d   1      -1.707  91.550 119.377  0.00  0.00     0.109 C 
ATOM     16  O   LIG d   1      -2.366  93.233 117.785  0.00  0.00    -0.276 OA
ATOM     17  H   LIG d   1      -4.120  91.887 120.043  0.00  0.00     0.149 HD
ENDBRANCH   6  13
BRANCH   5  18
ATOM     18  N   LIG d   1      -4.018  95.540 119.358  0.00  0.00     0.381 N 
ATOM     19  H   LIG d   1      -3.193  95.079 119.685  0.00  0.00    -0.090 HD
ATOM     20  H   LIG d   1      -4.153  96.371 119.906  0.00  0.00    -0.090 HD
ATOM     21  H   LIG d   1      -3.914  95.780 118.397  0.00  0.00    -0.090 HD
ENDBRANCH   5  18
BRANCH   3  22
ATOM     22  C   LIG d   1      -8.797  95.264 119.196  0.00  0.00     0.382 C 
ATOM     23  O   LIG d   1      -9.866  94.653 118.956  0.00  0.00    -0.241 OA
ATOM     24  O   LIG d   1      -8.839  96.457 119.554  0.00  0.00    -0.241 OA
ENDBRANCH   3  22
TORSDOF 7
ENDMDL
MODEL 3
REMARK VINA RESULT:      -4.5      6.353      9.244
REMARK  7 active torsions:
REMARK  status: ('A' for Active; 'I' for Inactive)
REMARK    1  A    between atoms: C_2  and  C_3 
REMARK    2  A    between atoms: C_3  and  O_6 
REMARK    3  A    between atoms: C_3  and  C_4 
REMARK    4  A    between atoms: C_7  and  O_6 
REMARK    5  A    between atoms: C_9  and  C_10 
REMARK    6  A    between atoms: N_15  and  C_14 
REMARK    7  A    between atoms: N_20  and  C_19 
REMARK       I    between atoms: C_22  and  N_20 
ROOT
ATOM      1  C   LIG d   1       2.699  89.634 116.771  0.00  0.00     0.161 C 
ATOM      2  C   LIG d   1       3.155  90.877 117.243  0.00  0.00     0.016 C 
ATOM      3  C   LIG d   1       4.405  91.434 116.885  0.00  0.00     0.038 C 
ATOM      4  C   LIG d   1       5.223  90.851 115.906  0.00  0.00     0.028 C 
ATOM      5  C   LIG d   1       5.036  89.343 115.779  0.00  0.00    -0.047 C 
ATOM      6  C   LIG d   1       3.530  89.037 115.616  0.00  0.00     0.091 C 
ENDROOT
BRANCH   1   7
ATOM      7  O   LIG d   1       1.312  89.735 116.391  0.00  0.00    -0.368 OA
BRANCH   7   8
ATOM      8  C   LIG d   1       0.347  89.312 117.385  0.00  0.00     0.119 C 
BRANCH   8   9
ATOM      9  C   LIG d   1       0.078  87.812 117.160  0.00  0.00     0.028 C 
ATOM     10  C   LIG d   1       0.763  86.928 118.217  0.00  0.00     0.006 C 
ENDBRANCH   8   9
BRANCH   8  11
ATOM     11  C   LIG d   1      -1.005  90.002 117.178  0.00  0.00     0.028 C 
ATOM     12  C   LIG d   1      -2.196  89.088 117.505  0.00  0.00     0.006 C 
ENDBRANCH   8  11
ENDBRANCH   7   8
ENDBRANCH   1   7
BRANCH   6  13
ATOM     13  N   LIG d   1       3.250  87.578 115.568  0.00  0.00    -0.311 N 
ATOM     14  C   LIG d   1       2.585  86.991 114.575  0.00  0.00     0.210 C 
ATOM     15  C   LIG d   1       2.388  85.480 114.732  0.00  0.00     0.109 C 
ATOM     16  O   LIG d   1       2.167  87.573 113.562  0.00  0.00    -0.276 OA
ATOM     17  H   LIG d   1       3.580  87.025 116.334  0.00  0.00     0.149 HD
ENDBRANCH   6  13
BRANCH   5  18
ATOM     18  N   LIG d   1       5.846  88.889 114.632  0.00  0.00     0.381 N 
ATOM     19  H   LIG d   1       5.357  89.071 113.779  0.00  0.00    -0.090 HD
ATOM     20  H   LIG d   1       5.989  87.897 114.708  0.00  0.00    -0.090 HD
ATOM     21  H   LIG d   1       6.724  89.359 114.628  0.00  0.00    -0.090 HD
ENDBRANCH   5  18
BRANCH   3  22
ATOM     22  C   LIG d   1       4.865  92.566 117.540  0.00  0.00     0.382 C 
ATOM     23  O   LIG d   1       4.478  93.702 117.175  0.00  0.00    -0.241 OA
ATOM     24  O   LIG d   1       5.695  92.468 118.463  0.00  0.00    -0.241 OA
ENDBRANCH   3  22
TORSDOF 7
ENDMDL
MODEL 4
REMARK VINA RESULT:      -4.4      6.899      9.741
REMARK  7 active torsions:
REMARK  status: ('A' for Active; 'I' for Inactive)
REMARK    1  A    between atoms: C_2  and  C_3 
REMARK    2  A    between atoms: C_3  and  O_6 
REMARK    3  A    between atoms: C_3  and  C_4 
REMARK    4  A    between atoms: C_7  and  O_6 
REMARK    5  A    between atoms: C_9  and  C_10 
REMARK    6  A    between atoms: N_15  and  C_14 
REMARK    7  A    between atoms: N_20  and  C_19 
REMARK       I    between atoms: C_22  and  N_20 
ROOT
ATOM      1  C   LIG d   1       2.741  88.690 116.201  0.00  0.00     0.161 C 
ATOM      2  C   LIG d   1       3.161  89.908 116.762  0.00  0.00     0.016 C 
ATOM      3  C   LIG d   1       4.225  90.679 116.241  0.00  0.00     0.038 C 
ATOM      4  C   LIG d   1       4.848  90.357 115.026  0.00  0.00     0.028 C 
ATOM      5  C   LIG d   1       4.797  88.869 114.694  0.00  0.00    -0.047 C 
ATOM      6  C   LIG d   1       3.335  88.379 114.811  0.00  0.00     0.091 C 
ENDROOT
BRANCH   1   7
ATOM      7  O   LIG d   1       1.301  88.646 116.151  0.00  0.00    -0.368 OA
BRANCH   7   8
ATOM      8  C   LIG d   1       0.667  87.614 116.947  0.00  0.00     0.119 C 
BRANCH   8   9
ATOM      9  C   LIG d   1      -0.262  88.314 117.957  0.00  0.00     0.028 C 
ATOM     10  C   LIG d   1      -1.435  89.036 117.272  0.00  0.00     0.006 C 
ENDBRANCH   8   9
BRANCH   8  11
ATOM     11  C   LIG d   1       1.693  86.857 117.796  0.00  0.00     0.028 C 
ATOM     12  C   LIG d   1       1.671  85.341 117.545  0.00  0.00     0.006 C 
ENDBRANCH   8  11
ENDBRANCH   7   8
ENDBRANCH   1   7
BRANCH   6  13
ATOM     13  N   LIG d   1       3.208  86.916 114.585  0.00  0.00    -0.311 N 
ATOM     14  C   LIG d   1       2.265  86.372 113.818  0.00  0.00     0.210 C 
ATOM     15  C   LIG d   1       2.301  84.843 113.736  0.00  0.00     0.109 C 
ATOM     16  O   LIG d   1       1.423  87.013 113.171  0.00  0.00    -0.276 OA
ATOM     17  H   LIG d   1       3.870  86.324 115.047  0.00  0.00     0.149 HD
ENDBRANCH   6  13
BRANCH   5  18
ATOM     18  N   LIG d   1       5.358  88.695 113.341  0.00  0.00     0.381 N 
ATOM     19  H   LIG d   1       6.106  89.344 113.198  0.00  0.00    -0.090 HD
ATOM     20  H   LIG d   1       4.641  88.886 112.664  0.00  0.00    -0.090 HD
ATOM     21  H   LIG d   1       5.692  87.763 113.228  0.00  0.00    -0.090 HD
ENDBRANCH   5  18
BRANCH   3  22
ATOM     22  C   LIG d   1       4.704  91.764 116.959  0.00  0.00     0.382 C 
ATOM     23  O   LIG d   1       4.092  92.859 116.922  0.00  0.00    -0.241 OA
ATOM     24  O   LIG d   1       5.763  91.675 117.607  0.00  0.00    -0.241 OA
ENDBRANCH   3  22
TORSDOF 7
ENDMDL
MODEL 5
REMARK VINA RESULT:      -4.4     17.186     20.065
REMARK  7 active torsions:
REMARK  status: ('A' for Active; 'I' for Inactive)
REMARK    1  A    between atoms: C_2  and  C_3 
REMARK    2  A    between atoms: C_3  and  O_6 
REMARK    3  A    between atoms: C_3  and  C_4 
REMARK    4  A    between atoms: C_7  and  O_6 
REMARK    5  A    between atoms: C_9  and  C_10 
REMARK    6  A    between atoms: N_15  and  C_14 
REMARK    7  A    between atoms: N_20  and  C_19 
REMARK       I    between atoms: C_22  and  N_20 
ROOT
ATOM      1  C   LIG d   1      10.028  80.482 115.824  0.00  0.00     0.161 C 
ATOM      2  C   LIG d   1      11.307  80.825 115.354  0.00  0.00     0.016 C 
ATOM      3  C   LIG d   1      12.071  79.997 114.500  0.00  0.00     0.038 C 
ATOM      4  C   LIG d   1      11.541  78.829 113.932  0.00  0.00     0.028 C 
ATOM      5  C   LIG d   1      10.444  78.188 114.776  0.00  0.00    -0.047 C 
ATOM      6  C   LIG d   1       9.389  79.263 115.126  0.00  0.00     0.091 C 
ENDROOT
BRANCH   1   7
ATOM      7  O   LIG d   1       9.153  81.624 115.738  0.00  0.00    -0.368 OA
BRANCH   7   8
ATOM      8  C   LIG d   1       9.539  82.782 116.517  0.00  0.00     0.119 C 
BRANCH   8   9
ATOM      9  C   LIG d   1       9.026  82.566 117.954  0.00  0.00     0.028 C 
ATOM     10  C   LIG d   1      10.157  82.613 118.995  0.00  0.00     0.006 C 
ENDBRANCH   8   9
BRANCH   8  11
ATOM     11  C   LIG d   1       8.834  84.048 116.021  0.00  0.00     0.028 C 
ATOM     12  C   LIG d   1       9.723  85.299 116.110  0.00  0.00     0.006 C 
ENDBRANCH   8  11
ENDBRANCH   7   8
ENDBRANCH   1   7
BRANCH   6  13
ATOM     13  N   LIG d   1       8.323  78.740 116.020  0.00  0.00    -0.311 N 
ATOM     14  C   LIG d   1       7.217  78.149 115.574  0.00  0.00     0.210 C 
ATOM     15  C   LIG d   1       6.238  77.701 116.664  0.00  0.00     0.109 C 
ATOM     16  O   LIG d   1       6.967  77.923 114.380  0.00  0.00    -0.276 OA
ATOM     17  H   LIG d   1       8.459  78.854 117.006  0.00  0.00     0.149 HD
ENDBRANCH   6  13
BRANCH   5  18
ATOM     18  N   LIG d   1       9.888  77.062 114.003  0.00  0.00     0.381 N 
ATOM     19  H   LIG d   1      10.472  76.257 114.110  0.00  0.00    -0.090 HD
ATOM     20  H   LIG d   1       9.870  77.312 113.030  0.00  0.00    -0.090 HD
ATOM     21  H   LIG d   1       8.965  76.856 114.317  0.00  0.00    -0.090 HD
ENDBRANCH   5  18
BRANCH   3  22
ATOM     22  C   LIG d   1      13.395  80.315 114.238  0.00  0.00     0.382 C 
ATOM     23  O   LIG d   1      14.303  79.890 114.992  0.00  0.00    -0.241 OA
ATOM     24  O   LIG d   1      13.688  81.059 113.283  0.00  0.00    -0.241 OA
ENDBRANCH   3  22
TORSDOF 7
ENDMDL
MODEL 6
REMARK VINA RESULT:      -4.4      9.098     11.049
REMARK  7 active torsions:
REMARK  status: ('A' for Active; 'I' for Inactive)
REMARK    1  A    between atoms: C_2  and  C_3 
REMARK    2  A    between atoms: C_3  and  O_6 
REMARK    3  A    between atoms: C_3  and  C_4 
REMARK    4  A    between atoms: C_7  and  O_6 
REMARK    5  A    between atoms: C_9  and  C_10 
REMARK    6  A    between atoms: N_15  and  C_14 
REMARK    7  A    between atoms: N_20  and  C_19 
REMARK       I    between atoms: C_22  and  N_20 
ROOT
ATOM      1  C   LIG d   1       4.870  88.570 116.789  0.00  0.00     0.161 C 
ATOM      2  C   LIG d   1       4.097  89.742 116.735  0.00  0.00     0.016 C 
ATOM      3  C   LIG d   1       4.622  91.032 116.976  0.00  0.00     0.038 C 
ATOM      4  C   LIG d   1       5.997  91.254 117.142  0.00  0.00     0.028 C 
ATOM      5  C   LIG d   1       6.742  90.049 117.706  0.00  0.00    -0.047 C 
ATOM      6  C   LIG d   1       6.394  88.803 116.859  0.00  0.00     0.091 C 
ENDROOT
BRANCH   1   7
ATOM      7  O   LIG d   1       4.544  87.717 115.674  0.00  0.00    -0.368 OA
BRANCH   7   8
ATOM      8  C   LIG d   1       3.436  88.147 114.846  0.00  0.00     0.119 C 
BRANCH   8   9
ATOM      9  C   LIG d   1       2.394  87.011 114.841  0.00  0.00     0.028 C 
ATOM     10  C   LIG d   1       1.388  87.133 115.997  0.00  0.00     0.006 C 
ENDBRANCH   8   9
BRANCH   8  11
ATOM     11  C   LIG d   1       3.864  88.311 113.384  0.00  0.00     0.028 C 
ATOM     12  C   LIG d   1       5.390  88.327 113.208  0.00  0.00     0.006 C 
ENDBRANCH   8  11
ENDBRANCH   7   8
ENDBRANCH   1   7
BRANCH   6  13
ATOM     13  N   LIG d   1       7.014  87.563 117.394  0.00  0.00    -0.311 N 
ATOM     14  C   LIG d   1       7.913  86.845 116.723  0.00  0.00     0.210 C 
ATOM     15  C   LIG d   1       8.412  85.591 117.448  0.00  0.00     0.109 C 
ATOM     16  O   LIG d   1       8.370  87.145 115.609  0.00  0.00    -0.276 OA
ATOM     17  H   LIG d   1       6.725  87.264 118.304  0.00  0.00     0.149 HD
ENDBRANCH   6  13
BRANCH   5  18
ATOM     18  N   LIG d   1       8.181  90.370 117.697  0.00  0.00     0.381 N 
ATOM     19  H   LIG d   1       8.717  89.526 117.661  0.00  0.00    -0.090 HD
ATOM     20  H   LIG d   1       8.411  90.854 118.548  0.00  0.00    -0.090 HD
ATOM     21  H   LIG d   1       8.398  90.943 116.912  0.00  0.00    -0.090 HD
ENDBRANCH   5  18
BRANCH   3  22
ATOM     22  C   LIG d   1       3.761  92.113 117.094  0.00  0.00     0.382 C 
ATOM     23  O   LIG d   1       2.524  91.923 117.177  0.00  0.00    -0.241 OA
ATOM     24  O   LIG d   1       4.203  93.278 117.073  0.00  0.00    -0.241 OA
ENDBRANCH   3  22
TORSDOF 7
ENDMDL
MODEL 7
REMARK VINA RESULT:      -4.3      5.120      8.169
REMARK  7 active torsions:
REMARK  status: ('A' for Active; 'I' for Inactive)
REMARK    1  A    between atoms: C_2  and  C_3 
REMARK    2  A    between atoms: C_3  and  O_6 
REMARK    3  A    between atoms: C_3  and  C_4 
REMARK    4  A    between atoms: C_7  and  O_6 
REMARK    5  A    between atoms: C_9  and  C_10 
REMARK    6  A    between atoms: N_15  and  C_14 
REMARK    7  A    between atoms: N_20  and  C_19 
REMARK       I    between atoms: C_22  and  N_20 
ROOT
ATOM      1  C   LIG d   1       1.298  88.648 116.955  0.00  0.00     0.161 C 
ATOM      2  C   LIG d   1      -0.076  88.380 117.069  0.00  0.00     0.016 C 
ATOM      3  C   LIG d   1      -1.042  89.374 117.347  0.00  0.00     0.038 C 
ATOM      4  C   LIG d   1      -0.715  90.738 117.379  0.00  0.00     0.028 C 
ATOM      5  C   LIG d   1       0.735  91.003 117.770  0.00  0.00    -0.047 C 
ATOM      6  C   LIG d   1       1.661  90.146 116.877  0.00  0.00     0.091 C 
ENDROOT
BRANCH   1   7
ATOM      7  O   LIG d   1       1.842  87.941 115.823  0.00  0.00    -0.368 OA
BRANCH   7   8
ATOM      8  C   LIG d   1       2.518  86.694 116.114  0.00  0.00     0.119 C 
BRANCH   8   9
ATOM      9  C   LIG d   1       3.961  86.815 115.586  0.00  0.00     0.028 C 
ATOM     10  C   LIG d   1       5.004  86.780 116.716  0.00  0.00     0.006 C 
ENDBRANCH   8   9
BRANCH   8  11
ATOM     11  C   LIG d   1       1.898  85.529 115.337  0.00  0.00     0.028 C 
ATOM     12  C   LIG d   1       1.187  85.981 114.051  0.00  0.00     0.006 C 
ENDBRANCH   8  11
ENDBRANCH   7   8
ENDBRANCH   1   7
BRANCH   6  13
ATOM     13  N   LIG d   1       3.093  90.282 117.250  0.00  0.00    -0.311 N 
ATOM     14  C   LIG d   1       4.072  90.426 116.359  0.00  0.00     0.210 C 
ATOM     15  C   LIG d   1       5.479  90.529 116.955  0.00  0.00     0.109 C 
ATOM     16  O   LIG d   1       3.906  90.510 115.133  0.00  0.00    -0.276 OA
ATOM     17  H   LIG d   1       3.315  90.256 118.226  0.00  0.00     0.149 HD
ENDBRANCH   6  13
BRANCH   5  18
ATOM     18  N   LIG d   1       0.976  92.452 117.630  0.00  0.00     0.381 N 
ATOM     19  H   LIG d   1       1.241  92.838 118.514  0.00  0.00    -0.090 HD
ATOM     20  H   LIG d   1       0.125  92.896 117.334  0.00  0.00    -0.090 HD
ATOM     21  H   LIG d   1       1.695  92.614 116.959  0.00  0.00    -0.090 HD
ENDBRANCH   5  18
BRANCH   3  22
ATOM     22  C   LIG d   1      -2.347  89.003 117.634  0.00  0.00     0.382 C 
ATOM     23  O   LIG d   1      -3.265  89.253 116.816  0.00  0.00    -0.241 OA
ATOM     24  O   LIG d   1      -2.624  88.461 118.721  0.00  0.00    -0.241 OA
ENDBRANCH   3  22
TORSDOF 7
ENDMDL
MODEL 8
REMARK VINA RESULT:      -4.2     26.778     29.420
REMARK  7 active torsions:
REMARK  status: ('A' for Active; 'I' for Inactive)
REMARK    1  A    between atoms: C_2  and  C_3 
REMARK    2  A    between atoms: C_3  and  O_6 
REMARK    3  A    between atoms: C_3  and  C_4 
REMARK    4  A    between atoms: C_7  and  O_6 
REMARK    5  A    between atoms: C_9  and  C_10 
REMARK    6  A    between atoms: N_15  and  C_14 
REMARK    7  A    between atoms: N_20  and  C_19 
REMARK       I    between atoms: C_22  and  N_20 
ROOT
ATOM      1  C   LIG d   1     -18.020  64.840 116.727  0.00  0.00     0.161 C 
ATOM      2  C   LIG d   1     -17.185  65.757 117.387  0.00  0.00     0.016 C 
ATOM      3  C   LIG d   1     -16.133  66.453 116.747  0.00  0.00     0.038 C 
ATOM      4  C   LIG d   1     -15.941  66.391 115.359  0.00  0.00     0.028 C 
ATOM      5  C   LIG d   1     -16.439  65.092 114.735  0.00  0.00    -0.047 C 
ATOM      6  C   LIG d   1     -17.896  64.844 115.189  0.00  0.00     0.091 C 
ENDROOT
BRANCH   1   7
ATOM      7  O   LIG d   1     -19.389  65.057 117.120  0.00  0.00    -0.368 OA
BRANCH   7   8
ATOM      8  C   LIG d   1     -20.089  66.123 116.433  0.00  0.00     0.119 C 
BRANCH   8   9
ATOM      9  C   LIG d   1     -20.537  67.144 117.497  0.00  0.00     0.028 C 
ATOM     10  C   LIG d   1     -19.590  68.351 117.587  0.00  0.00     0.006 C 
ENDBRANCH   8   9
BRANCH   8  11
ATOM     11  C   LIG d   1     -21.382  65.615 115.788  0.00  0.00     0.028 C 
ATOM     12  C   LIG d   1     -21.759  66.393 114.517  0.00  0.00     0.006 C 
ENDBRANCH   8  11
ENDBRANCH   7   8
ENDBRANCH   1   7
BRANCH   6  13
ATOM     13  N   LIG d   1     -18.432  63.550 114.692  0.00  0.00    -0.311 N 
ATOM     14  C   LIG d   1     -19.151  63.434 113.577  0.00  0.00     0.210 C 
ATOM     15  C   LIG d   1     -19.623  62.013 113.256  0.00  0.00     0.109 C 
ATOM     16  O   LIG d   1     -19.415  64.369 112.805  0.00  0.00    -0.276 OA
ATOM     17  H   LIG d   1     -18.238  62.735 115.240  0.00  0.00     0.149 HD
ENDBRANCH   6  13
BRANCH   5  18
ATOM     18  N   LIG d   1     -16.304  65.219 113.272  0.00  0.00     0.381 N 
ATOM     19  H   LIG d   1     -17.207  65.332 112.856  0.00  0.00    -0.090 HD
ATOM     20  H   LIG d   1     -15.893  64.377 112.909  0.00  0.00    -0.090 HD
ATOM     21  H   LIG d   1     -15.728  66.001 113.049  0.00  0.00    -0.090 HD
ENDBRANCH   5  18
BRANCH   3  22
ATOM     22  C   LIG d   1     -15.236  67.190 117.504  0.00  0.00     0.382 C 
ATOM     23  O   LIG d   1     -15.571  68.310 117.959  0.00  0.00    -0.241 OA
ATOM     24  O   LIG d   1     -14.080  66.769 117.701  0.00  0.00    -0.241 OA
ENDBRANCH   3  22
TORSDOF 7
ENDMDL
MODEL 9
REMARK VINA RESULT:      -4.1      5.904      8.909
REMARK  7 active torsions:
REMARK  status: ('A' for Active; 'I' for Inactive)
REMARK    1  A    between atoms: C_2  and  C_3 
REMARK    2  A    between atoms: C_3  and  O_6 
REMARK    3  A    between atoms: C_3  and  C_4 
REMARK    4  A    between atoms: C_7  and  O_6 
REMARK    5  A    between atoms: C_9  and  C_10 
REMARK    6  A    between atoms: N_15  and  C_14 
REMARK    7  A    between atoms: N_20  and  C_19 
REMARK       I    between atoms: C_22  and  N_20 
ROOT
ATOM      1  C   LIG d   1       2.390  89.707 116.759  0.00  0.00     0.161 C 
ATOM      2  C   LIG d   1       1.067  89.263 116.916  0.00  0.00     0.016 C 
ATOM      3  C   LIG d   1       0.143  89.867 117.800  0.00  0.00     0.038 C 
ATOM      4  C   LIG d   1       0.438  91.058 118.480  0.00  0.00     0.028 C 
ATOM      5  C   LIG d   1       1.928  91.255 118.738  0.00  0.00    -0.047 C 
ATOM      6  C   LIG d   1       2.696  91.072 117.410  0.00  0.00     0.091 C 
ENDROOT
BRANCH   1   7
ATOM      7  O   LIG d   1       2.735  89.730 115.360  0.00  0.00    -0.368 OA
BRANCH   7   8
ATOM      8  C   LIG d   1       3.776  88.811 114.945  0.00  0.00     0.119 C 
BRANCH   8   9
ATOM      9  C   LIG d   1       4.948  89.653 114.406  0.00  0.00     0.028 C 
ATOM     10  C   LIG d   1       5.806  88.882 113.389  0.00  0.00     0.006 C 
ENDBRANCH   8   9
BRANCH   8  11
ATOM     11  C   LIG d   1       3.320  87.949 113.764  0.00  0.00     0.028 C 
ATOM     12  C   LIG d   1       2.914  86.528 114.187  0.00  0.00     0.006 C 
ENDBRANCH   8  11
ENDBRANCH   7   8
ENDBRANCH   1   7
BRANCH   6  13
ATOM     13  N   LIG d   1       4.168  91.165 117.589  0.00  0.00    -0.311 N 
ATOM     14  C   LIG d   1       4.864  92.281 117.376  0.00  0.00     0.210 C 
ATOM     15  C   LIG d   1       6.374  92.155 117.600  0.00  0.00     0.109 C 
ATOM     16  O   LIG d   1       4.369  93.372 117.054  0.00  0.00    -0.276 OA
ATOM     17  H   LIG d   1       4.646  90.335 117.879  0.00  0.00     0.149 HD
ENDBRANCH   6  13
BRANCH   5  18
ATOM     18  N   LIG d   1       2.104  92.596 119.328  0.00  0.00     0.381 N 
ATOM     19  H   LIG d   1       2.904  92.599 119.930  0.00  0.00    -0.090 HD
ATOM     20  H   LIG d   1       1.294  92.817 119.880  0.00  0.00    -0.090 HD
ATOM     21  H   LIG d   1       2.219  93.273 118.607  0.00  0.00    -0.090 HD
ENDBRANCH   5  18
BRANCH   3  22
ATOM     22  C   LIG d   1      -1.078  89.256 118.041  0.00  0.00     0.382 C 
ATOM     23  O   LIG d   1      -1.945  89.209 117.136  0.00  0.00    -0.241 OA
ATOM     24  O   LIG d   1      -1.340  88.790 119.166  0.00  0.00    -0.241 OA
ENDBRANCH   3  22
TORSDOF 7
ENDMDL
