MODEL 1
REMARK VINA RESULT:      -5.3      0.000      0.000
REMARK  7 active torsions:
REMARK  status: ('A' for Active; 'I' for Inactive)
REMARK    1  A    between atoms: C_2  and  C_3 
REMARK    2  A    between atoms: C_3  and  O_6 
REMARK    3  A    between atoms: C_3  and  C_4 
REMARK    4  A    between atoms: C_7  and  O_6 
REMARK    5  A    between atoms: C_9  and  C_10 
REMARK    6  A    between atoms: N_15  and  C_14 
REMARK    7  A    between atoms: N_20  and  C_19 
REMARK       I    between atoms: C_22  and  N_20 
ROOT
ATOM      1  C   LIG d   1      -4.046  74.462 116.690  0.00  0.00     0.161 C 
ATOM      2  C   LIG d   1      -3.093  75.293 116.079  0.00  0.00     0.016 C 
ATOM      3  C   LIG d   1      -3.410  76.226 115.065  0.00  0.00     0.038 C 
ATOM      4  C   LIG d   1      -4.736  76.500 114.697  0.00  0.00     0.028 C 
ATOM      5  C   LIG d   1      -5.683  75.327 114.929  0.00  0.00    -0.047 C 
ATOM      6  C   LIG d   1      -5.514  74.825 116.381  0.00  0.00     0.091 C 
ENDROOT
BRANCH   1   7
ATOM      7  O   LIG d   1      -3.827  74.433 118.115  0.00  0.00    -0.368 OA
BRANCH   7   8
ATOM      8  C   LIG d   1      -2.487  74.759 118.560  0.00  0.00     0.119 C 
BRANCH   8   9
ATOM      9  C   LIG d   1      -1.976  73.571 119.398  0.00  0.00     0.028 C 
ATOM     10  C   LIG d   1      -0.454  73.383 119.283  0.00  0.00     0.006 C 
ENDBRANCH   8   9
BRANCH   8  11
ATOM     11  C   LIG d   1      -2.494  75.956 119.515  0.00  0.00     0.028 C 
ATOM     12  C   LIG d   1      -3.849  76.679 119.555  0.00  0.00     0.006 C 
ENDBRANCH   8  11
ENDBRANCH   7   8
ENDBRANCH   1   7
BRANCH   6  13
ATOM     13  N   LIG d   1      -6.343  73.625 116.666  0.00  0.00    -0.311 N 
ATOM     14  C   LIG d   1      -7.569  73.687 117.184  0.00  0.00     0.210 C 
ATOM     15  C   LIG d   1      -8.242  72.331 117.417  0.00  0.00     0.109 C 
ATOM     16  O   LIG d   1      -8.175  74.738 117.442  0.00  0.00    -0.276 OA
ATOM     17  H   LIG d   1      -5.941  72.732 116.458  0.00  0.00     0.149 HD
ENDBRANCH   6  13
BRANCH   5  18
ATOM     18  N   LIG d   1      -7.051  75.794 114.634  0.00  0.00     0.381 N 
ATOM     19  H   LIG d   1      -7.017  76.555 113.986  0.00  0.00    -0.090 HD
ATOM     20  H   LIG d   1      -7.472  76.123 115.485  0.00  0.00    -0.090 HD
ATOM     21  H   LIG d   1      -7.591  75.048 114.254  0.00  0.00    -0.090 HD
ENDBRANCH   5  18
BRANCH   3  22
ATOM     22  C   LIG d   1      -2.391  76.868 114.378  0.00  0.00     0.382 C 
ATOM     23  O   LIG d   1      -2.436  76.958 113.128  0.00  0.00    -0.241 OA
ATOM     24  O   LIG d   1      -1.404  77.320 114.990  0.00  0.00    -0.241 OA
ENDBRANCH   3  22
TORSDOF 7
ENDMDL
MODEL 2
REMARK VINA RESULT:      -5.2      3.965      4.970
REMARK  7 active torsions:
REMARK  status: ('A' for Active; 'I' for Inactive)
REMARK    1  A    between atoms: C_2  and  C_3 
REMARK    2  A    between atoms: C_3  and  O_6 
REMARK    3  A    between atoms: C_3  and  C_4 
REMARK    4  A    between atoms: C_7  and  O_6 
REMARK    5  A    between atoms: C_9  and  C_10 
REMARK    6  A    between atoms: N_15  and  C_14 
REMARK    7  A    between atoms: N_20  and  C_19 
REMARK       I    between atoms: C_22  and  N_20 
ROOT
ATOM      1  C   LIG d   1      -6.435  77.693 117.199  0.00  0.00     0.161 C 
ATOM      2  C   LIG d   1      -6.406  79.096 117.252  0.00  0.00     0.016 C 
ATOM      3  C   LIG d   1      -7.493  79.881 117.701  0.00  0.00     0.038 C 
ATOM      4  C   LIG d   1      -8.638  79.305 118.272  0.00  0.00     0.028 C 
ATOM      5  C   LIG d   1      -8.917  77.891 117.773  0.00  0.00    -0.047 C 
ATOM      6  C   LIG d   1      -7.633  77.043 117.922  0.00  0.00     0.091 C 
ENDROOT
BRANCH   1   7
ATOM      7  O   LIG d   1      -5.196  77.159 117.703  0.00  0.00    -0.368 OA
BRANCH   7   8
ATOM      8  C   LIG d   1      -4.394  76.407 116.759  0.00  0.00     0.119 C 
BRANCH   8   9
ATOM      9  C   LIG d   1      -5.120  76.449 115.400  0.00  0.00     0.028 C 
ATOM     10  C   LIG d   1      -5.289  75.050 114.782  0.00  0.00     0.006 C 
ENDBRANCH   8   9
BRANCH   8  11
ATOM     11  C   LIG d   1      -4.330  74.924 117.139  0.00  0.00     0.028 C 
ATOM     12  C   LIG d   1      -3.106  74.583 118.003  0.00  0.00     0.006 C 
ENDBRANCH   8  11
ENDBRANCH   7   8
ENDBRANCH   1   7
BRANCH   6  13
ATOM     13  N   LIG d   1      -7.795  75.669 117.379  0.00  0.00    -0.311 N 
ATOM     14  C   LIG d   1      -8.143  74.622 118.125  0.00  0.00     0.210 C 
ATOM     15  C   LIG d   1      -8.234  73.292 117.371  0.00  0.00     0.109 C 
ATOM     16  O   LIG d   1      -8.416  74.674 119.334  0.00  0.00    -0.276 OA
ATOM     17  H   LIG d   1      -7.624  75.542 116.401  0.00  0.00     0.149 HD
ENDBRANCH   6  13
BRANCH   5  18
ATOM     18  N   LIG d   1     -10.054  77.361 118.551  0.00  0.00     0.381 N 
ATOM     19  H   LIG d   1     -10.455  78.091 119.105  0.00  0.00    -0.090 HD
ATOM     20  H   LIG d   1      -9.718  76.643 119.169  0.00  0.00    -0.090 HD
ATOM     21  H   LIG d   1     -10.741  76.985 117.936  0.00  0.00    -0.090 HD
ENDBRANCH   5  18
BRANCH   3  22
ATOM     22  C   LIG d   1      -7.459  81.258 117.543  0.00  0.00     0.382 C 
ATOM     23  O   LIG d   1      -7.799  81.772 116.450  0.00  0.00    -0.241 OA
ATOM     24  O   LIG d   1      -7.048  81.990 118.464  0.00  0.00    -0.241 OA
ENDBRANCH   3  22
TORSDOF 7
ENDMDL
MODEL 3
REMARK VINA RESULT:      -4.8     13.499     15.665
REMARK  7 active torsions:
REMARK  status: ('A' for Active; 'I' for Inactive)
REMARK    1  A    between atoms: C_2  and  C_3 
REMARK    2  A    between atoms: C_3  and  O_6 
REMARK    3  A    between atoms: C_3  and  C_4 
REMARK    4  A    between atoms: C_7  and  O_6 
REMARK    5  A    between atoms: C_9  and  C_10 
REMARK    6  A    between atoms: N_15  and  C_14 
REMARK    7  A    between atoms: N_20  and  C_19 
REMARK       I    between atoms: C_22  and  N_20 
ROOT
ATOM      1  C   LIG d   1       2.426  88.828 116.353  0.00  0.00     0.161 C 
ATOM      2  C   LIG d   1       2.934  90.033 116.868  0.00  0.00     0.016 C 
ATOM      3  C   LIG d   1       4.080  90.679 116.351  0.00  0.00     0.038 C 
ATOM      4  C   LIG d   1       4.712  90.240 115.178  0.00  0.00     0.028 C 
ATOM      5  C   LIG d   1       4.539  88.747 114.918  0.00  0.00    -0.047 C 
ATOM      6  C   LIG d   1       3.037  88.394 115.004  0.00  0.00     0.091 C 
ENDROOT
BRANCH   1   7
ATOM      7  O   LIG d   1       0.991  88.908 116.251  0.00  0.00    -0.368 OA
BRANCH   7   8
ATOM      8  C   LIG d   1       0.241  88.337 117.351  0.00  0.00     0.119 C 
BRANCH   8   9
ATOM      9  C   LIG d   1      -0.259  86.951 116.902  0.00  0.00     0.028 C 
ATOM     10  C   LIG d   1       0.537  85.803 117.546  0.00  0.00     0.006 C 
ENDBRANCH   8   9
BRANCH   8  11
ATOM     11  C   LIG d   1      -1.024  89.149 117.644  0.00  0.00     0.028 C 
ATOM     12  C   LIG d   1      -2.302  88.297 117.602  0.00  0.00     0.006 C 
ENDBRANCH   8  11
ENDBRANCH   7   8
ENDBRANCH   1   7
BRANCH   6  13
ATOM     13  N   LIG d   1       2.787  86.937 114.846  0.00  0.00    -0.311 N 
ATOM     14  C   LIG d   1       1.896  86.435 113.992  0.00  0.00     0.210 C 
ATOM     15  C   LIG d   1       1.782  84.907 114.002  0.00  0.00     0.109 C 
ATOM     16  O   LIG d   1       1.213  87.107 113.205  0.00  0.00    -0.276 OA
ATOM     17  H   LIG d   1       3.321  86.318 115.423  0.00  0.00     0.149 HD
ENDBRANCH   6  13
BRANCH   5  18
ATOM     18  N   LIG d   1       5.128  88.453 113.598  0.00  0.00     0.381 N 
ATOM     19  H   LIG d   1       5.943  87.884 113.710  0.00  0.00    -0.090 HD
ATOM     20  H   LIG d   1       5.403  89.317 113.165  0.00  0.00    -0.090 HD
ATOM     21  H   LIG d   1       4.462  87.983 113.025  0.00  0.00    -0.090 HD
ENDBRANCH   5  18
BRANCH   3  22
ATOM     22  C   LIG d   1       4.629  91.754 117.032  0.00  0.00     0.382 C 
ATOM     23  O   LIG d   1       5.687  91.605 117.691  0.00  0.00    -0.241 OA
ATOM     24  O   LIG d   1       4.057  92.861 117.032  0.00  0.00    -0.241 OA
ENDBRANCH   3  22
TORSDOF 7
ENDMDL
MODEL 4
REMARK VINA RESULT:      -4.7     11.980     14.098
REMARK  7 active torsions:
REMARK  status: ('A' for Active; 'I' for Inactive)
REMARK    1  A    between atoms: C_2  and  C_3 
REMARK    2  A    between atoms: C_3  and  O_6 
REMARK    3  A    between atoms: C_3  and  C_4 
REMARK    4  A    between atoms: C_7  and  O_6 
REMARK    5  A    between atoms: C_9  and  C_10 
REMARK    6  A    between atoms: N_15  and  C_14 
REMARK    7  A    between atoms: N_20  and  C_19 
REMARK       I    between atoms: C_22  and  N_20 
ROOT
ATOM      1  C   LIG d   1       2.186  87.539 115.823  0.00  0.00     0.161 C 
ATOM      2  C   LIG d   1       2.859  88.557 115.126  0.00  0.00     0.016 C 
ATOM      3  C   LIG d   1       3.828  88.306 114.128  0.00  0.00     0.038 C 
ATOM      4  C   LIG d   1       4.083  87.012 113.650  0.00  0.00     0.028 C 
ATOM      5  C   LIG d   1       3.795  85.920 114.675  0.00  0.00    -0.047 C 
ATOM      6  C   LIG d   1       2.370  86.124 115.238  0.00  0.00     0.091 C 
ENDROOT
BRANCH   1   7
ATOM      7  O   LIG d   1       0.785  87.862 115.925  0.00  0.00    -0.368 OA
BRANCH   7   8
ATOM      8  C   LIG d   1       0.298  88.171 117.254  0.00  0.00     0.119 C 
BRANCH   8   9
ATOM      9  C   LIG d   1      -0.994  87.359 117.474  0.00  0.00     0.028 C 
ATOM     10  C   LIG d   1      -0.832  86.284 118.562  0.00  0.00     0.006 C 
ENDBRANCH   8   9
BRANCH   8  11
ATOM     11  C   LIG d   1      -0.123  89.639 117.366  0.00  0.00     0.028 C 
ATOM     12  C   LIG d   1       0.973  90.528 117.974  0.00  0.00     0.006 C 
ENDBRANCH   8  11
ENDBRANCH   7   8
ENDBRANCH   1   7
BRANCH   6  13
ATOM     13  N   LIG d   1       2.039  85.148 116.309  0.00  0.00    -0.311 N 
ATOM     14  C   LIG d   1       1.526  83.942 116.069  0.00  0.00     0.210 C 
ATOM     15  C   LIG d   1       1.240  83.101 117.317  0.00  0.00     0.109 C 
ATOM     16  O   LIG d   1       1.311  83.477 114.940  0.00  0.00    -0.276 OA
ATOM     17  H   LIG d   1       2.210  85.432 117.253  0.00  0.00     0.149 HD
ENDBRANCH   6  13
BRANCH   5  18
ATOM     18  N   LIG d   1       3.970  84.619 114.002  0.00  0.00     0.381 N 
ATOM     19  H   LIG d   1       4.779  84.156 114.365  0.00  0.00    -0.090 HD
ATOM     20  H   LIG d   1       4.113  84.778 113.020  0.00  0.00    -0.090 HD
ATOM     21  H   LIG d   1       3.163  84.052 114.140  0.00  0.00    -0.090 HD
ENDBRANCH   5  18
BRANCH   3  22
ATOM     22  C   LIG d   1       4.584  89.354 113.625  0.00  0.00     0.382 C 
ATOM     23  O   LIG d   1       5.750  89.144 113.211  0.00  0.00    -0.241 OA
ATOM     24  O   LIG d   1       4.131  90.514 113.621  0.00  0.00    -0.241 OA
ENDBRANCH   3  22
TORSDOF 7
ENDMDL
MODEL 5
REMARK VINA RESULT:      -4.5     13.543     16.047
REMARK  7 active torsions:
REMARK  status: ('A' for Active; 'I' for Inactive)
REMARK    1  A    between atoms: C_2  and  C_3 
REMARK    2  A    between atoms: C_3  and  O_6 
REMARK    3  A    between atoms: C_3  and  C_4 
REMARK    4  A    between atoms: C_7  and  O_6 
REMARK    5  A    between atoms: C_9  and  C_10 
REMARK    6  A    between atoms: N_15  and  C_14 
REMARK    7  A    between atoms: N_20  and  C_19 
REMARK       I    between atoms: C_22  and  N_20 
ROOT
ATOM      1  C   LIG d   1       1.562  88.631 116.630  0.00  0.00     0.161 C 
ATOM      2  C   LIG d   1       0.200  88.466 116.930  0.00  0.00     0.016 C 
ATOM      3  C   LIG d   1      -0.630  89.517 117.383  0.00  0.00     0.038 C 
ATOM      4  C   LIG d   1      -0.186  90.847 117.423  0.00  0.00     0.028 C 
ATOM      5  C   LIG d   1       1.321  90.977 117.612  0.00  0.00    -0.047 C 
ATOM      6  C   LIG d   1       2.036  90.097 116.561  0.00  0.00     0.091 C 
ENDROOT
BRANCH   1   7
ATOM      7  O   LIG d   1       1.879  87.944 115.403  0.00  0.00    -0.368 OA
BRANCH   7   8
ATOM      8  C   LIG d   1       2.483  86.634 115.543  0.00  0.00     0.119 C 
BRANCH   8   9
ATOM      9  C   LIG d   1       3.948  86.748 115.080  0.00  0.00     0.028 C 
ATOM     10  C   LIG d   1       4.069  87.252 113.632  0.00  0.00     0.006 C 
ENDBRANCH   8   9
BRANCH   8  11
ATOM     11  C   LIG d   1       1.836  85.618 114.597  0.00  0.00     0.028 C 
ATOM     12  C   LIG d   1       0.558  86.153 113.932  0.00  0.00     0.006 C 
ENDBRANCH   8  11
ENDBRANCH   7   8
ENDBRANCH   1   7
BRANCH   6  13
ATOM     13  N   LIG d   1       3.513  90.101 116.729  0.00  0.00    -0.311 N 
ATOM     14  C   LIG d   1       4.363  90.363 115.738  0.00  0.00     0.210 C 
ATOM     15  C   LIG d   1       5.845  90.295 116.122  0.00  0.00     0.109 C 
ATOM     16  O   LIG d   1       4.030  90.678 114.586  0.00  0.00    -0.276 OA
ATOM     17  H   LIG d   1       3.869  89.887 117.640  0.00  0.00     0.149 HD
ENDBRANCH   6  13
BRANCH   5  18
ATOM     18  N   LIG d   1       1.663  92.408 117.497  0.00  0.00     0.381 N 
ATOM     19  H   LIG d   1       2.373  92.641 118.162  0.00  0.00    -0.090 HD
ATOM     20  H   LIG d   1       0.846  92.955 117.704  0.00  0.00    -0.090 HD
ATOM     21  H   LIG d   1       1.982  92.609 116.575  0.00  0.00    -0.090 HD
ENDBRANCH   5  18
BRANCH   3  22
ATOM     22  C   LIG d   1      -1.908  89.235 117.840  0.00  0.00     0.382 C 
ATOM     23  O   LIG d   1      -2.452  88.143 117.548  0.00  0.00    -0.241 OA
ATOM     24  O   LIG d   1      -2.542  90.077 118.504  0.00  0.00    -0.241 OA
ENDBRANCH   3  22
TORSDOF 7
ENDMDL
MODEL 6
REMARK VINA RESULT:      -4.5     16.120     17.965
REMARK  7 active torsions:
REMARK  status: ('A' for Active; 'I' for Inactive)
REMARK    1  A    between atoms: C_2  and  C_3 
REMARK    2  A    between atoms: C_3  and  O_6 
REMARK    3  A    between atoms: C_3  and  C_4 
REMARK    4  A    between atoms: C_7  and  O_6 
REMARK    5  A    between atoms: C_9  and  C_10 
REMARK    6  A    between atoms: N_15  and  C_14 
REMARK    7  A    between atoms: N_20  and  C_19 
REMARK       I    between atoms: C_22  and  N_20 
ROOT
ATOM      1  C   LIG d   1       3.268  90.347 117.037  0.00  0.00     0.161 C 
ATOM      2  C   LIG d   1       3.076  89.753 115.778  0.00  0.00     0.016 C 
ATOM      3  C   LIG d   1       4.139  89.385 114.922  0.00  0.00     0.038 C 
ATOM      4  C   LIG d   1       5.479  89.449 115.332  0.00  0.00     0.028 C 
ATOM      5  C   LIG d   1       5.736  90.511 116.396  0.00  0.00    -0.047 C 
ATOM      6  C   LIG d   1       4.723  90.323 117.548  0.00  0.00     0.091 C 
ENDROOT
BRANCH   1   7
ATOM      7  O   LIG d   1       2.387  89.741 118.003  0.00  0.00    -0.368 OA
BRANCH   7   8
ATOM      8  C   LIG d   1       1.418  90.622 118.623  0.00  0.00     0.119 C 
BRANCH   8   9
ATOM      9  C   LIG d   1       0.085  89.855 118.712  0.00  0.00     0.028 C 
ATOM     10  C   LIG d   1      -0.736  89.952 117.415  0.00  0.00     0.006 C 
ENDBRANCH   8   9
BRANCH   8  11
ATOM     11  C   LIG d   1       1.127  91.840 117.741  0.00  0.00     0.028 C 
ATOM     12  C   LIG d   1       1.107  93.157 118.532  0.00  0.00     0.006 C 
ENDBRANCH   8  11
ENDBRANCH   7   8
ENDBRANCH   1   7
BRANCH   6  13
ATOM     13  N   LIG d   1       4.851  91.374 118.592  0.00  0.00    -0.311 N 
ATOM     14  C   LIG d   1       4.727  92.676 118.340  0.00  0.00     0.210 C 
ATOM     15  C   LIG d   1       4.915  93.590 119.555  0.00  0.00     0.109 C 
ATOM     16  O   LIG d   1       4.448  93.159 117.232  0.00  0.00    -0.276 OA
ATOM     17  H   LIG d   1       5.046  91.068 119.525  0.00  0.00     0.149 HD
ENDBRANCH   6  13
BRANCH   5  18
ATOM     18  N   LIG d   1       7.139  90.376 116.830  0.00  0.00     0.381 N 
ATOM     19  H   LIG d   1       7.665  89.889 116.132  0.00  0.00    -0.090 HD
ATOM     20  H   LIG d   1       7.166  89.837 117.678  0.00  0.00    -0.090 HD
ATOM     21  H   LIG d   1       7.535  91.276 116.988  0.00  0.00    -0.090 HD
ENDBRANCH   5  18
BRANCH   3  22
ATOM     22  C   LIG d   1       3.867  88.983 113.622  0.00  0.00     0.382 C 
ATOM     23  O   LIG d   1       4.759  88.429 112.938  0.00  0.00    -0.241 OA
ATOM     24  O   LIG d   1       2.753  89.209 113.112  0.00  0.00    -0.241 OA
ENDBRANCH   3  22
TORSDOF 7
ENDMDL
MODEL 7
REMARK VINA RESULT:      -4.4     11.811     14.327
REMARK  7 active torsions:
REMARK  status: ('A' for Active; 'I' for Inactive)
REMARK    1  A    between atoms: C_2  and  C_3 
REMARK    2  A    between atoms: C_3  and  O_6 
REMARK    3  A    between atoms: C_3  and  C_4 
REMARK    4  A    between atoms: C_7  and  O_6 
REMARK    5  A    between atoms: C_9  and  C_10 
REMARK    6  A    between atoms: N_15  and  C_14 
REMARK    7  A    between atoms: N_20  and  C_19 
REMARK       I    between atoms: C_22  and  N_20 
ROOT
ATOM      1  C   LIG d   1       3.615  85.906 115.291  0.00  0.00     0.161 C 
ATOM      2  C   LIG d   1       3.382  87.042 114.497  0.00  0.00     0.016 C 
ATOM      3  C   LIG d   1       4.087  88.257 114.652  0.00  0.00     0.038 C 
ATOM      4  C   LIG d   1       5.185  88.373 115.517  0.00  0.00     0.028 C 
ATOM      5  C   LIG d   1       5.131  87.408 116.697  0.00  0.00    -0.047 C 
ATOM      6  C   LIG d   1       4.884  85.978 116.165  0.00  0.00     0.091 C 
ENDROOT
BRANCH   1   7
ATOM      7  O   LIG d   1       3.642  84.728 114.463  0.00  0.00    -0.368 OA
BRANCH   7   8
ATOM      8  C   LIG d   1       2.603  83.749 114.711  0.00  0.00     0.119 C 
BRANCH   8   9
ATOM      9  C   LIG d   1       1.831  83.550 113.393  0.00  0.00     0.028 C 
ATOM     10  C   LIG d   1       0.798  84.662 113.144  0.00  0.00     0.006 C 
ENDBRANCH   8   9
BRANCH   8  11
ATOM     11  C   LIG d   1       1.570  84.275 115.711  0.00  0.00     0.028 C 
ATOM     12  C   LIG d   1       1.423  83.373 116.947  0.00  0.00     0.006 C 
ENDBRANCH   8  11
ENDBRANCH   7   8
ENDBRANCH   1   7
BRANCH   6  13
ATOM     13  N   LIG d   1       4.734  84.984 117.260  0.00  0.00    -0.311 N 
ATOM     14  C   LIG d   1       5.297  83.778 117.238  0.00  0.00     0.210 C 
ATOM     15  C   LIG d   1       4.997  82.902 118.458  0.00  0.00     0.109 C 
ATOM     16  O   LIG d   1       6.042  83.361 116.338  0.00  0.00    -0.276 OA
ATOM     17  H   LIG d   1       4.171  85.251 118.044  0.00  0.00     0.149 HD
ENDBRANCH   6  13
BRANCH   5  18
ATOM     18  N   LIG d   1       6.399  87.539 117.438  0.00  0.00     0.381 N 
ATOM     19  H   LIG d   1       7.157  87.211 116.874  0.00  0.00    -0.090 HD
ATOM     20  H   LIG d   1       6.353  86.970 118.265  0.00  0.00    -0.090 HD
ATOM     21  H   LIG d   1       6.550  88.491 117.690  0.00  0.00    -0.090 HD
ENDBRANCH   5  18
BRANCH   3  22
ATOM     22  C   LIG d   1       3.669  89.386 113.964  0.00  0.00     0.382 C 
ATOM     23  O   LIG d   1       4.164  90.506 114.237  0.00  0.00    -0.241 OA
ATOM     24  O   LIG d   1       2.771  89.306 113.105  0.00  0.00    -0.241 OA
ENDBRANCH   3  22
TORSDOF 7
ENDMDL
MODEL 8
REMARK VINA RESULT:      -4.4      3.436      5.437
REMARK  7 active torsions:
REMARK  status: ('A' for Active; 'I' for Inactive)
REMARK    1  A    between atoms: C_2  and  C_3 
REMARK    2  A    between atoms: C_3  and  O_6 
REMARK    3  A    between atoms: C_3  and  C_4 
REMARK    4  A    between atoms: C_7  and  O_6 
REMARK    5  A    between atoms: C_9  and  C_10 
REMARK    6  A    between atoms: N_15  and  C_14 
REMARK    7  A    between atoms: N_20  and  C_19 
REMARK       I    between atoms: C_22  and  N_20 
ROOT
ATOM      1  C   LIG d   1      -2.835  77.624 117.286  0.00  0.00     0.161 C 
ATOM      2  C   LIG d   1      -3.798  76.819 116.655  0.00  0.00     0.016 C 
ATOM      3  C   LIG d   1      -3.861  76.634 115.255  0.00  0.00     0.038 C 
ATOM      4  C   LIG d   1      -2.866  77.125 114.397  0.00  0.00     0.028 C 
ATOM      5  C   LIG d   1      -2.158  78.363 114.936  0.00  0.00    -0.047 C 
ATOM      6  C   LIG d   1      -1.674  78.078 116.376  0.00  0.00     0.091 C 
ENDROOT
BRANCH   1   7
ATOM      7  O   LIG d   1      -2.322  76.950 118.452  0.00  0.00    -0.368 OA
BRANCH   7   8
ATOM      8  C   LIG d   1      -1.849  75.595 118.249  0.00  0.00     0.119 C 
BRANCH   8   9
ATOM      9  C   LIG d   1      -2.441  74.725 119.375  0.00  0.00     0.028 C 
ATOM     10  C   LIG d   1      -1.831  73.313 119.406  0.00  0.00     0.006 C 
ENDBRANCH   8   9
BRANCH   8  11
ATOM     11  C   LIG d   1      -0.330  75.504 118.422  0.00  0.00     0.028 C 
ATOM     12  C   LIG d   1       0.196  76.399 119.555  0.00  0.00     0.006 C 
ENDBRANCH   8  11
ENDBRANCH   7   8
ENDBRANCH   1   7
BRANCH   6  13
ATOM     13  N   LIG d   1      -1.045  79.266 117.008  0.00  0.00    -0.311 N 
ATOM     14  C   LIG d   1       0.258  79.352 117.273  0.00  0.00     0.210 C 
ATOM     15  C   LIG d   1       0.697  80.656 117.946  0.00  0.00     0.109 C 
ATOM     16  O   LIG d   1       1.097  78.485 116.985  0.00  0.00    -0.276 OA
ATOM     17  H   LIG d   1      -1.647  80.029 117.246  0.00  0.00     0.149 HD
ENDBRANCH   6  13
BRANCH   5  18
ATOM     18  N   LIG d   1      -1.057  78.686 114.009  0.00  0.00     0.381 N 
ATOM     19  H   LIG d   1      -0.999  79.677 113.883  0.00  0.00    -0.090 HD
ATOM     20  H   LIG d   1      -1.249  78.265 113.117  0.00  0.00    -0.090 HD
ATOM     21  H   LIG d   1      -0.195  78.339 114.369  0.00  0.00    -0.090 HD
ENDBRANCH   5  18
BRANCH   3  22
ATOM     22  C   LIG d   1      -4.952  75.985 114.697  0.00  0.00     0.382 C 
ATOM     23  O   LIG d   1      -4.825  74.820 114.247  0.00  0.00    -0.241 OA
ATOM     24  O   LIG d   1      -6.049  76.565 114.597  0.00  0.00    -0.241 OA
ENDBRANCH   3  22
TORSDOF 7
ENDMDL
MODEL 9
REMARK VINA RESULT:      -4.3     13.298     16.054
REMARK  7 active torsions:
REMARK  status: ('A' for Active; 'I' for Inactive)
REMARK    1  A    between atoms: C_2  and  C_3 
REMARK    2  A    between atoms: C_3  and  O_6 
REMARK    3  A    between atoms: C_3  and  C_4 
REMARK    4  A    between atoms: C_7  and  O_6 
REMARK    5  A    between atoms: C_9  and  C_10 
REMARK    6  A    between atoms: N_15  and  C_14 
REMARK    7  A    between atoms: N_20  and  C_19 
REMARK       I    between atoms: C_22  and  N_20 
ROOT
ATOM      1  C   LIG d   1      10.539  76.272 115.959  0.00  0.00     0.161 C 
ATOM      2  C   LIG d   1       9.198  76.621 115.727  0.00  0.00     0.016 C 
ATOM      3  C   LIG d   1       8.787  77.921 115.352  0.00  0.00     0.038 C 
ATOM      4  C   LIG d   1       9.710  78.928 115.035  0.00  0.00     0.028 C 
ATOM      5  C   LIG d   1      11.051  78.766 115.743  0.00  0.00    -0.047 C 
ATOM      6  C   LIG d   1      11.570  77.328 115.510  0.00  0.00     0.091 C 
ENDROOT
BRANCH   1   7
ATOM      7  O   LIG d   1      10.825  75.000 115.345  0.00  0.00    -0.368 OA
BRANCH   7   8
ATOM      8  C   LIG d   1      11.085  73.899 116.251  0.00  0.00     0.119 C 
BRANCH   8   9
ATOM      9  C   LIG d   1      12.364  73.191 115.764  0.00  0.00     0.028 C 
ATOM     10  C   LIG d   1      12.962  73.854 114.512  0.00  0.00     0.006 C 
ENDBRANCH   8   9
BRANCH   8  11
ATOM     11  C   LIG d   1       9.981  72.841 116.172  0.00  0.00     0.028 C 
ATOM     12  C   LIG d   1       9.540  72.545 114.730  0.00  0.00     0.006 C 
ENDBRANCH   8  11
ENDBRANCH   7   8
ENDBRANCH   1   7
BRANCH   6  13
ATOM     13  N   LIG d   1      12.837  77.059 116.239  0.00  0.00    -0.311 N 
ATOM     14  C   LIG d   1      14.042  77.187 115.686  0.00  0.00     0.210 C 
ATOM     15  C   LIG d   1      15.216  76.840 116.607  0.00  0.00     0.109 C 
ATOM     16  O   LIG d   1      14.251  77.587 114.531  0.00  0.00    -0.276 OA
ATOM     17  H   LIG d   1      12.760  76.759 117.191  0.00  0.00     0.149 HD
ENDBRANCH   6  13
BRANCH   5  18
ATOM     18  N   LIG d   1      11.961  79.801 115.217  0.00  0.00     0.381 N 
ATOM     19  H   LIG d   1      12.832  79.767 115.707  0.00  0.00    -0.090 HD
ATOM     20  H   LIG d   1      11.548  80.705 115.371  0.00  0.00    -0.090 HD
ATOM     21  H   LIG d   1      12.113  79.659 114.243  0.00  0.00    -0.090 HD
ENDBRANCH   5  18
BRANCH   3  22
ATOM     22  C   LIG d   1       7.436  78.235 115.330  0.00  0.00     0.382 C 
ATOM     23  O   LIG d   1       7.027  79.284 115.882  0.00  0.00    -0.241 OA
ATOM     24  O   LIG d   1       6.616  77.459 114.803  0.00  0.00    -0.241 OA
ENDBRANCH   3  22
TORSDOF 7
ENDMDL
