MODEL 1
REMARK VINA RESULT:      -5.0      0.000      0.000
REMARK  7 active torsions:
REMARK  status: ('A' for Active; 'I' for Inactive)
REMARK    1  A    between atoms: C_2  and  C_3 
REMARK    2  A    between atoms: C_3  and  O_6 
REMARK    3  A    between atoms: C_3  and  C_4 
REMARK    4  A    between atoms: C_7  and  O_6 
REMARK    5  A    between atoms: C_9  and  C_10 
REMARK    6  A    between atoms: N_15  and  C_14 
REMARK    7  A    between atoms: N_20  and  C_19 
REMARK       I    between atoms: C_22  and  N_20 
ROOT
ATOM      1  C   LIG d   1      -3.698  76.140 116.518  0.00  0.00     0.161 C 
ATOM      2  C   LIG d   1      -3.925  77.232 115.665  0.00  0.00     0.016 C 
ATOM      3  C   LIG d   1      -2.903  77.856 114.911  0.00  0.00     0.038 C 
ATOM      4  C   LIG d   1      -1.605  77.329 114.844  0.00  0.00     0.028 C 
ATOM      5  C   LIG d   1      -1.211  76.529 116.082  0.00  0.00    -0.047 C 
ATOM      6  C   LIG d   1      -2.310  75.482 116.373  0.00  0.00     0.091 C 
ENDROOT
BRANCH   1   7
ATOM      7  O   LIG d   1      -4.739  75.158 116.342  0.00  0.00    -0.368 OA
BRANCH   7   8
ATOM      8  C   LIG d   1      -5.728  75.081 117.397  0.00  0.00     0.119 C 
BRANCH   8   9
ATOM      9  C   LIG d   1      -5.487  73.766 118.163  0.00  0.00     0.028 C 
ATOM     10  C   LIG d   1      -6.192  72.567 117.506  0.00  0.00     0.006 C 
ENDBRANCH   8   9
BRANCH   8  11
ATOM     11  C   LIG d   1      -7.145  74.964 116.826  0.00  0.00     0.028 C 
ATOM     12  C   LIG d   1      -7.347  75.808 115.557  0.00  0.00     0.006 C 
ENDBRANCH   8  11
ENDBRANCH   7   8
ENDBRANCH   1   7
BRANCH   6  13
ATOM     13  N   LIG d   1      -2.045  74.713 117.617  0.00  0.00    -0.311 N 
ATOM     14  C   LIG d   1      -1.403  73.546 117.634  0.00  0.00     0.210 C 
ATOM     15  C   LIG d   1      -1.253  72.911 119.020  0.00  0.00     0.109 C 
ATOM     16  O   LIG d   1      -0.915  72.992 116.637  0.00  0.00    -0.276 OA
ATOM     17  H   LIG d   1      -2.379  75.105 118.476  0.00  0.00     0.149 HD
ENDBRANCH   6  13
BRANCH   5  18
ATOM     18  N   LIG d   1       0.109  75.925 115.820  0.00  0.00     0.381 N 
ATOM     19  H   LIG d   1       0.628  75.862 116.674  0.00  0.00    -0.090 HD
ATOM     20  H   LIG d   1       0.617  76.515 115.185  0.00  0.00    -0.090 HD
ATOM     21  H   LIG d   1      -0.004  75.018 115.425  0.00  0.00    -0.090 HD
ENDBRANCH   5  18
BRANCH   3  22
ATOM     22  C   LIG d   1      -3.168  79.043 114.245  0.00  0.00     0.382 C 
ATOM     23  O   LIG d   1      -3.452  80.077 114.896  0.00  0.00    -0.241 OA
ATOM     24  O   LIG d   1      -3.169  79.082 113.000  0.00  0.00    -0.241 OA
ENDBRANCH   3  22
TORSDOF 7
ENDMDL
MODEL 2
REMARK VINA RESULT:      -4.9      2.442      5.950
REMARK  7 active torsions:
REMARK  status: ('A' for Active; 'I' for Inactive)
REMARK    1  A    between atoms: C_2  and  C_3 
REMARK    2  A    between atoms: C_3  and  O_6 
REMARK    3  A    between atoms: C_3  and  C_4 
REMARK    4  A    between atoms: C_7  and  O_6 
REMARK    5  A    between atoms: C_9  and  C_10 
REMARK    6  A    between atoms: N_15  and  C_14 
REMARK    7  A    between atoms: N_20  and  C_19 
REMARK       I    between atoms: C_22  and  N_20 
ROOT
ATOM      1  C   LIG d   1      -4.416  74.734 117.784  0.00  0.00     0.161 C 
ATOM      2  C   LIG d   1      -4.868  73.407 117.694  0.00  0.00     0.016 C 
ATOM      3  C   LIG d   1      -5.867  72.986 116.785  0.00  0.00     0.038 C 
ATOM      4  C   LIG d   1      -6.376  73.839 115.795  0.00  0.00     0.028 C 
ATOM      5  C   LIG d   1      -6.317  75.314 116.178  0.00  0.00    -0.047 C 
ATOM      6  C   LIG d   1      -4.881  75.656 116.637  0.00  0.00     0.091 C 
ENDROOT
BRANCH   1   7
ATOM      7  O   LIG d   1      -2.979  74.755 117.892  0.00  0.00    -0.368 OA
BRANCH   7   8
ATOM      8  C   LIG d   1      -2.248  74.210 116.767  0.00  0.00     0.119 C 
BRANCH   8   9
ATOM      9  C   LIG d   1      -1.097  73.356 117.332  0.00  0.00     0.028 C 
ATOM     10  C   LIG d   1      -1.275  73.047 118.828  0.00  0.00     0.006 C 
ENDBRANCH   8   9
BRANCH   8  11
ATOM     11  C   LIG d   1      -1.570  75.317 115.954  0.00  0.00     0.028 C 
ATOM     12  C   LIG d   1      -1.024  76.453 116.834  0.00  0.00     0.006 C 
ENDBRANCH   8  11
ENDBRANCH   7   8
ENDBRANCH   1   7
BRANCH   6  13
ATOM     13  N   LIG d   1      -4.756  77.060 117.109  0.00  0.00    -0.311 N 
ATOM     14  C   LIG d   1      -4.356  78.062 116.329  0.00  0.00     0.210 C 
ATOM     15  C   LIG d   1      -4.278  79.427 117.020  0.00  0.00     0.109 C 
ATOM     16  O   LIG d   1      -4.090  77.957 115.122  0.00  0.00    -0.276 OA
ATOM     17  H   LIG d   1      -4.982  77.240 118.068  0.00  0.00     0.149 HD
ENDBRANCH   6  13
BRANCH   5  18
ATOM     18  N   LIG d   1      -6.750  76.096 115.005  0.00  0.00     0.381 N 
ATOM     19  H   LIG d   1      -6.551  77.066 115.152  0.00  0.00    -0.090 HD
ATOM     20  H   LIG d   1      -7.743  75.992 114.893  0.00  0.00    -0.090 HD
ATOM     21  H   LIG d   1      -6.281  75.773 114.187  0.00  0.00    -0.090 HD
ENDBRANCH   5  18
BRANCH   3  22
ATOM     22  C   LIG d   1      -6.394  71.707 116.888  0.00  0.00     0.382 C 
ATOM     23  O   LIG d   1      -6.555  71.185 118.017  0.00  0.00    -0.241 OA
ATOM     24  O   LIG d   1      -6.670  71.053 115.865  0.00  0.00    -0.241 OA
ENDBRANCH   3  22
TORSDOF 7
ENDMDL
MODEL 3
REMARK VINA RESULT:      -4.8     11.914     14.332
REMARK  7 active torsions:
REMARK  status: ('A' for Active; 'I' for Inactive)
REMARK    1  A    between atoms: C_2  and  C_3 
REMARK    2  A    between atoms: C_3  and  O_6 
REMARK    3  A    between atoms: C_3  and  C_4 
REMARK    4  A    between atoms: C_7  and  O_6 
REMARK    5  A    between atoms: C_9  and  C_10 
REMARK    6  A    between atoms: N_15  and  C_14 
REMARK    7  A    between atoms: N_20  and  C_19 
REMARK       I    between atoms: C_22  and  N_20 
ROOT
ATOM      1  C   LIG d   1      10.077  79.416 115.469  0.00  0.00     0.161 C 
ATOM      2  C   LIG d   1      11.311  79.568 114.814  0.00  0.00     0.016 C 
ATOM      3  C   LIG d   1      11.884  78.569 113.994  0.00  0.00     0.038 C 
ATOM      4  C   LIG d   1      11.187  77.401 113.650  0.00  0.00     0.028 C 
ATOM      5  C   LIG d   1      10.155  76.983 114.692  0.00  0.00    -0.047 C 
ATOM      6  C   LIG d   1       9.251  78.194 115.017  0.00  0.00     0.091 C 
ENDROOT
BRANCH   1   7
ATOM      7  O   LIG d   1       9.301  80.623 115.335  0.00  0.00    -0.368 OA
BRANCH   7   8
ATOM      8  C   LIG d   1       9.566  81.663 116.309  0.00  0.00     0.119 C 
BRANCH   8   9
ATOM      9  C   LIG d   1       9.567  81.003 117.702  0.00  0.00     0.028 C 
ATOM     10  C   LIG d   1       8.153  80.879 118.294  0.00  0.00     0.006 C 
ENDBRANCH   8   9
BRANCH   8  11
ATOM     11  C   LIG d   1       8.432  82.691 116.349  0.00  0.00     0.028 C 
ATOM     12  C   LIG d   1       8.934  84.138 116.217  0.00  0.00     0.006 C 
ENDBRANCH   8  11
ENDBRANCH   7   8
ENDBRANCH   1   7
BRANCH   6  13
ATOM     13  N   LIG d   1       8.266  77.895 116.090  0.00  0.00    -0.311 N 
ATOM     14  C   LIG d   1       7.054  77.396 115.854  0.00  0.00     0.210 C 
ATOM     15  C   LIG d   1       6.190  77.181 117.100  0.00  0.00     0.109 C 
ATOM     16  O   LIG d   1       6.625  77.080 114.734  0.00  0.00    -0.276 OA
ATOM     17  H   LIG d   1       8.544  78.091 117.031  0.00  0.00     0.149 HD
ENDBRANCH   6  13
BRANCH   5  18
ATOM     18  N   LIG d   1       9.409  75.835 114.144  0.00  0.00     0.381 N 
ATOM     19  H   LIG d   1       8.653  76.162 113.576  0.00  0.00    -0.090 HD
ATOM     20  H   LIG d   1       9.024  75.304 114.906  0.00  0.00    -0.090 HD
ATOM     21  H   LIG d   1      10.017  75.260 113.603  0.00  0.00    -0.090 HD
ENDBRANCH   5  18
BRANCH   3  22
ATOM     22  C   LIG d   1      13.187  78.716 113.541  0.00  0.00     0.382 C 
ATOM     23  O   LIG d   1      13.489  79.687 112.806  0.00  0.00    -0.241 OA
ATOM     24  O   LIG d   1      14.053  77.866 113.822  0.00  0.00    -0.241 OA
ENDBRANCH   3  22
TORSDOF 7
ENDMDL
MODEL 4
REMARK VINA RESULT:      -4.6      4.130      5.915
REMARK  7 active torsions:
REMARK  status: ('A' for Active; 'I' for Inactive)
REMARK    1  A    between atoms: C_2  and  C_3 
REMARK    2  A    between atoms: C_3  and  O_6 
REMARK    3  A    between atoms: C_3  and  C_4 
REMARK    4  A    between atoms: C_7  and  O_6 
REMARK    5  A    between atoms: C_9  and  C_10 
REMARK    6  A    between atoms: N_15  and  C_14 
REMARK    7  A    between atoms: N_20  and  C_19 
REMARK       I    between atoms: C_22  and  N_20 
ROOT
ATOM      1  C   LIG d   1      -6.612  77.637 117.756  0.00  0.00     0.161 C 
ATOM      2  C   LIG d   1      -7.946  77.812 118.161  0.00  0.00     0.016 C 
ATOM      3  C   LIG d   1      -8.534  79.080 118.374  0.00  0.00     0.038 C 
ATOM      4  C   LIG d   1      -7.868  80.271 118.048  0.00  0.00     0.028 C 
ATOM      5  C   LIG d   1      -6.349  80.153 118.116  0.00  0.00    -0.047 C 
ATOM      6  C   LIG d   1      -5.903  78.925 117.289  0.00  0.00     0.091 C 
ENDROOT
BRANCH   1   7
ATOM      7  O   LIG d   1      -6.541  76.626 116.731  0.00  0.00    -0.368 OA
BRANCH   7   8
ATOM      8  C   LIG d   1      -6.206  75.289 117.177  0.00  0.00     0.119 C 
BRANCH   8   9
ATOM      9  C   LIG d   1      -4.845  74.922 116.554  0.00  0.00     0.028 C 
ATOM     10  C   LIG d   1      -4.760  75.297 115.065  0.00  0.00     0.006 C 
ENDBRANCH   8   9
BRANCH   8  11
ATOM     11  C   LIG d   1      -7.194  74.255 116.630  0.00  0.00     0.028 C 
ATOM     12  C   LIG d   1      -6.829  72.815 117.024  0.00  0.00     0.006 C 
ENDBRANCH   8  11
ENDBRANCH   7   8
ENDBRANCH   1   7
BRANCH   6  13
ATOM     13  N   LIG d   1      -4.439  78.688 117.371  0.00  0.00    -0.311 N 
ATOM     14  C   LIG d   1      -3.567  79.171 116.488  0.00  0.00     0.210 C 
ATOM     15  C   LIG d   1      -2.106  78.791 116.747  0.00  0.00     0.109 C 
ATOM     16  O   LIG d   1      -3.862  79.905 115.532  0.00  0.00    -0.276 OA
ATOM     17  H   LIG d   1      -4.109  78.129 118.134  0.00  0.00     0.149 HD
ENDBRANCH   6  13
BRANCH   5  18
ATOM     18  N   LIG d   1      -5.781  81.421 117.621  0.00  0.00     0.381 N 
ATOM     19  H   LIG d   1      -4.803  81.458 117.828  0.00  0.00    -0.090 HD
ATOM     20  H   LIG d   1      -6.232  82.185 118.092  0.00  0.00    -0.090 HD
ATOM     21  H   LIG d   1      -5.923  81.497 116.638  0.00  0.00    -0.090 HD
ENDBRANCH   5  18
BRANCH   3  22
ATOM     22  C   LIG d   1      -9.790  79.166 118.956  0.00  0.00     0.382 C 
ATOM     23  O   LIG d   1     -10.600  78.214 118.842  0.00  0.00    -0.241 OA
ATOM     24  O   LIG d   1     -10.139  80.201 119.555  0.00  0.00    -0.241 OA
ENDBRANCH   3  22
TORSDOF 7
ENDMDL
MODEL 5
REMARK VINA RESULT:      -4.5     13.711     16.144
REMARK  7 active torsions:
REMARK  status: ('A' for Active; 'I' for Inactive)
REMARK    1  A    between atoms: C_2  and  C_3 
REMARK    2  A    between atoms: C_3  and  O_6 
REMARK    3  A    between atoms: C_3  and  C_4 
REMARK    4  A    between atoms: C_7  and  O_6 
REMARK    5  A    between atoms: C_9  and  C_10 
REMARK    6  A    between atoms: N_15  and  C_14 
REMARK    7  A    between atoms: N_20  and  C_19 
REMARK       I    between atoms: C_22  and  N_20 
ROOT
ATOM      1  C   LIG d   1      11.911  75.593 114.846  0.00  0.00     0.161 C 
ATOM      2  C   LIG d   1      10.526  75.604 114.608  0.00  0.00     0.016 C 
ATOM      3  C   LIG d   1       9.802  76.774 114.282  0.00  0.00     0.038 C 
ATOM      4  C   LIG d   1      10.444  77.994 114.022  0.00  0.00     0.028 C 
ATOM      5  C   LIG d   1      11.779  78.142 114.743  0.00  0.00    -0.047 C 
ATOM      6  C   LIG d   1      12.644  76.893 114.458  0.00  0.00     0.091 C 
ENDROOT
BRANCH   1   7
ATOM      7  O   LIG d   1      12.511  74.462 114.184  0.00  0.00    -0.368 OA
BRANCH   7   8
ATOM      8  C   LIG d   1      12.908  73.360 115.037  0.00  0.00     0.119 C 
BRANCH   8   9
ATOM      9  C   LIG d   1      14.439  73.221 114.931  0.00  0.00     0.028 C 
ATOM     10  C   LIG d   1      14.984  73.740 113.590  0.00  0.00     0.006 C 
ENDBRANCH   8   9
BRANCH   8  11
ATOM     11  C   LIG d   1      12.343  72.031 114.529  0.00  0.00     0.028 C 
ATOM     12  C   LIG d   1      10.874  71.817 114.924  0.00  0.00     0.006 C 
ENDBRANCH   8  11
ENDBRANCH   7   8
ENDBRANCH   1   7
BRANCH   6  13
ATOM     13  N   LIG d   1      13.935  76.918 115.194  0.00  0.00    -0.311 N 
ATOM     14  C   LIG d   1      15.078  77.342 114.657  0.00  0.00     0.210 C 
ATOM     15  C   LIG d   1      16.296  77.265 115.582  0.00  0.00     0.109 C 
ATOM     16  O   LIG d   1      15.192  77.803 113.511  0.00  0.00    -0.276 OA
ATOM     17  H   LIG d   1      13.927  76.590 116.140  0.00  0.00     0.149 HD
ENDBRANCH   6  13
BRANCH   5  18
ATOM     18  N   LIG d   1      12.402  79.396 114.276  0.00  0.00     0.381 N 
ATOM     19  H   LIG d   1      11.954  80.178 114.710  0.00  0.00    -0.090 HD
ATOM     20  H   LIG d   1      12.274  79.471 113.282  0.00  0.00    -0.090 HD
ATOM     21  H   LIG d   1      13.374  79.396 114.494  0.00  0.00    -0.090 HD
ENDBRANCH   5  18
BRANCH   3  22
ATOM     22  C   LIG d   1       8.417  76.739 114.252  0.00  0.00     0.382 C 
ATOM     23  O   LIG d   1       7.824  75.703 113.866  0.00  0.00    -0.241 OA
ATOM     24  O   LIG d   1       7.752  77.745 114.565  0.00  0.00    -0.241 OA
ENDBRANCH   3  22
TORSDOF 7
ENDMDL
MODEL 6
REMARK VINA RESULT:      -4.5      5.274      7.460
REMARK  7 active torsions:
REMARK  status: ('A' for Active; 'I' for Inactive)
REMARK    1  A    between atoms: C_2  and  C_3 
REMARK    2  A    between atoms: C_3  and  O_6 
REMARK    3  A    between atoms: C_3  and  C_4 
REMARK    4  A    between atoms: C_7  and  O_6 
REMARK    5  A    between atoms: C_9  and  C_10 
REMARK    6  A    between atoms: N_15  and  C_14 
REMARK    7  A    between atoms: N_20  and  C_19 
REMARK       I    between atoms: C_22  and  N_20 
ROOT
ATOM      1  C   LIG d   1      -6.506  79.497 117.946  0.00  0.00     0.161 C 
ATOM      2  C   LIG d   1      -7.809  79.021 118.167  0.00  0.00     0.016 C 
ATOM      3  C   LIG d   1      -8.888  79.852 118.547  0.00  0.00     0.038 C 
ATOM      4  C   LIG d   1      -8.769  81.249 118.585  0.00  0.00     0.028 C 
ATOM      5  C   LIG d   1      -7.348  81.729 118.861  0.00  0.00    -0.047 C 
ATOM      6  C   LIG d   1      -6.383  81.033 117.874  0.00  0.00     0.091 C 
ENDROOT
BRANCH   1   7
ATOM      7  O   LIG d   1      -5.961  78.894 116.756  0.00  0.00    -0.368 OA
BRANCH   7   8
ATOM      8  C   LIG d   1      -5.286  77.625 116.936  0.00  0.00     0.119 C 
BRANCH   8   9
ATOM      9  C   LIG d   1      -3.770  77.898 116.897  0.00  0.00     0.028 C 
ATOM     10  C   LIG d   1      -3.386  78.930 115.824  0.00  0.00     0.006 C 
ENDBRANCH   8   9
BRANCH   8  11
ATOM     11  C   LIG d   1      -5.558  76.678 115.763  0.00  0.00     0.028 C 
ATOM     12  C   LIG d   1      -5.347  75.200 116.130  0.00  0.00     0.006 C 
ENDBRANCH   8  11
ENDBRANCH   7   8
ENDBRANCH   1   7
BRANCH   6  13
ATOM     13  N   LIG d   1      -4.961  81.383 118.131  0.00  0.00    -0.311 N 
ATOM     14  C   LIG d   1      -4.291  82.292 117.425  0.00  0.00     0.210 C 
ATOM     15  C   LIG d   1      -2.830  82.485 117.842  0.00  0.00     0.109 C 
ATOM     16  O   LIG d   1      -4.778  82.980 116.515  0.00  0.00    -0.276 OA
ATOM     17  H   LIG d   1      -4.498  80.894 118.872  0.00  0.00     0.149 HD
ENDBRANCH   6  13
BRANCH   5  18
ATOM     18  N   LIG d   1      -7.342  83.199 118.736  0.00  0.00     0.381 N 
ATOM     19  H   LIG d   1      -7.737  83.611 119.558  0.00  0.00    -0.090 HD
ATOM     20  H   LIG d   1      -7.909  83.461 117.949  0.00  0.00    -0.090 HD
ATOM     21  H   LIG d   1      -6.410  83.526 118.607  0.00  0.00    -0.090 HD
ENDBRANCH   5  18
BRANCH   3  22
ATOM     22  C   LIG d   1     -10.092  79.283 118.933  0.00  0.00     0.382 C 
ATOM     23  O   LIG d   1     -10.355  78.097 118.616  0.00  0.00    -0.241 OA
ATOM     24  O   LIG d   1     -10.937  79.953 119.555  0.00  0.00    -0.241 OA
ENDBRANCH   3  22
TORSDOF 7
ENDMDL
MODEL 7
REMARK VINA RESULT:      -4.4      2.434      3.399
REMARK  7 active torsions:
REMARK  status: ('A' for Active; 'I' for Inactive)
REMARK    1  A    between atoms: C_2  and  C_3 
REMARK    2  A    between atoms: C_3  and  O_6 
REMARK    3  A    between atoms: C_3  and  C_4 
REMARK    4  A    between atoms: C_7  and  O_6 
REMARK    5  A    between atoms: C_9  and  C_10 
REMARK    6  A    between atoms: N_15  and  C_14 
REMARK    7  A    between atoms: N_20  and  C_19 
REMARK       I    between atoms: C_22  and  N_20 
ROOT
ATOM      1  C   LIG d   1      -3.564  78.797 116.157  0.00  0.00     0.161 C 
ATOM      2  C   LIG d   1      -3.448  80.133 115.740  0.00  0.00     0.016 C 
ATOM      3  C   LIG d   1      -2.701  80.534 114.609  0.00  0.00     0.038 C 
ATOM      4  C   LIG d   1      -2.138  79.602 113.724  0.00  0.00     0.028 C 
ATOM      5  C   LIG d   1      -1.803  78.267 114.382  0.00  0.00    -0.047 C 
ATOM      6  C   LIG d   1      -3.049  77.756 115.141  0.00  0.00     0.091 C 
ENDROOT
BRANCH   1   7
ATOM      7  O   LIG d   1      -4.931  78.513 116.516  0.00  0.00    -0.368 OA
BRANCH   7   8
ATOM      8  C   LIG d   1      -5.151  78.047 117.870  0.00  0.00     0.119 C 
BRANCH   8   9
ATOM      9  C   LIG d   1      -6.110  76.844 117.795  0.00  0.00     0.028 C 
ATOM     10  C   LIG d   1      -6.817  76.741 116.433  0.00  0.00     0.006 C 
ENDBRANCH   8   9
BRANCH   8  11
ATOM     11  C   LIG d   1      -5.883  79.098 118.709  0.00  0.00     0.028 C 
ATOM     12  C   LIG d   1      -6.563  80.177 117.852  0.00  0.00     0.006 C 
ENDBRANCH   8  11
ENDBRANCH   7   8
ENDBRANCH   1   7
BRANCH   6  13
ATOM     13  N   LIG d   1      -2.783  76.496 115.884  0.00  0.00    -0.311 N 
ATOM     14  C   LIG d   1      -3.408  75.348 115.629  0.00  0.00     0.210 C 
ATOM     15  C   LIG d   1      -2.998  74.175 116.525  0.00  0.00     0.109 C 
ATOM     16  O   LIG d   1      -4.241  75.182 114.724  0.00  0.00    -0.276 OA
ATOM     17  H   LIG d   1      -2.099  76.533 116.614  0.00  0.00     0.149 HD
ENDBRANCH   6  13
BRANCH   5  18
ATOM     18  N   LIG d   1      -1.355  77.347 113.321  0.00  0.00     0.381 N 
ATOM     19  H   LIG d   1      -1.136  77.865 112.493  0.00  0.00    -0.090 HD
ATOM     20  H   LIG d   1      -2.101  76.710 113.105  0.00  0.00    -0.090 HD
ATOM     21  H   LIG d   1      -0.553  76.840 113.625  0.00  0.00    -0.090 HD
ENDBRANCH   5  18
BRANCH   3  22
ATOM     22  C   LIG d   1      -2.476  81.882 114.376  0.00  0.00     0.382 C 
ATOM     23  O   LIG d   1      -3.423  82.622 114.016  0.00  0.00    -0.241 OA
ATOM     24  O   LIG d   1      -1.330  82.358 114.477  0.00  0.00    -0.241 OA
ENDBRANCH   3  22
TORSDOF 7
ENDMDL
MODEL 8
REMARK VINA RESULT:      -4.3      3.766      7.000
REMARK  7 active torsions:
REMARK  status: ('A' for Active; 'I' for Inactive)
REMARK    1  A    between atoms: C_2  and  C_3 
REMARK    2  A    between atoms: C_3  and  O_6 
REMARK    3  A    between atoms: C_3  and  C_4 
REMARK    4  A    between atoms: C_7  and  O_6 
REMARK    5  A    between atoms: C_9  and  C_10 
REMARK    6  A    between atoms: N_15  and  C_14 
REMARK    7  A    between atoms: N_20  and  C_19 
REMARK       I    between atoms: C_22  and  N_20 
ROOT
ATOM      1  C   LIG d   1      -4.749  78.742 116.765  0.00  0.00     0.161 C 
ATOM      2  C   LIG d   1      -4.633  77.535 116.056  0.00  0.00     0.016 C 
ATOM      3  C   LIG d   1      -5.648  76.552 116.023  0.00  0.00     0.038 C 
ATOM      4  C   LIG d   1      -6.917  76.777 116.577  0.00  0.00     0.028 C 
ATOM      5  C   LIG d   1      -6.906  77.772 117.732  0.00  0.00    -0.047 C 
ATOM      6  C   LIG d   1      -6.169  79.054 117.284  0.00  0.00     0.091 C 
ENDROOT
BRANCH   1   7
ATOM      7  O   LIG d   1      -4.260  79.832 115.958  0.00  0.00    -0.368 OA
BRANCH   7   8
ATOM      8  C   LIG d   1      -2.999  80.414 116.370  0.00  0.00     0.119 C 
BRANCH   8   9
ATOM      9  C   LIG d   1      -3.203  81.938 116.470  0.00  0.00     0.028 C 
ATOM     10  C   LIG d   1      -2.862  82.486 117.866  0.00  0.00     0.006 C 
ENDBRANCH   8   9
BRANCH   8  11
ATOM     11  C   LIG d   1      -1.919  80.219 115.302  0.00  0.00     0.028 C 
ATOM     12  C   LIG d   1      -2.496  80.144 113.879  0.00  0.00     0.006 C 
ENDBRANCH   8  11
ENDBRANCH   7   8
ENDBRANCH   1   7
BRANCH   6  13
ATOM     13  N   LIG d   1      -6.039  80.047 118.382  0.00  0.00    -0.311 N 
ATOM     14  C   LIG d   1      -6.451  81.310 118.281  0.00  0.00     0.210 C 
ATOM     15  C   LIG d   1      -6.204  82.171 119.523  0.00  0.00     0.109 C 
ATOM     16  O   LIG d   1      -7.026  81.789 117.293  0.00  0.00    -0.276 OA
ATOM     17  H   LIG d   1      -5.611  79.734 119.231  0.00  0.00     0.149 HD
ENDBRANCH   6  13
BRANCH   5  18
ATOM     18  N   LIG d   1      -8.307  78.017 118.123  0.00  0.00     0.381 N 
ATOM     19  H   LIG d   1      -8.352  78.243 119.097  0.00  0.00    -0.090 HD
ATOM     20  H   LIG d   1      -8.839  77.178 117.969  0.00  0.00    -0.090 HD
ATOM     21  H   LIG d   1      -8.686  78.763 117.583  0.00  0.00    -0.090 HD
ENDBRANCH   5  18
BRANCH   3  22
ATOM     22  C   LIG d   1      -5.384  75.310 115.464  0.00  0.00     0.382 C 
ATOM     23  O   LIG d   1      -5.999  74.296 115.872  0.00  0.00    -0.241 OA
ATOM     24  O   LIG d   1      -4.507  75.185 114.589  0.00  0.00    -0.241 OA
ENDBRANCH   3  22
TORSDOF 7
ENDMDL
MODEL 9
REMARK VINA RESULT:      -4.2      2.456      4.804
REMARK  7 active torsions:
REMARK  status: ('A' for Active; 'I' for Inactive)
REMARK    1  A    between atoms: C_2  and  C_3 
REMARK    2  A    between atoms: C_3  and  O_6 
REMARK    3  A    between atoms: C_3  and  C_4 
REMARK    4  A    between atoms: C_7  and  O_6 
REMARK    5  A    between atoms: C_9  and  C_10 
REMARK    6  A    between atoms: N_15  and  C_14 
REMARK    7  A    between atoms: N_20  and  C_19 
REMARK       I    between atoms: C_22  and  N_20 
ROOT
ATOM      1  C   LIG d   1      -4.232  75.017 116.489  0.00  0.00     0.161 C 
ATOM      2  C   LIG d   1      -3.786  76.348 116.522  0.00  0.00     0.016 C 
ATOM      3  C   LIG d   1      -4.659  77.461 116.532  0.00  0.00     0.038 C 
ATOM      4  C   LIG d   1      -6.047  77.313 116.664  0.00  0.00     0.028 C 
ATOM      5  C   LIG d   1      -6.569  75.985 116.126  0.00  0.00    -0.047 C 
ATOM      6  C   LIG d   1      -5.743  74.834 116.745  0.00  0.00     0.091 C 
ENDROOT
BRANCH   1   7
ATOM      7  O   LIG d   1      -3.467  74.223 117.418  0.00  0.00    -0.368 OA
BRANCH   7   8
ATOM      8  C   LIG d   1      -2.039  74.466 117.439  0.00  0.00     0.119 C 
BRANCH   8   9
ATOM      9  C   LIG d   1      -1.464  73.965 116.100  0.00  0.00     0.028 C 
ATOM     10  C   LIG d   1      -0.613  75.031 115.391  0.00  0.00     0.006 C 
ENDBRANCH   8   9
BRANCH   8  11
ATOM     11  C   LIG d   1      -1.347  73.628 118.517  0.00  0.00     0.028 C 
ATOM     12  C   LIG d   1      -0.048  74.270 119.029  0.00  0.00     0.006 C 
ENDBRANCH   8  11
ENDBRANCH   7   8
ENDBRANCH   1   7
BRANCH   6  13
ATOM     13  N   LIG d   1      -6.132  73.504 116.208  0.00  0.00    -0.311 N 
ATOM     14  C   LIG d   1      -6.294  72.424 116.970  0.00  0.00     0.210 C 
ATOM     15  C   LIG d   1      -6.678  71.149 116.212  0.00  0.00     0.109 C 
ATOM     16  O   LIG d   1      -6.189  72.408 118.206  0.00  0.00    -0.276 OA
ATOM     17  H   LIG d   1      -6.269  73.434 115.218  0.00  0.00     0.149 HD
ENDBRANCH   6  13
BRANCH   5  18
ATOM     18  N   LIG d   1      -8.005  75.905 116.452  0.00  0.00     0.381 N 
ATOM     19  H   LIG d   1      -8.122  75.762 117.435  0.00  0.00    -0.090 HD
ATOM     20  H   LIG d   1      -8.405  75.119 115.969  0.00  0.00    -0.090 HD
ATOM     21  H   LIG d   1      -8.465  76.744 116.173  0.00  0.00    -0.090 HD
ENDBRANCH   5  18
BRANCH   3  22
ATOM     22  C   LIG d   1      -4.145  78.739 116.370  0.00  0.00     0.382 C 
ATOM     23  O   LIG d   1      -4.869  79.739 116.594  0.00  0.00    -0.241 OA
ATOM     24  O   LIG d   1      -2.981  78.904 115.958  0.00  0.00    -0.241 OA
ENDBRANCH   3  22
TORSDOF 7
ENDMDL
