MODEL 1
REMARK VINA RESULT:      -5.4      0.000      0.000
REMARK  7 active torsions:
REMARK  status: ('A' for Active; 'I' for Inactive)
REMARK    1  A    between atoms: C_2  and  C_3 
REMARK    2  A    between atoms: C_3  and  O_6 
REMARK    3  A    between atoms: C_3  and  C_4 
REMARK    4  A    between atoms: C_7  and  O_6 
REMARK    5  A    between atoms: C_9  and  C_10 
REMARK    6  A    between atoms: N_15  and  C_14 
REMARK    7  A    between atoms: N_20  and  C_19 
REMARK       I    between atoms: C_22  and  N_20 
ROOT
ATOM      1  C   LIG d   1      -5.171  75.366 117.711  0.00  0.00     0.161 C 
ATOM      2  C   LIG d   1      -5.486  74.089 117.215  0.00  0.00     0.016 C 
ATOM      3  C   LIG d   1      -6.808  73.659 116.957  0.00  0.00     0.038 C 
ATOM      4  C   LIG d   1      -7.901  74.535 117.035  0.00  0.00     0.028 C 
ATOM      5  C   LIG d   1      -7.688  75.684 118.015  0.00  0.00    -0.047 C 
ATOM      6  C   LIG d   1      -6.341  76.372 117.696  0.00  0.00     0.091 C 
ENDROOT
BRANCH   1   7
ATOM      7  O   LIG d   1      -4.040  75.902 116.996  0.00  0.00    -0.368 OA
BRANCH   7   8
ATOM      8  C   LIG d   1      -3.753  75.297 115.711  0.00  0.00     0.119 C 
BRANCH   8   9
ATOM      9  C   LIG d   1      -2.224  75.325 115.518  0.00  0.00     0.028 C 
ATOM     10  C   LIG d   1      -1.486  74.453 116.548  0.00  0.00     0.006 C 
ENDBRANCH   8   9
BRANCH   8  11
ATOM     11  C   LIG d   1      -4.322  76.133 114.562  0.00  0.00     0.028 C 
ATOM     12  C   LIG d   1      -5.574  75.502 113.930  0.00  0.00     0.006 C 
ENDBRANCH   8  11
ENDBRANCH   7   8
ENDBRANCH   1   7
BRANCH   6  13
ATOM     13  N   LIG d   1      -6.015  77.454 118.661  0.00  0.00    -0.311 N 
ATOM     14  C   LIG d   1      -6.281  78.740 118.438  0.00  0.00     0.210 C 
ATOM     15  C   LIG d   1      -5.845  79.694 119.554  0.00  0.00     0.109 C 
ATOM     16  O   LIG d   1      -6.867  79.177 117.436  0.00  0.00    -0.276 OA
ATOM     17  H   LIG d   1      -5.566  77.185 119.515  0.00  0.00     0.149 HD
ENDBRANCH   6  13
BRANCH   5  18
ATOM     18  N   LIG d   1      -8.844  76.593 117.894  0.00  0.00     0.381 N 
ATOM     19  H   LIG d   1      -8.590  77.392 117.349  0.00  0.00    -0.090 HD
ATOM     20  H   LIG d   1      -9.107  76.907 118.811  0.00  0.00    -0.090 HD
ATOM     21  H   LIG d   1      -9.608  76.118 117.466  0.00  0.00    -0.090 HD
ENDBRANCH   5  18
BRANCH   3  22
ATOM     22  C   LIG d   1      -7.051  72.328 116.655  0.00  0.00     0.382 C 
ATOM     23  O   LIG d   1      -6.391  71.760 115.752  0.00  0.00    -0.241 OA
ATOM     24  O   LIG d   1      -7.952  71.701 117.243  0.00  0.00    -0.241 OA
ENDBRANCH   3  22
TORSDOF 7
ENDMDL
MODEL 2
REMARK VINA RESULT:      -5.3      1.953      4.396
REMARK  7 active torsions:
REMARK  status: ('A' for Active; 'I' for Inactive)
REMARK    1  A    between atoms: C_2  and  C_3 
REMARK    2  A    between atoms: C_3  and  O_6 
REMARK    3  A    between atoms: C_3  and  C_4 
REMARK    4  A    between atoms: C_7  and  O_6 
REMARK    5  A    between atoms: C_9  and  C_10 
REMARK    6  A    between atoms: N_15  and  C_14 
REMARK    7  A    between atoms: N_20  and  C_19 
REMARK       I    between atoms: C_22  and  N_20 
ROOT
ATOM      1  C   LIG d   1      -4.832  75.830 115.956  0.00  0.00     0.161 C 
ATOM      2  C   LIG d   1      -3.699  75.057 115.649  0.00  0.00     0.016 C 
ATOM      3  C   LIG d   1      -2.517  75.066 116.426  0.00  0.00     0.038 C 
ATOM      4  C   LIG d   1      -2.443  75.738 117.655  0.00  0.00     0.028 C 
ATOM      5  C   LIG d   1      -3.385  76.934 117.749  0.00  0.00    -0.047 C 
ATOM      6  C   LIG d   1      -4.809  76.483 117.354  0.00  0.00     0.091 C 
ENDROOT
BRANCH   1   7
ATOM      7  O   LIG d   1      -6.023  75.035 115.794  0.00  0.00    -0.368 OA
BRANCH   7   8
ATOM      8  C   LIG d   1      -6.311  74.093 116.856  0.00  0.00     0.119 C 
BRANCH   8   9
ATOM      9  C   LIG d   1      -6.439  72.698 116.214  0.00  0.00     0.028 C 
ATOM     10  C   LIG d   1      -7.410  71.785 116.983  0.00  0.00     0.006 C 
ENDBRANCH   8   9
BRANCH   8  11
ATOM     11  C   LIG d   1      -7.674  74.372 117.495  0.00  0.00     0.028 C 
ATOM     12  C   LIG d   1      -8.522  75.362 116.680  0.00  0.00     0.006 C 
ENDBRANCH   8  11
ENDBRANCH   7   8
ENDBRANCH   1   7
BRANCH   6  13
ATOM     13  N   LIG d   1      -5.777  77.612 117.338  0.00  0.00    -0.311 N 
ATOM     14  C   LIG d   1      -6.542  77.936 118.379  0.00  0.00     0.210 C 
ATOM     15  C   LIG d   1      -7.485  79.120 118.144  0.00  0.00     0.109 C 
ATOM     16  O   LIG d   1      -6.507  77.375 119.484  0.00  0.00    -0.276 OA
ATOM     17  H   LIG d   1      -5.848  78.140 116.490  0.00  0.00     0.149 HD
ENDBRANCH   6  13
BRANCH   5  18
ATOM     18  N   LIG d   1      -3.305  77.456 119.127  0.00  0.00     0.381 N 
ATOM     19  H   LIG d   1      -2.395  77.837 119.293  0.00  0.00    -0.090 HD
ATOM     20  H   LIG d   1      -3.453  76.699 119.770  0.00  0.00    -0.090 HD
ATOM     21  H   LIG d   1      -3.997  78.160 119.265  0.00  0.00    -0.090 HD
ENDBRANCH   5  18
BRANCH   3  22
ATOM     22  C   LIG d   1      -1.380  74.429 115.954  0.00  0.00     0.382 C 
ATOM     23  O   LIG d   1      -1.081  74.500 114.737  0.00  0.00    -0.241 OA
ATOM     24  O   LIG d   1      -0.673  73.748 116.720  0.00  0.00    -0.241 OA
ENDBRANCH   3  22
TORSDOF 7
ENDMDL
MODEL 3
REMARK VINA RESULT:      -5.2      2.559      4.480
REMARK  7 active torsions:
REMARK  status: ('A' for Active; 'I' for Inactive)
REMARK    1  A    between atoms: C_2  and  C_3 
REMARK    2  A    between atoms: C_3  and  O_6 
REMARK    3  A    between atoms: C_3  and  C_4 
REMARK    4  A    between atoms: C_7  and  O_6 
REMARK    5  A    between atoms: C_9  and  C_10 
REMARK    6  A    between atoms: N_15  and  C_14 
REMARK    7  A    between atoms: N_20  and  C_19 
REMARK       I    between atoms: C_22  and  N_20 
ROOT
ATOM      1  C   LIG d   1      -7.468  76.044 117.819  0.00  0.00     0.161 C 
ATOM      2  C   LIG d   1      -8.815  76.126 118.209  0.00  0.00     0.016 C 
ATOM      3  C   LIG d   1      -9.439  77.331 118.602  0.00  0.00     0.038 C 
ATOM      4  C   LIG d   1      -8.795  78.572 118.487  0.00  0.00     0.028 C 
ATOM      5  C   LIG d   1      -7.276  78.477 118.578  0.00  0.00    -0.047 C 
ATOM      6  C   LIG d   1      -6.780  77.405 117.580  0.00  0.00     0.091 C 
ENDROOT
BRANCH   1   7
ATOM      7  O   LIG d   1      -7.347  75.210 116.650  0.00  0.00    -0.368 OA
BRANCH   7   8
ATOM      8  C   LIG d   1      -6.652  73.952 116.834  0.00  0.00     0.119 C 
BRANCH   8   9
ATOM      9  C   LIG d   1      -5.751  73.737 115.603  0.00  0.00     0.028 C 
ATOM     10  C   LIG d   1      -5.680  74.982 114.702  0.00  0.00     0.006 C 
ENDBRANCH   8   9
BRANCH   8  11
ATOM     11  C   LIG d   1      -7.628  72.771 116.832  0.00  0.00     0.028 C 
ATOM     12  C   LIG d   1      -6.970  71.454 117.272  0.00  0.00     0.006 C 
ENDBRANCH   8  11
ENDBRANCH   7   8
ENDBRANCH   1   7
BRANCH   6  13
ATOM     13  N   LIG d   1      -5.312  77.188 117.665  0.00  0.00    -0.311 N 
ATOM     14  C   LIG d   1      -4.436  77.784 116.858  0.00  0.00     0.210 C 
ATOM     15  C   LIG d   1      -2.971  77.406 117.102  0.00  0.00     0.109 C 
ATOM     16  O   LIG d   1      -4.729  78.615 115.985  0.00  0.00    -0.276 OA
ATOM     17  H   LIG d   1      -4.984  76.553 118.366  0.00  0.00     0.149 HD
ENDBRANCH   6  13
BRANCH   5  18
ATOM     18  N   LIG d   1      -6.728  79.819 118.304  0.00  0.00     0.381 N 
ATOM     19  H   LIG d   1      -7.137  80.485 118.928  0.00  0.00    -0.090 HD
ATOM     20  H   LIG d   1      -6.965  80.081 117.363  0.00  0.00    -0.090 HD
ATOM     21  H   LIG d   1      -5.738  79.812 118.416  0.00  0.00    -0.090 HD
ENDBRANCH   5  18
BRANCH   3  22
ATOM     22  C   LIG d   1     -10.710  77.298 119.156  0.00  0.00     0.382 C 
ATOM     23  O   LIG d   1     -11.360  78.362 119.298  0.00  0.00    -0.241 OA
ATOM     24  O   LIG d   1     -11.198  76.223 119.555  0.00  0.00    -0.241 OA
ENDBRANCH   3  22
TORSDOF 7
ENDMDL
MODEL 4
REMARK VINA RESULT:      -5.2      2.247      4.651
REMARK  7 active torsions:
REMARK  status: ('A' for Active; 'I' for Inactive)
REMARK    1  A    between atoms: C_2  and  C_3 
REMARK    2  A    between atoms: C_3  and  O_6 
REMARK    3  A    between atoms: C_3  and  C_4 
REMARK    4  A    between atoms: C_7  and  O_6 
REMARK    5  A    between atoms: C_9  and  C_10 
REMARK    6  A    between atoms: N_15  and  C_14 
REMARK    7  A    between atoms: N_20  and  C_19 
REMARK       I    between atoms: C_22  and  N_20 
ROOT
ATOM      1  C   LIG d   1      -5.142  75.051 117.945  0.00  0.00     0.161 C 
ATOM      2  C   LIG d   1      -6.464  75.525 117.985  0.00  0.00     0.016 C 
ATOM      3  C   LIG d   1      -6.810  76.882 117.792  0.00  0.00     0.038 C 
ATOM      4  C   LIG d   1      -5.865  77.839 117.392  0.00  0.00     0.028 C 
ATOM      5  C   LIG d   1      -4.444  77.507 117.832  0.00  0.00    -0.047 C 
ATOM      6  C   LIG d   1      -4.110  76.060 117.400  0.00  0.00     0.091 C 
ENDROOT
BRANCH   1   7
ATOM      7  O   LIG d   1      -5.086  73.823 117.193  0.00  0.00    -0.368 OA
BRANCH   7   8
ATOM      8  C   LIG d   1      -6.037  73.696 116.107  0.00  0.00     0.119 C 
BRANCH   8   9
ATOM      9  C   LIG d   1      -6.471  72.219 116.042  0.00  0.00     0.028 C 
ATOM     10  C   LIG d   1      -7.585  71.889 117.049  0.00  0.00     0.006 C 
ENDBRANCH   8   9
BRANCH   8  11
ATOM     11  C   LIG d   1      -5.380  73.986 114.755  0.00  0.00     0.028 C 
ATOM     12  C   LIG d   1      -5.768  75.360 114.186  0.00  0.00     0.006 C 
ENDBRANCH   8  11
ENDBRANCH   7   8
ENDBRANCH   1   7
BRANCH   6  13
ATOM     13  N   LIG d   1      -2.767  75.626 117.866  0.00  0.00    -0.311 N 
ATOM     14  C   LIG d   1      -1.890  74.993 117.088  0.00  0.00     0.210 C 
ATOM     15  C   LIG d   1      -0.572  74.616 117.772  0.00  0.00     0.109 C 
ATOM     16  O   LIG d   1      -2.066  74.738 115.887  0.00  0.00    -0.276 OA
ATOM     17  H   LIG d   1      -2.529  75.821 118.819  0.00  0.00     0.149 HD
ENDBRANCH   6  13
BRANCH   5  18
ATOM     18  N   LIG d   1      -3.545  78.511 117.233  0.00  0.00     0.381 N 
ATOM     19  H   LIG d   1      -3.825  79.429 117.517  0.00  0.00    -0.090 HD
ATOM     20  H   LIG d   1      -3.617  78.456 116.232  0.00  0.00    -0.090 HD
ATOM     21  H   LIG d   1      -2.605  78.340 117.516  0.00  0.00    -0.090 HD
ENDBRANCH   5  18
BRANCH   3  22
ATOM     22  C   LIG d   1      -8.109  77.302 118.037  0.00  0.00     0.382 C 
ATOM     23  O   LIG d   1      -8.327  78.479 118.413  0.00  0.00    -0.241 OA
ATOM     24  O   LIG d   1      -9.061  76.506 117.930  0.00  0.00    -0.241 OA
ENDBRANCH   3  22
TORSDOF 7
ENDMDL
MODEL 5
REMARK VINA RESULT:      -5.0      2.506      5.487
REMARK  7 active torsions:
REMARK  status: ('A' for Active; 'I' for Inactive)
REMARK    1  A    between atoms: C_2  and  C_3 
REMARK    2  A    between atoms: C_3  and  O_6 
REMARK    3  A    between atoms: C_3  and  C_4 
REMARK    4  A    between atoms: C_7  and  O_6 
REMARK    5  A    between atoms: C_9  and  C_10 
REMARK    6  A    between atoms: N_15  and  C_14 
REMARK    7  A    between atoms: N_20  and  C_19 
REMARK       I    between atoms: C_22  and  N_20 
ROOT
ATOM      1  C   LIG d   1      -5.141  76.202 118.572  0.00  0.00     0.161 C 
ATOM      2  C   LIG d   1      -6.144  77.163 118.785  0.00  0.00     0.016 C 
ATOM      3  C   LIG d   1      -6.291  78.323 117.990  0.00  0.00     0.038 C 
ATOM      4  C   LIG d   1      -5.534  78.526 116.827  0.00  0.00     0.028 C 
ATOM      5  C   LIG d   1      -4.175  77.835 116.861  0.00  0.00    -0.047 C 
ATOM      6  C   LIG d   1      -4.376  76.350 117.241  0.00  0.00     0.091 C 
ENDROOT
BRANCH   1   7
ATOM      7  O   LIG d   1      -5.701  74.878 118.684  0.00  0.00    -0.368 OA
BRANCH   7   8
ATOM      8  C   LIG d   1      -6.234  74.307 117.464  0.00  0.00     0.119 C 
BRANCH   8   9
ATOM      9  C   LIG d   1      -7.770  74.312 117.582  0.00  0.00     0.028 C 
ATOM     10  C   LIG d   1      -8.425  75.371 116.679  0.00  0.00     0.006 C 
ENDBRANCH   8   9
BRANCH   8  11
ATOM     11  C   LIG d   1      -5.843  72.833 117.322  0.00  0.00     0.028 C 
ATOM     12  C   LIG d   1      -6.943  71.986 116.661  0.00  0.00     0.006 C 
ENDBRANCH   8  11
ENDBRANCH   7   8
ENDBRANCH   1   7
BRANCH   6  13
ATOM     13  N   LIG d   1      -3.088  75.621 117.379  0.00  0.00    -0.311 N 
ATOM     14  C   LIG d   1      -2.538  74.913 116.394  0.00  0.00     0.210 C 
ATOM     15  C   LIG d   1      -1.218  74.223 116.753  0.00  0.00     0.109 C 
ATOM     16  O   LIG d   1      -3.001  74.816 115.248  0.00  0.00    -0.276 OA
ATOM     17  H   LIG d   1      -2.629  75.671 118.267  0.00  0.00     0.149 HD
ENDBRANCH   6  13
BRANCH   5  18
ATOM     18  N   LIG d   1      -3.551  78.014 115.536  0.00  0.00     0.381 N 
ATOM     19  H   LIG d   1      -3.001  77.209 115.310  0.00  0.00    -0.090 HD
ATOM     20  H   LIG d   1      -2.943  78.813 115.569  0.00  0.00    -0.090 HD
ATOM     21  H   LIG d   1      -4.254  78.150 114.844  0.00  0.00    -0.090 HD
ENDBRANCH   5  18
BRANCH   3  22
ATOM     22  C   LIG d   1      -7.179  79.315 118.380  0.00  0.00     0.382 C 
ATOM     23  O   LIG d   1      -7.622  79.333 119.554  0.00  0.00    -0.241 OA
ATOM     24  O   LIG d   1      -7.576  80.165 117.561  0.00  0.00    -0.241 OA
ENDBRANCH   3  22
TORSDOF 7
ENDMDL
MODEL 6
REMARK VINA RESULT:      -4.9      2.950      3.677
REMARK  7 active torsions:
REMARK  status: ('A' for Active; 'I' for Inactive)
REMARK    1  A    between atoms: C_2  and  C_3 
REMARK    2  A    between atoms: C_3  and  O_6 
REMARK    3  A    between atoms: C_3  and  C_4 
REMARK    4  A    between atoms: C_7  and  O_6 
REMARK    5  A    between atoms: C_9  and  C_10 
REMARK    6  A    between atoms: N_15  and  C_14 
REMARK    7  A    between atoms: N_20  and  C_19 
REMARK       I    between atoms: C_22  and  N_20 
ROOT
ATOM      1  C   LIG d   1      -3.880  75.499 116.807  0.00  0.00     0.161 C 
ATOM      2  C   LIG d   1      -4.440  74.251 117.124  0.00  0.00     0.016 C 
ATOM      3  C   LIG d   1      -5.318  73.551 116.265  0.00  0.00     0.038 C 
ATOM      4  C   LIG d   1      -5.578  73.986 114.956  0.00  0.00     0.028 C 
ATOM      5  C   LIG d   1      -5.434  75.494 114.779  0.00  0.00    -0.047 C 
ATOM      6  C   LIG d   1      -4.063  75.936 115.339  0.00  0.00     0.091 C 
ENDROOT
BRANCH   1   7
ATOM      7  O   LIG d   1      -2.483  75.513 117.163  0.00  0.00    -0.368 OA
BRANCH   7   8
ATOM      8  C   LIG d   1      -1.659  74.492 116.548  0.00  0.00     0.119 C 
BRANCH   8   9
ATOM      9  C   LIG d   1      -0.788  73.870 117.657  0.00  0.00     0.028 C 
ATOM     10  C   LIG d   1      -0.197  74.929 118.603  0.00  0.00     0.006 C 
ENDBRANCH   8   9
BRANCH   8  11
ATOM     11  C   LIG d   1      -0.670  75.100 115.550  0.00  0.00     0.028 C 
ATOM     12  C   LIG d   1       0.029  74.041 114.683  0.00  0.00     0.006 C 
ENDBRANCH   8  11
ENDBRANCH   7   8
ENDBRANCH   1   7
BRANCH   6  13
ATOM     13  N   LIG d   1      -3.877  77.410 115.281  0.00  0.00    -0.311 N 
ATOM     14  C   LIG d   1      -3.008  78.008 114.467  0.00  0.00     0.210 C 
ATOM     15  C   LIG d   1      -2.961  79.535 114.582  0.00  0.00     0.109 C 
ATOM     16  O   LIG d   1      -2.296  77.421 113.639  0.00  0.00    -0.276 OA
ATOM     17  H   LIG d   1      -4.437  77.965 115.898  0.00  0.00     0.149 HD
ENDBRANCH   6  13
BRANCH   5  18
ATOM     18  N   LIG d   1      -5.596  75.791 113.343  0.00  0.00     0.381 N 
ATOM     19  H   LIG d   1      -5.177  75.065 112.798  0.00  0.00    -0.090 HD
ATOM     20  H   LIG d   1      -5.126  76.654 113.135  0.00  0.00    -0.090 HD
ATOM     21  H   LIG d   1      -6.564  75.869 113.118  0.00  0.00    -0.090 HD
ENDBRANCH   5  18
BRANCH   3  22
ATOM     22  C   LIG d   1      -5.979  72.423 116.727  0.00  0.00     0.382 C 
ATOM     23  O   LIG d   1      -5.598  71.863 117.783  0.00  0.00    -0.241 OA
ATOM     24  O   LIG d   1      -6.922  71.933 116.078  0.00  0.00    -0.241 OA
ENDBRANCH   3  22
TORSDOF 7
ENDMDL
MODEL 7
REMARK VINA RESULT:      -4.7     13.320     16.031
REMARK  7 active torsions:
REMARK  status: ('A' for Active; 'I' for Inactive)
REMARK    1  A    between atoms: C_2  and  C_3 
REMARK    2  A    between atoms: C_3  and  O_6 
REMARK    3  A    between atoms: C_3  and  C_4 
REMARK    4  A    between atoms: C_7  and  O_6 
REMARK    5  A    between atoms: C_9  and  C_10 
REMARK    6  A    between atoms: N_15  and  C_14 
REMARK    7  A    between atoms: N_20  and  C_19 
REMARK       I    between atoms: C_22  and  N_20 
ROOT
ATOM      1  C   LIG d   1       1.431  88.848 116.229  0.00  0.00     0.161 C 
ATOM      2  C   LIG d   1       0.106  88.966 116.682  0.00  0.00     0.016 C 
ATOM      3  C   LIG d   1      -0.394  90.118 117.331  0.00  0.00     0.038 C 
ATOM      4  C   LIG d   1       0.361  91.296 117.439  0.00  0.00     0.028 C 
ATOM      5  C   LIG d   1       1.866  91.052 117.447  0.00  0.00    -0.047 C 
ATOM      6  C   LIG d   1       2.237  90.164 116.238  0.00  0.00     0.091 C 
ENDROOT
BRANCH   1   7
ATOM      7  O   LIG d   1       1.447  88.259 114.914  0.00  0.00    -0.368 OA
BRANCH   7   8
ATOM      8  C   LIG d   1       1.746  86.843 114.854  0.00  0.00     0.119 C 
BRANCH   8   9
ATOM      9  C   LIG d   1       3.000  86.671 113.975  0.00  0.00     0.028 C 
ATOM     10  C   LIG d   1       4.211  86.160 114.774  0.00  0.00     0.006 C 
ENDBRANCH   8   9
BRANCH   8  11
ATOM     11  C   LIG d   1       0.637  86.070 114.134  0.00  0.00     0.028 C 
ATOM     12  C   LIG d   1      -0.530  85.698 115.062  0.00  0.00     0.006 C 
ENDBRANCH   8  11
ENDBRANCH   7   8
ENDBRANCH   1   7
BRANCH   6  13
ATOM     13  N   LIG d   1       3.680  89.807 116.219  0.00  0.00    -0.311 N 
ATOM     14  C   LIG d   1       4.447  89.913 115.135  0.00  0.00     0.210 C 
ATOM     15  C   LIG d   1       5.902  89.474 115.327  0.00  0.00     0.109 C 
ATOM     16  O   LIG d   1       4.068  90.360 114.042  0.00  0.00    -0.276 OA
ATOM     17  H   LIG d   1       4.077  89.465 117.072  0.00  0.00     0.149 HD
ENDBRANCH   6  13
BRANCH   5  18
ATOM     18  N   LIG d   1       2.531  92.368 117.424  0.00  0.00     0.381 N 
ATOM     19  H   LIG d   1       3.470  92.268 117.095  0.00  0.00    -0.090 HD
ATOM     20  H   LIG d   1       2.562  92.734 118.359  0.00  0.00    -0.090 HD
ATOM     21  H   LIG d   1       2.029  92.993 116.832  0.00  0.00    -0.090 HD
ENDBRANCH   5  18
BRANCH   3  22
ATOM     22  C   LIG d   1      -1.650  90.085 117.918  0.00  0.00     0.382 C 
ATOM     23  O   LIG d   1      -1.776  90.324 119.143  0.00  0.00    -0.241 OA
ATOM     24  O   LIG d   1      -2.653  89.777 117.246  0.00  0.00    -0.241 OA
ENDBRANCH   3  22
TORSDOF 7
ENDMDL
MODEL 8
REMARK VINA RESULT:      -4.7      2.826      5.544
REMARK  7 active torsions:
REMARK  status: ('A' for Active; 'I' for Inactive)
REMARK    1  A    between atoms: C_2  and  C_3 
REMARK    2  A    between atoms: C_3  and  O_6 
REMARK    3  A    between atoms: C_3  and  C_4 
REMARK    4  A    between atoms: C_7  and  O_6 
REMARK    5  A    between atoms: C_9  and  C_10 
REMARK    6  A    between atoms: N_15  and  C_14 
REMARK    7  A    between atoms: N_20  and  C_19 
REMARK       I    between atoms: C_22  and  N_20 
ROOT
ATOM      1  C   LIG d   1      -3.753  75.970 117.244  0.00  0.00     0.161 C 
ATOM      2  C   LIG d   1      -4.855  76.757 117.616  0.00  0.00     0.016 C 
ATOM      3  C   LIG d   1      -5.060  78.077 117.154  0.00  0.00     0.038 C 
ATOM      4  C   LIG d   1      -4.251  78.649 116.161  0.00  0.00     0.028 C 
ATOM      5  C   LIG d   1      -2.837  78.079 116.130  0.00  0.00    -0.047 C 
ATOM      6  C   LIG d   1      -2.919  76.536 116.076  0.00  0.00     0.091 C 
ENDROOT
BRANCH   1   7
ATOM      7  O   LIG d   1      -4.189  74.629 116.943  0.00  0.00    -0.368 OA
BRANCH   7   8
ATOM      8  C   LIG d   1      -5.529  74.500 116.407  0.00  0.00     0.119 C 
BRANCH   8   9
ATOM      9  C   LIG d   1      -6.215  73.337 117.150  0.00  0.00     0.028 C 
ATOM     10  C   LIG d   1      -6.612  72.190 116.205  0.00  0.00     0.006 C 
ENDBRANCH   8   9
BRANCH   8  11
ATOM     11  C   LIG d   1      -5.501  74.080 114.934  0.00  0.00     0.028 C 
ATOM     12  C   LIG d   1      -5.692  75.265 113.973  0.00  0.00     0.006 C 
ENDBRANCH   8  11
ENDBRANCH   7   8
ENDBRANCH   1   7
BRANCH   6  13
ATOM     13  N   LIG d   1      -1.579  75.895 116.128  0.00  0.00    -0.311 N 
ATOM     14  C   LIG d   1      -0.897  75.533 115.043  0.00  0.00     0.210 C 
ATOM     15  C   LIG d   1       0.456  74.870 115.320  0.00  0.00     0.109 C 
ATOM     16  O   LIG d   1      -1.269  75.728 113.876  0.00  0.00    -0.276 OA
ATOM     17  H   LIG d   1      -1.188  75.729 117.034  0.00  0.00     0.149 HD
ENDBRANCH   6  13
BRANCH   5  18
ATOM     18  N   LIG d   1      -2.146  78.663 114.965  0.00  0.00     0.381 N 
ATOM     19  H   LIG d   1      -1.157  78.549 115.065  0.00  0.00    -0.090 HD
ATOM     20  H   LIG d   1      -2.348  79.646 114.926  0.00  0.00    -0.090 HD
ATOM     21  H   LIG d   1      -2.456  78.220 114.128  0.00  0.00    -0.090 HD
ENDBRANCH   5  18
BRANCH   3  22
ATOM     22  C   LIG d   1      -6.063  78.854 117.715  0.00  0.00     0.382 C 
ATOM     23  O   LIG d   1      -6.285  80.006 117.272  0.00  0.00    -0.241 OA
ATOM     24  O   LIG d   1      -6.718  78.434 118.687  0.00  0.00    -0.241 OA
ENDBRANCH   3  22
TORSDOF 7
ENDMDL
MODEL 9
REMARK VINA RESULT:      -4.6      2.566      5.481
REMARK  7 active torsions:
REMARK  status: ('A' for Active; 'I' for Inactive)
REMARK    1  A    between atoms: C_2  and  C_3 
REMARK    2  A    between atoms: C_3  and  O_6 
REMARK    3  A    between atoms: C_3  and  C_4 
REMARK    4  A    between atoms: C_7  and  O_6 
REMARK    5  A    between atoms: C_9  and  C_10 
REMARK    6  A    between atoms: N_15  and  C_14 
REMARK    7  A    between atoms: N_20  and  C_19 
REMARK       I    between atoms: C_22  and  N_20 
ROOT
ATOM      1  C   LIG d   1      -3.545  75.917 114.938  0.00  0.00     0.161 C 
ATOM      2  C   LIG d   1      -3.071  77.237 114.849  0.00  0.00     0.016 C 
ATOM      3  C   LIG d   1      -3.656  78.322 115.541  0.00  0.00     0.038 C 
ATOM      4  C   LIG d   1      -4.669  78.135 116.493  0.00  0.00     0.028 C 
ATOM      5  C   LIG d   1      -5.516  76.892 116.240  0.00  0.00    -0.047 C 
ATOM      6  C   LIG d   1      -4.580  75.676 116.057  0.00  0.00     0.091 C 
ENDROOT
BRANCH   1   7
ATOM      7  O   LIG d   1      -2.436  75.008 115.076  0.00  0.00    -0.368 OA
BRANCH   7   8
ATOM      8  C   LIG d   1      -1.472  75.330 116.109  0.00  0.00     0.119 C 
BRANCH   8   9
ATOM      9  C   LIG d   1      -0.069  75.235 115.478  0.00  0.00     0.028 C 
ATOM     10  C   LIG d   1       0.063  74.042 114.517  0.00  0.00     0.006 C 
ENDBRANCH   8   9
BRANCH   8  11
ATOM     11  C   LIG d   1      -1.485  74.285 117.228  0.00  0.00     0.028 C 
ATOM     12  C   LIG d   1      -0.298  74.433 118.194  0.00  0.00     0.006 C 
ENDBRANCH   8  11
ENDBRANCH   7   8
ENDBRANCH   1   7
BRANCH   6  13
ATOM     13  N   LIG d   1      -5.323  74.433 115.722  0.00  0.00    -0.311 N 
ATOM     14  C   LIG d   1      -5.757  73.569 116.638  0.00  0.00     0.210 C 
ATOM     15  C   LIG d   1      -6.484  72.343 116.077  0.00  0.00     0.109 C 
ATOM     16  O   LIG d   1      -5.638  73.718 117.863  0.00  0.00    -0.276 OA
ATOM     17  H   LIG d   1      -5.491  74.250 114.752  0.00  0.00     0.149 HD
ENDBRANCH   6  13
BRANCH   5  18
ATOM     18  N   LIG d   1      -6.441  76.744 117.380  0.00  0.00     0.381 N 
ATOM     19  H   LIG d   1      -5.979  76.273 118.132  0.00  0.00    -0.090 HD
ATOM     20  H   LIG d   1      -7.224  76.184 117.092  0.00  0.00    -0.090 HD
ATOM     21  H   LIG d   1      -6.756  77.639 117.682  0.00  0.00    -0.090 HD
ENDBRANCH   5  18
BRANCH   3  22
ATOM     22  C   LIG d   1      -3.254  79.618 115.253  0.00  0.00     0.382 C 
ATOM     23  O   LIG d   1      -3.481  80.107 114.120  0.00  0.00    -0.241 OA
ATOM     24  O   LIG d   1      -2.629  80.287 116.096  0.00  0.00    -0.241 OA
ENDBRANCH   3  22
TORSDOF 7
ENDMDL
