MODEL 1
REMARK VINA RESULT:      -5.8      0.000      0.000
REMARK  7 active torsions:
REMARK  status: ('A' for Active; 'I' for Inactive)
REMARK    1  A    between atoms: C_2  and  C_3 
REMARK    2  A    between atoms: C_3  and  O_6 
REMARK    3  A    between atoms: C_3  and  C_4 
REMARK    4  A    between atoms: C_7  and  O_6 
REMARK    5  A    between atoms: C_9  and  C_10 
REMARK    6  A    between atoms: N_15  and  C_14 
REMARK    7  A    between atoms: N_20  and  C_19 
REMARK       I    between atoms: C_22  and  N_20 
ROOT
ATOM      1  C   LIG d   1      -6.347  74.847 118.139  0.00  0.00     0.161 C 
ATOM      2  C   LIG d   1      -6.658  73.547 117.709  0.00  0.00     0.016 C 
ATOM      3  C   LIG d   1      -7.929  73.175 117.212  0.00  0.00     0.038 C 
ATOM      4  C   LIG d   1      -8.936  74.122 116.969  0.00  0.00     0.028 C 
ATOM      5  C   LIG d   1      -8.835  75.355 117.860  0.00  0.00    -0.047 C 
ATOM      6  C   LIG d   1      -7.398  75.918 117.778  0.00  0.00     0.091 C 
ENDROOT
BRANCH   1   7
ATOM      7  O   LIG d   1      -5.050  75.230 117.640  0.00  0.00    -0.368 OA
BRANCH   7   8
ATOM      8  C   LIG d   1      -4.348  74.232 116.860  0.00  0.00     0.119 C 
BRANCH   8   9
ATOM      9  C   LIG d   1      -2.975  74.007 117.523  0.00  0.00     0.028 C 
ATOM     10  C   LIG d   1      -1.814  74.110 116.520  0.00  0.00     0.006 C 
ENDBRANCH   8   9
BRANCH   8  11
ATOM     11  C   LIG d   1      -4.038  74.743 115.450  0.00  0.00     0.028 C 
ATOM     12  C   LIG d   1      -5.280  74.790 114.546  0.00  0.00     0.006 C 
ENDBRANCH   8  11
ENDBRANCH   7   8
ENDBRANCH   1   7
BRANCH   6  13
ATOM     13  N   LIG d   1      -7.190  77.076 118.686  0.00  0.00    -0.311 N 
ATOM     14  C   LIG d   1      -6.849  78.290 118.258  0.00  0.00     0.210 C 
ATOM     15  C   LIG d   1      -6.665  79.337 119.362  0.00  0.00     0.109 C 
ATOM     16  O   LIG d   1      -6.711  78.608 117.067  0.00  0.00    -0.276 OA
ATOM     17  H   LIG d   1      -7.312  76.915 119.667  0.00  0.00     0.149 HD
ENDBRANCH   6  13
BRANCH   5  18
ATOM     18  N   LIG d   1      -9.859  76.316 117.408  0.00  0.00     0.381 N 
ATOM     19  H   LIG d   1     -10.741  76.093 117.825  0.00  0.00    -0.090 HD
ATOM     20  H   LIG d   1      -9.955  76.244 116.410  0.00  0.00    -0.090 HD
ATOM     21  H   LIG d   1      -9.591  77.243 117.657  0.00  0.00    -0.090 HD
ENDBRANCH   5  18
BRANCH   3  22
ATOM     22  C   LIG d   1      -8.215  71.837 116.989  0.00  0.00     0.382 C 
ATOM     23  O   LIG d   1      -9.408  71.450 116.944  0.00  0.00    -0.241 OA
ATOM     24  O   LIG d   1      -7.296  71.004 116.877  0.00  0.00    -0.241 OA
ENDBRANCH   3  22
TORSDOF 7
ENDMDL
MODEL 2
REMARK VINA RESULT:      -4.7      3.077      4.424
REMARK  7 active torsions:
REMARK  status: ('A' for Active; 'I' for Inactive)
REMARK    1  A    between atoms: C_2  and  C_3 
REMARK    2  A    between atoms: C_3  and  O_6 
REMARK    3  A    between atoms: C_3  and  C_4 
REMARK    4  A    between atoms: C_7  and  O_6 
REMARK    5  A    between atoms: C_9  and  C_10 
REMARK    6  A    between atoms: N_15  and  C_14 
REMARK    7  A    between atoms: N_20  and  C_19 
REMARK       I    between atoms: C_22  and  N_20 
ROOT
ATOM      1  C   LIG d   1      -3.940  75.214 117.295  0.00  0.00     0.161 C 
ATOM      2  C   LIG d   1      -4.899  74.371 117.879  0.00  0.00     0.016 C 
ATOM      3  C   LIG d   1      -6.012  73.853 117.177  0.00  0.00     0.038 C 
ATOM      4  C   LIG d   1      -6.159  74.024 115.792  0.00  0.00     0.028 C 
ATOM      5  C   LIG d   1      -5.486  75.286 115.262  0.00  0.00    -0.047 C 
ATOM      6  C   LIG d   1      -4.022  75.320 115.758  0.00  0.00     0.091 C 
ENDROOT
BRANCH   1   7
ATOM      7  O   LIG d   1      -2.618  74.803 117.698  0.00  0.00    -0.368 OA
BRANCH   7   8
ATOM      8  C   LIG d   1      -1.962  75.643 118.680  0.00  0.00     0.119 C 
BRANCH   8   9
ATOM      9  C   LIG d   1      -2.778  76.945 118.795  0.00  0.00     0.028 C 
ATOM     10  C   LIG d   1      -1.992  78.175 118.313  0.00  0.00     0.006 C 
ENDBRANCH   8   9
BRANCH   8  11
ATOM     11  C   LIG d   1      -0.573  76.076 118.203  0.00  0.00     0.028 C 
ATOM     12  C   LIG d   1       0.522  75.828 119.252  0.00  0.00     0.006 C 
ENDBRANCH   8  11
ENDBRANCH   7   8
ENDBRANCH   1   7
BRANCH   6  13
ATOM     13  N   LIG d   1      -3.317  76.564 115.354  0.00  0.00    -0.311 N 
ATOM     14  C   LIG d   1      -2.101  76.574 114.811  0.00  0.00     0.210 C 
ATOM     15  C   LIG d   1      -1.548  77.966 114.488  0.00  0.00     0.109 C 
ATOM     16  O   LIG d   1      -1.441  75.560 114.536  0.00  0.00    -0.276 OA
ATOM     17  H   LIG d   1      -3.793  77.431 115.513  0.00  0.00     0.149 HD
ENDBRANCH   6  13
BRANCH   5  18
ATOM     18  N   LIG d   1      -5.598  75.266 113.791  0.00  0.00     0.381 N 
ATOM     19  H   LIG d   1      -5.184  74.430 113.431  0.00  0.00    -0.090 HD
ATOM     20  H   LIG d   1      -5.098  76.053 113.417  0.00  0.00    -0.090 HD
ATOM     21  H   LIG d   1      -6.556  75.314 113.522  0.00  0.00    -0.090 HD
ENDBRANCH   5  18
BRANCH   3  22
ATOM     22  C   LIG d   1      -7.014  73.190 117.868  0.00  0.00     0.382 C 
ATOM     23  O   LIG d   1      -8.008  72.737 117.251  0.00  0.00    -0.241 OA
ATOM     24  O   LIG d   1      -6.958  73.077 119.108  0.00  0.00    -0.241 OA
ENDBRANCH   3  22
TORSDOF 7
ENDMDL
MODEL 3
REMARK VINA RESULT:      -4.6     15.278     18.012
REMARK  7 active torsions:
REMARK  status: ('A' for Active; 'I' for Inactive)
REMARK    1  A    between atoms: C_2  and  C_3 
REMARK    2  A    between atoms: C_3  and  O_6 
REMARK    3  A    between atoms: C_3  and  C_4 
REMARK    4  A    between atoms: C_7  and  O_6 
REMARK    5  A    between atoms: C_9  and  C_10 
REMARK    6  A    between atoms: N_15  and  C_14 
REMARK    7  A    between atoms: N_20  and  C_19 
REMARK       I    between atoms: C_22  and  N_20 
ROOT
ATOM      1  C   LIG d   1      10.094  76.725 114.994  0.00  0.00     0.161 C 
ATOM      2  C   LIG d   1      10.257  75.400 115.432  0.00  0.00     0.016 C 
ATOM      3  C   LIG d   1      11.488  74.708 115.375  0.00  0.00     0.038 C 
ATOM      4  C   LIG d   1      12.683  75.348 115.013  0.00  0.00     0.028 C 
ATOM      5  C   LIG d   1      12.474  76.539 114.084  0.00  0.00    -0.047 C 
ATOM      6  C   LIG d   1      11.409  77.475 114.700  0.00  0.00     0.091 C 
ENDROOT
BRANCH   1   7
ATOM      7  O   LIG d   1       9.299  77.460 115.946  0.00  0.00    -0.368 OA
BRANCH   7   8
ATOM      8  C   LIG d   1       7.879  77.535 115.669  0.00  0.00     0.119 C 
BRANCH   8   9
ATOM      9  C   LIG d   1       7.600  78.919 115.051  0.00  0.00     0.028 C 
ATOM     10  C   LIG d   1       8.394  80.040 115.741  0.00  0.00     0.006 C 
ENDBRANCH   8   9
BRANCH   8  11
ATOM     11  C   LIG d   1       7.056  77.494 116.960  0.00  0.00     0.028 C 
ATOM     12  C   LIG d   1       7.924  77.297 118.213  0.00  0.00     0.006 C 
ENDBRANCH   8  11
ENDBRANCH   7   8
ENDBRANCH   1   7
BRANCH   6  13
ATOM     13  N   LIG d   1      11.084  78.624 113.814  0.00  0.00    -0.311 N 
ATOM     14  C   LIG d   1      11.679  79.812 113.906  0.00  0.00     0.210 C 
ATOM     15  C   LIG d   1      11.180  80.863 112.909  0.00  0.00     0.109 C 
ATOM     16  O   LIG d   1      12.594  80.085 114.696  0.00  0.00    -0.276 OA
ATOM     17  H   LIG d   1      10.374  78.480 113.123  0.00  0.00     0.149 HD
ENDBRANCH   6  13
BRANCH   5  18
ATOM     18  N   LIG d   1      13.783  77.195 113.899  0.00  0.00     0.381 N 
ATOM     19  H   LIG d   1      13.855  77.985 114.509  0.00  0.00    -0.090 HD
ATOM     20  H   LIG d   1      13.852  77.520 112.951  0.00  0.00    -0.090 HD
ATOM     21  H   LIG d   1      14.517  76.550 114.091  0.00  0.00    -0.090 HD
ENDBRANCH   5  18
BRANCH   3  22
ATOM     22  C   LIG d   1      11.525  73.348 115.644  0.00  0.00     0.382 C 
ATOM     23  O   LIG d   1      11.490  72.521 114.701  0.00  0.00    -0.241 OA
ATOM     24  O   LIG d   1      11.548  72.937 116.820  0.00  0.00    -0.241 OA
ENDBRANCH   3  22
TORSDOF 7
ENDMDL
MODEL 4
REMARK VINA RESULT:      -4.4     14.288     17.650
REMARK  7 active torsions:
REMARK  status: ('A' for Active; 'I' for Inactive)
REMARK    1  A    between atoms: C_2  and  C_3 
REMARK    2  A    between atoms: C_3  and  O_6 
REMARK    3  A    between atoms: C_3  and  C_4 
REMARK    4  A    between atoms: C_7  and  O_6 
REMARK    5  A    between atoms: C_9  and  C_10 
REMARK    6  A    between atoms: N_15  and  C_14 
REMARK    7  A    between atoms: N_20  and  C_19 
REMARK       I    between atoms: C_22  and  N_20 
ROOT
ATOM      1  C   LIG d   1      10.136  78.555 116.729  0.00  0.00     0.161 C 
ATOM      2  C   LIG d   1       9.846  79.908 116.972  0.00  0.00     0.016 C 
ATOM      3  C   LIG d   1      10.126  80.941 116.048  0.00  0.00     0.038 C 
ATOM      4  C   LIG d   1      10.579  80.670 114.748  0.00  0.00     0.028 C 
ATOM      5  C   LIG d   1      11.360  79.365 114.638  0.00  0.00    -0.047 C 
ATOM      6  C   LIG d   1      10.527  78.227 115.273  0.00  0.00     0.091 C 
ENDROOT
BRANCH   1   7
ATOM      7  O   LIG d   1       9.025  77.736 117.145  0.00  0.00    -0.368 OA
BRANCH   7   8
ATOM      8  C   LIG d   1       7.726  78.378 117.151  0.00  0.00     0.119 C 
BRANCH   8   9
ATOM      9  C   LIG d   1       6.944  77.831 118.361  0.00  0.00     0.028 C 
ATOM     10  C   LIG d   1       5.533  77.351 117.980  0.00  0.00     0.006 C 
ENDBRANCH   8   9
BRANCH   8  11
ATOM     11  C   LIG d   1       6.903  77.980 115.922  0.00  0.00     0.028 C 
ATOM     12  C   LIG d   1       6.737  79.131 114.918  0.00  0.00     0.006 C 
ENDBRANCH   8  11
ENDBRANCH   7   8
ENDBRANCH   1   7
BRANCH   6  13
ATOM     13  N   LIG d   1      11.254  76.931 115.283  0.00  0.00    -0.311 N 
ATOM     14  C   LIG d   1      10.682  75.768 114.976  0.00  0.00     0.210 C 
ATOM     15  C   LIG d   1      11.606  74.549 115.069  0.00  0.00     0.109 C 
ATOM     16  O   LIG d   1       9.507  75.634 114.604  0.00  0.00    -0.276 OA
ATOM     17  H   LIG d   1      12.220  76.952 115.544  0.00  0.00     0.149 HD
ENDBRANCH   6  13
BRANCH   5  18
ATOM     18  N   LIG d   1      11.652  79.139 113.210  0.00  0.00     0.381 N 
ATOM     19  H   LIG d   1      10.914  78.606 112.793  0.00  0.00    -0.090 HD
ATOM     20  H   LIG d   1      12.504  78.612 113.132  0.00  0.00    -0.090 HD
ATOM     21  H   LIG d   1      11.748  80.012 112.739  0.00  0.00    -0.090 HD
ENDBRANCH   5  18
BRANCH   3  22
ATOM     22  C   LIG d   1       9.990  82.265 116.435  0.00  0.00     0.382 C 
ATOM     23  O   LIG d   1      10.004  83.176 115.572  0.00  0.00    -0.241 OA
ATOM     24  O   LIG d   1       9.899  82.564 117.641  0.00  0.00    -0.241 OA
ENDBRANCH   3  22
TORSDOF 7
ENDMDL
MODEL 5
REMARK VINA RESULT:      -4.4     17.317     19.783
REMARK  7 active torsions:
REMARK  status: ('A' for Active; 'I' for Inactive)
REMARK    1  A    between atoms: C_2  and  C_3 
REMARK    2  A    between atoms: C_3  and  O_6 
REMARK    3  A    between atoms: C_3  and  C_4 
REMARK    4  A    between atoms: C_7  and  O_6 
REMARK    5  A    between atoms: C_9  and  C_10 
REMARK    6  A    between atoms: N_15  and  C_14 
REMARK    7  A    between atoms: N_20  and  C_19 
REMARK       I    between atoms: C_22  and  N_20 
ROOT
ATOM      1  C   LIG d   1     -23.383  83.859 115.318  0.00  0.00     0.161 C 
ATOM      2  C   LIG d   1     -22.381  84.015 116.291  0.00  0.00     0.016 C 
ATOM      3  C   LIG d   1     -22.160  83.089 117.336  0.00  0.00     0.038 C 
ATOM      4  C   LIG d   1     -22.831  81.858 117.390  0.00  0.00     0.028 C 
ATOM      5  C   LIG d   1     -24.201  81.885 116.720  0.00  0.00    -0.047 C 
ATOM      6  C   LIG d   1     -24.051  82.468 115.297  0.00  0.00     0.091 C 
ENDROOT
BRANCH   1   7
ATOM      7  O   LIG d   1     -22.854  84.181 114.017  0.00  0.00    -0.368 OA
BRANCH   7   8
ATOM      8  C   LIG d   1     -23.289  85.439 113.446  0.00  0.00     0.119 C 
BRANCH   8   9
ATOM      9  C   LIG d   1     -22.206  86.489 113.761  0.00  0.00     0.028 C 
ATOM     10  C   LIG d   1     -22.698  87.562 114.747  0.00  0.00     0.006 C 
ENDBRANCH   8   9
BRANCH   8  11
ATOM     11  C   LIG d   1     -24.561  85.951 114.129  0.00  0.00     0.028 C 
ATOM     12  C   LIG d   1     -25.771  85.991 113.182  0.00  0.00     0.006 C 
ENDBRANCH   8  11
ENDBRANCH   7   8
ENDBRANCH   1   7
BRANCH   6  13
ATOM     13  N   LIG d   1     -25.358  82.608 114.601  0.00  0.00    -0.311 N 
ATOM     14  C   LIG d   1     -25.628  82.040 113.428  0.00  0.00     0.210 C 
ATOM     15  C   LIG d   1     -27.028  82.327 112.877  0.00  0.00     0.109 C 
ATOM     16  O   LIG d   1     -24.852  81.298 112.805  0.00  0.00    -0.276 OA
ATOM     17  H   LIG d   1     -26.056  83.167 115.051  0.00  0.00     0.149 HD
ENDBRANCH   6  13
BRANCH   5  18
ATOM     18  N   LIG d   1     -24.728  80.508 116.729  0.00  0.00     0.381 N 
ATOM     19  H   LIG d   1     -25.640  80.496 117.140  0.00  0.00    -0.090 HD
ATOM     20  H   LIG d   1     -24.123  79.931 117.287  0.00  0.00    -0.090 HD
ATOM     21  H   LIG d   1     -24.771  80.153 115.799  0.00  0.00    -0.090 HD
ENDBRANCH   5  18
BRANCH   3  22
ATOM     22  C   LIG d   1     -21.285  83.408 118.364  0.00  0.00     0.382 C 
ATOM     23  O   LIG d   1     -20.209  82.777 118.490  0.00  0.00    -0.241 OA
ATOM     24  O   LIG d   1     -21.580  84.290 119.192  0.00  0.00    -0.241 OA
ENDBRANCH   3  22
TORSDOF 7
ENDMDL
MODEL 6
REMARK VINA RESULT:      -4.3     14.373     17.819
REMARK  7 active torsions:
REMARK  status: ('A' for Active; 'I' for Inactive)
REMARK    1  A    between atoms: C_2  and  C_3 
REMARK    2  A    between atoms: C_3  and  O_6 
REMARK    3  A    between atoms: C_3  and  C_4 
REMARK    4  A    between atoms: C_7  and  O_6 
REMARK    5  A    between atoms: C_9  and  C_10 
REMARK    6  A    between atoms: N_15  and  C_14 
REMARK    7  A    between atoms: N_20  and  C_19 
REMARK       I    between atoms: C_22  and  N_20 
ROOT
ATOM      1  C   LIG d   1       9.946  79.362 114.765  0.00  0.00     0.161 C 
ATOM      2  C   LIG d   1       8.607  79.533 115.154  0.00  0.00     0.016 C 
ATOM      3  C   LIG d   1       7.742  78.457 115.461  0.00  0.00     0.038 C 
ATOM      4  C   LIG d   1       8.205  77.136 115.548  0.00  0.00     0.028 C 
ATOM      5  C   LIG d   1       9.424  76.862 114.673  0.00  0.00    -0.047 C 
ATOM      6  C   LIG d   1      10.499  77.935 114.962  0.00  0.00     0.091 C 
ENDROOT
BRANCH   1   7
ATOM      7  O   LIG d   1      10.779  80.320 115.448  0.00  0.00    -0.368 OA
BRANCH   7   8
ATOM      8  C   LIG d   1      11.179  79.971 116.796  0.00  0.00     0.119 C 
BRANCH   8   9
ATOM      9  C   LIG d   1      10.541  81.000 117.749  0.00  0.00     0.028 C 
ATOM     10  C   LIG d   1      10.394  82.388 117.102  0.00  0.00     0.006 C 
ENDBRANCH   8   9
BRANCH   8  11
ATOM     11  C   LIG d   1      12.691  80.126 116.986  0.00  0.00     0.028 C 
ATOM     12  C   LIG d   1      13.405  80.608 115.713  0.00  0.00     0.006 C 
ENDBRANCH   8  11
ENDBRANCH   7   8
ENDBRANCH   1   7
BRANCH   6  13
ATOM     13  N   LIG d   1      11.692  77.791 114.088  0.00  0.00    -0.311 N 
ATOM     14  C   LIG d   1      12.811  77.177 114.470  0.00  0.00     0.210 C 
ATOM     15  C   LIG d   1      13.928  77.157 113.421  0.00  0.00     0.109 C 
ATOM     16  O   LIG d   1      12.973  76.618 115.565  0.00  0.00    -0.276 OA
ATOM     17  H   LIG d   1      11.636  78.188 113.170  0.00  0.00     0.149 HD
ENDBRANCH   6  13
BRANCH   5  18
ATOM     18  N   LIG d   1       9.883  75.491 114.965  0.00  0.00     0.381 N 
ATOM     19  H   LIG d   1       9.404  74.841 114.374  0.00  0.00    -0.090 HD
ATOM     20  H   LIG d   1       9.663  75.271 115.920  0.00  0.00    -0.090 HD
ATOM     21  H   LIG d   1      10.866  75.422 114.818  0.00  0.00    -0.090 HD
ENDBRANCH   5  18
BRANCH   3  22
ATOM     22  C   LIG d   1       6.389  78.695 115.647  0.00  0.00     0.382 C 
ATOM     23  O   LIG d   1       5.653  77.793 116.116  0.00  0.00    -0.241 OA
ATOM     24  O   LIG d   1       5.886  79.784 115.310  0.00  0.00    -0.241 OA
ENDBRANCH   3  22
TORSDOF 7
ENDMDL
MODEL 7
REMARK VINA RESULT:      -4.3     17.809     20.378
REMARK  7 active torsions:
REMARK  status: ('A' for Active; 'I' for Inactive)
REMARK    1  A    between atoms: C_2  and  C_3 
REMARK    2  A    between atoms: C_3  and  O_6 
REMARK    3  A    between atoms: C_3  and  C_4 
REMARK    4  A    between atoms: C_7  and  O_6 
REMARK    5  A    between atoms: C_9  and  C_10 
REMARK    6  A    between atoms: N_15  and  C_14 
REMARK    7  A    between atoms: N_20  and  C_19 
REMARK       I    between atoms: C_22  and  N_20 
ROOT
ATOM      1  C   LIG d   1     -23.244  83.692 115.108  0.00  0.00     0.161 C 
ATOM      2  C   LIG d   1     -22.515  84.885 114.983  0.00  0.00     0.016 C 
ATOM      3  C   LIG d   1     -22.966  86.000 114.240  0.00  0.00     0.038 C 
ATOM      4  C   LIG d   1     -24.256  86.052 113.691  0.00  0.00     0.028 C 
ATOM      5  C   LIG d   1     -24.831  84.677 113.364  0.00  0.00    -0.047 C 
ATOM      6  C   LIG d   1     -24.702  83.770 114.609  0.00  0.00     0.091 C 
ENDROOT
BRANCH   1   7
ATOM      7  O   LIG d   1     -23.207  83.236 116.474  0.00  0.00    -0.368 OA
BRANCH   7   8
ATOM      8  C   LIG d   1     -22.493  84.082 117.409  0.00  0.00     0.119 C 
BRANCH   8   9
ATOM      9  C   LIG d   1     -21.645  83.164 118.311  0.00  0.00     0.028 C 
ATOM     10  C   LIG d   1     -21.507  81.744 117.737  0.00  0.00     0.006 C 
ENDBRANCH   8   9
BRANCH   8  11
ATOM     11  C   LIG d   1     -23.457  84.803 118.356  0.00  0.00     0.028 C 
ATOM     12  C   LIG d   1     -23.361  86.333 118.253  0.00  0.00     0.006 C 
ENDBRANCH   8  11
ENDBRANCH   7   8
ENDBRANCH   1   7
BRANCH   6  13
ATOM     13  N   LIG d   1     -25.164  82.382 114.348  0.00  0.00    -0.311 N 
ATOM     14  C   LIG d   1     -26.404  81.962 114.597  0.00  0.00     0.210 C 
ATOM     15  C   LIG d   1     -26.664  80.488 114.274  0.00  0.00     0.109 C 
ATOM     16  O   LIG d   1     -27.321  82.680 115.024  0.00  0.00    -0.276 OA
ATOM     17  H   LIG d   1     -24.493  81.741 113.972  0.00  0.00     0.149 HD
ENDBRANCH   6  13
BRANCH   5  18
ATOM     18  N   LIG d   1     -26.227  84.870 112.930  0.00  0.00     0.381 N 
ATOM     19  H   LIG d   1     -26.716  85.431 113.599  0.00  0.00    -0.090 HD
ATOM     20  H   LIG d   1     -26.679  83.974 112.880  0.00  0.00    -0.090 HD
ATOM     21  H   LIG d   1     -26.249  85.311 112.037  0.00  0.00    -0.090 HD
ENDBRANCH   5  18
BRANCH   3  22
ATOM     22  C   LIG d   1     -22.108  87.063 114.005  0.00  0.00     0.382 C 
ATOM     23  O   LIG d   1     -21.204  86.961 113.142  0.00  0.00    -0.241 OA
ATOM     24  O   LIG d   1     -22.198  88.108 114.678  0.00  0.00    -0.241 OA
ENDBRANCH   3  22
TORSDOF 7
ENDMDL
MODEL 8
REMARK VINA RESULT:      -4.3      5.115      6.933
REMARK  7 active torsions:
REMARK  status: ('A' for Active; 'I' for Inactive)
REMARK    1  A    between atoms: C_2  and  C_3 
REMARK    2  A    between atoms: C_3  and  O_6 
REMARK    3  A    between atoms: C_3  and  C_4 
REMARK    4  A    between atoms: C_7  and  O_6 
REMARK    5  A    between atoms: C_9  and  C_10 
REMARK    6  A    between atoms: N_15  and  C_14 
REMARK    7  A    between atoms: N_20  and  C_19 
REMARK       I    between atoms: C_22  and  N_20 
ROOT
ATOM      1  C   LIG d   1      -1.663  77.427 116.648  0.00  0.00     0.161 C 
ATOM      2  C   LIG d   1      -2.235  76.317 117.292  0.00  0.00     0.016 C 
ATOM      3  C   LIG d   1      -2.055  74.985 116.854  0.00  0.00     0.038 C 
ATOM      4  C   LIG d   1      -1.161  74.658 115.824  0.00  0.00     0.028 C 
ATOM      5  C   LIG d   1      -0.952  75.787 114.821  0.00  0.00    -0.047 C 
ATOM      6  C   LIG d   1      -0.595  77.080 115.589  0.00  0.00     0.091 C 
ENDROOT
BRANCH   1   7
ATOM      7  O   LIG d   1      -1.122  78.335 117.627  0.00  0.00    -0.368 OA
BRANCH   7   8
ATOM      8  C   LIG d   1       0.199  78.017 118.130  0.00  0.00     0.119 C 
BRANCH   8   9
ATOM      9  C   LIG d   1       0.020  77.298 119.481  0.00  0.00     0.028 C 
ATOM     10  C   LIG d   1       0.805  75.978 119.552  0.00  0.00     0.006 C 
ENDBRANCH   8   9
BRANCH   8  11
ATOM     11  C   LIG d   1       0.995  79.286 118.449  0.00  0.00     0.028 C 
ATOM     12  C   LIG d   1       2.490  79.152 118.117  0.00  0.00     0.006 C 
ENDBRANCH   8  11
ENDBRANCH   7   8
ENDBRANCH   1   7
BRANCH   6  13
ATOM     13  N   LIG d   1      -0.457  78.255 114.689  0.00  0.00    -0.311 N 
ATOM     14  C   LIG d   1      -1.396  78.627 113.821  0.00  0.00     0.210 C 
ATOM     15  C   LIG d   1      -1.043  79.854 112.974  0.00  0.00     0.109 C 
ATOM     16  O   LIG d   1      -2.500  78.078 113.694  0.00  0.00    -0.276 OA
ATOM     17  H   LIG d   1       0.396  78.777 114.748  0.00  0.00     0.149 HD
ENDBRANCH   6  13
BRANCH   5  18
ATOM     18  N   LIG d   1       0.104  75.361 113.884  0.00  0.00     0.381 N 
ATOM     19  H   LIG d   1      -0.293  74.792 113.163  0.00  0.00    -0.090 HD
ATOM     20  H   LIG d   1       0.781  74.812 114.384  0.00  0.00    -0.090 HD
ATOM     21  H   LIG d   1       0.545  76.159 113.482  0.00  0.00    -0.090 HD
ENDBRANCH   5  18
BRANCH   3  22
ATOM     22  C   LIG d   1      -2.805  73.967 117.424  0.00  0.00     0.382 C 
ATOM     23  O   LIG d   1      -4.058  74.005 117.368  0.00  0.00    -0.241 OA
ATOM     24  O   LIG d   1      -2.246  73.035 118.032  0.00  0.00    -0.241 OA
ENDBRANCH   3  22
TORSDOF 7
ENDMDL
MODEL 9
REMARK VINA RESULT:      -4.1     15.230     18.541
REMARK  7 active torsions:
REMARK  status: ('A' for Active; 'I' for Inactive)
REMARK    1  A    between atoms: C_2  and  C_3 
REMARK    2  A    between atoms: C_3  and  O_6 
REMARK    3  A    between atoms: C_3  and  C_4 
REMARK    4  A    between atoms: C_7  and  O_6 
REMARK    5  A    between atoms: C_9  and  C_10 
REMARK    6  A    between atoms: N_15  and  C_14 
REMARK    7  A    between atoms: N_20  and  C_19 
REMARK       I    between atoms: C_22  and  N_20 
ROOT
ATOM      1  C   LIG d   1      10.215  80.556 114.695  0.00  0.00     0.161 C 
ATOM      2  C   LIG d   1      10.694  79.298 114.295  0.00  0.00     0.016 C 
ATOM      3  C   LIG d   1      11.966  78.798 114.659  0.00  0.00     0.038 C 
ATOM      4  C   LIG d   1      12.789  79.464 115.579  0.00  0.00     0.028 C 
ATOM      5  C   LIG d   1      12.563  80.971 115.613  0.00  0.00    -0.047 C 
ATOM      6  C   LIG d   1      11.053  81.249 115.790  0.00  0.00     0.091 C 
ENDROOT
BRANCH   1   7
ATOM      7  O   LIG d   1       8.840  80.445 115.112  0.00  0.00    -0.368 OA
BRANCH   7   8
ATOM      8  C   LIG d   1       8.403  79.126 115.523  0.00  0.00     0.119 C 
BRANCH   8   9
ATOM      9  C   LIG d   1       6.937  78.963 115.075  0.00  0.00     0.028 C 
ATOM     10  C   LIG d   1       6.084  78.220 116.117  0.00  0.00     0.006 C 
ENDBRANCH   8   9
BRANCH   8  11
ATOM     11  C   LIG d   1       8.377  78.997 117.049  0.00  0.00     0.028 C 
ATOM     12  C   LIG d   1       9.516  78.119 117.592  0.00  0.00     0.006 C 
ENDBRANCH   8  11
ENDBRANCH   7   8
ENDBRANCH   1   7
BRANCH   6  13
ATOM     13  N   LIG d   1      10.734  82.700 115.749  0.00  0.00    -0.311 N 
ATOM     14  C   LIG d   1      10.663  83.466 116.837  0.00  0.00     0.210 C 
ATOM     15  C   LIG d   1      10.301  84.931 116.573  0.00  0.00     0.109 C 
ATOM     16  O   LIG d   1      10.896  83.078 117.991  0.00  0.00    -0.276 OA
ATOM     17  H   LIG d   1      10.562  83.104 114.849  0.00  0.00     0.149 HD
ENDBRANCH   6  13
BRANCH   5  18
ATOM     18  N   LIG d   1      13.384  81.520 116.709  0.00  0.00     0.381 N 
ATOM     19  H   LIG d   1      12.961  81.306 117.589  0.00  0.00    -0.090 HD
ATOM     20  H   LIG d   1      13.426  82.520 116.614  0.00  0.00    -0.090 HD
ATOM     21  H   LIG d   1      14.303  81.137 116.671  0.00  0.00    -0.090 HD
ENDBRANCH   5  18
BRANCH   3  22
ATOM     22  C   LIG d   1      12.442  77.637 114.069  0.00  0.00     0.382 C 
ATOM     23  O   LIG d   1      13.433  77.686 113.301  0.00  0.00    -0.241 OA
ATOM     24  O   LIG d   1      11.867  76.549 114.259  0.00  0.00    -0.241 OA
ENDBRANCH   3  22
TORSDOF 7
ENDMDL
