MODEL 1
REMARK VINA RESULT:      -5.2      0.000      0.000
REMARK  7 active torsions:
REMARK  status: ('A' for Active; 'I' for Inactive)
REMARK    1  A    between atoms: C_2  and  C_3 
REMARK    2  A    between atoms: C_3  and  O_6 
REMARK    3  A    between atoms: C_3  and  C_4 
REMARK    4  A    between atoms: C_7  and  O_6 
REMARK    5  A    between atoms: C_9  and  C_10 
REMARK    6  A    between atoms: N_15  and  C_14 
REMARK    7  A    between atoms: N_20  and  C_19 
REMARK       I    between atoms: C_22  and  N_20 
ROOT
ATOM      1  C   LIG d   1      -4.202  76.243 115.636  0.00  0.00     0.161 C 
ATOM      2  C   LIG d   1      -3.212  75.304 115.301  0.00  0.00     0.016 C 
ATOM      3  C   LIG d   1      -2.042  75.100 116.067  0.00  0.00     0.038 C 
ATOM      4  C   LIG d   1      -1.853  75.719 117.312  0.00  0.00     0.028 C 
ATOM      5  C   LIG d   1      -2.586  77.050 117.444  0.00  0.00    -0.047 C 
ATOM      6  C   LIG d   1      -4.067  76.848 117.049  0.00  0.00     0.091 C 
ENDROOT
BRANCH   1   7
ATOM      7  O   LIG d   1      -5.508  75.658 115.464  0.00  0.00    -0.368 OA
BRANCH   7   8
ATOM      8  C   LIG d   1      -5.987  74.836 116.557  0.00  0.00     0.119 C 
BRANCH   8   9
ATOM      9  C   LIG d   1      -6.215  73.416 116.003  0.00  0.00     0.028 C 
ATOM     10  C   LIG d   1      -7.254  72.627 116.818  0.00  0.00     0.006 C 
ENDBRANCH   8   9
BRANCH   8  11
ATOM     11  C   LIG d   1      -7.360  75.305 117.047  0.00  0.00     0.028 C 
ATOM     12  C   LIG d   1      -7.979  76.383 116.143  0.00  0.00     0.006 C 
ENDBRANCH   8  11
ENDBRANCH   7   8
ENDBRANCH   1   7
BRANCH   6  13
ATOM     13  N   LIG d   1      -4.837  78.119 117.069  0.00  0.00    -0.311 N 
ATOM     14  C   LIG d   1      -5.597  78.500 118.095  0.00  0.00     0.210 C 
ATOM     15  C   LIG d   1      -6.322  79.836 117.903  0.00  0.00     0.109 C 
ATOM     16  O   LIG d   1      -5.714  77.873 119.159  0.00  0.00    -0.276 OA
ATOM     17  H   LIG d   1      -4.775  78.703 116.259  0.00  0.00     0.149 HD
ENDBRANCH   6  13
BRANCH   5  18
ATOM     18  N   LIG d   1      -2.416  77.517 118.833  0.00  0.00     0.381 N 
ATOM     19  H   LIG d   1      -3.304  77.779 119.213  0.00  0.00    -0.090 HD
ATOM     20  H   LIG d   1      -1.821  78.326 118.833  0.00  0.00    -0.090 HD
ATOM     21  H   LIG d   1      -2.009  76.796 119.387  0.00  0.00    -0.090 HD
ENDBRANCH   5  18
BRANCH   3  22
ATOM     22  C   LIG d   1      -1.026  74.298 115.570  0.00  0.00     0.382 C 
ATOM     23  O   LIG d   1      -0.284  73.665 116.358  0.00  0.00    -0.241 OA
ATOM     24  O   LIG d   1      -0.814  74.235 114.344  0.00  0.00    -0.241 OA
ENDBRANCH   3  22
TORSDOF 7
ENDMDL
MODEL 2
REMARK VINA RESULT:      -5.0      2.829      4.594
REMARK  7 active torsions:
REMARK  status: ('A' for Active; 'I' for Inactive)
REMARK    1  A    between atoms: C_2  and  C_3 
REMARK    2  A    between atoms: C_3  and  O_6 
REMARK    3  A    between atoms: C_3  and  C_4 
REMARK    4  A    between atoms: C_7  and  O_6 
REMARK    5  A    between atoms: C_9  and  C_10 
REMARK    6  A    between atoms: N_15  and  C_14 
REMARK    7  A    between atoms: N_20  and  C_19 
REMARK       I    between atoms: C_22  and  N_20 
ROOT
ATOM      1  C   LIG d   1      -2.874  76.953 116.560  0.00  0.00     0.161 C 
ATOM      2  C   LIG d   1      -3.083  77.846 115.496  0.00  0.00     0.016 C 
ATOM      3  C   LIG d   1      -2.137  78.069 114.469  0.00  0.00     0.038 C 
ATOM      4  C   LIG d   1      -0.972  77.296 114.354  0.00  0.00     0.028 C 
ATOM      5  C   LIG d   1      -0.482  76.737 115.686  0.00  0.00    -0.047 C 
ATOM      6  C   LIG d   1      -1.656  76.020 116.391  0.00  0.00     0.091 C 
ENDROOT
BRANCH   1   7
ATOM      7  O   LIG d   1      -4.068  76.180 116.793  0.00  0.00    -0.368 OA
BRANCH   7   8
ATOM      8  C   LIG d   1      -5.117  76.314 115.801  0.00  0.00     0.119 C 
BRANCH   8   9
ATOM      9  C   LIG d   1      -6.434  76.583 116.554  0.00  0.00     0.028 C 
ATOM     10  C   LIG d   1      -6.208  76.873 118.048  0.00  0.00     0.006 C 
ENDBRANCH   8   9
BRANCH   8  11
ATOM     11  C   LIG d   1      -5.341  75.000 115.047  0.00  0.00     0.028 C 
ATOM     12  C   LIG d   1      -6.006  73.921 115.916  0.00  0.00     0.006 C 
ENDBRANCH   8  11
ENDBRANCH   7   8
ENDBRANCH   1   7
BRANCH   6  13
ATOM     13  N   LIG d   1      -1.285  75.516 117.739  0.00  0.00    -0.311 N 
ATOM     14  C   LIG d   1      -0.795  74.297 117.956  0.00  0.00     0.210 C 
ATOM     15  C   LIG d   1      -0.497  73.972 119.424  0.00  0.00     0.109 C 
ATOM     16  O   LIG d   1      -0.548  73.465 117.070  0.00  0.00    -0.276 OA
ATOM     17  H   LIG d   1      -1.424  76.137 118.512  0.00  0.00     0.149 HD
ENDBRANCH   6  13
BRANCH   5  18
ATOM     18  N   LIG d   1       0.655  75.842 115.402  0.00  0.00     0.381 N 
ATOM     19  H   LIG d   1       0.580  75.012 115.956  0.00  0.00    -0.090 HD
ATOM     20  H   LIG d   1       1.508  76.311 115.650  0.00  0.00    -0.090 HD
ATOM     21  H   LIG d   1       0.668  75.603 114.434  0.00  0.00    -0.090 HD
ENDBRANCH   5  18
BRANCH   3  22
ATOM     22  C   LIG d   1      -2.334  79.102 113.566  0.00  0.00     0.382 C 
ATOM     23  O   LIG d   1      -1.458  79.989 113.427  0.00  0.00    -0.241 OA
ATOM     24  O   LIG d   1      -3.397  79.183 112.921  0.00  0.00    -0.241 OA
ENDBRANCH   3  22
TORSDOF 7
ENDMDL
MODEL 3
REMARK VINA RESULT:      -4.7      2.545      5.887
REMARK  7 active torsions:
REMARK  status: ('A' for Active; 'I' for Inactive)
REMARK    1  A    between atoms: C_2  and  C_3 
REMARK    2  A    between atoms: C_3  and  O_6 
REMARK    3  A    between atoms: C_3  and  C_4 
REMARK    4  A    between atoms: C_7  and  O_6 
REMARK    5  A    between atoms: C_9  and  C_10 
REMARK    6  A    between atoms: N_15  and  C_14 
REMARK    7  A    between atoms: N_20  and  C_19 
REMARK       I    between atoms: C_22  and  N_20 
ROOT
ATOM      1  C   LIG d   1      -6.875  77.676 117.189  0.00  0.00     0.161 C 
ATOM      2  C   LIG d   1      -8.189  78.145 117.355  0.00  0.00     0.016 C 
ATOM      3  C   LIG d   1      -8.526  79.241 118.182  0.00  0.00     0.038 C 
ATOM      4  C   LIG d   1      -7.546  80.043 118.785  0.00  0.00     0.028 C 
ATOM      5  C   LIG d   1      -6.239  79.304 119.053  0.00  0.00    -0.047 C 
ATOM      6  C   LIG d   1      -5.780  78.608 117.752  0.00  0.00     0.091 C 
ENDROOT
BRANCH   1   7
ATOM      7  O   LIG d   1      -6.627  77.397 115.797  0.00  0.00    -0.368 OA
BRANCH   7   8
ATOM      8  C   LIG d   1      -6.637  75.999 115.416  0.00  0.00     0.119 C 
BRANCH   8   9
ATOM      9  C   LIG d   1      -7.164  75.195 116.621  0.00  0.00     0.028 C 
ATOM     10  C   LIG d   1      -6.500  73.813 116.739  0.00  0.00     0.006 C 
ENDBRANCH   8   9
BRANCH   8  11
ATOM     11  C   LIG d   1      -5.218  75.478 115.171  0.00  0.00     0.028 C 
ATOM     12  C   LIG d   1      -4.508  76.205 114.018  0.00  0.00     0.006 C 
ENDBRANCH   8  11
ENDBRANCH   7   8
ENDBRANCH   1   7
BRANCH   6  13
ATOM     13  N   LIG d   1      -4.553  77.793 117.947  0.00  0.00    -0.311 N 
ATOM     14  C   LIG d   1      -3.419  78.004 117.281  0.00  0.00     0.210 C 
ATOM     15  C   LIG d   1      -2.281  77.036 117.619  0.00  0.00     0.109 C 
ATOM     16  O   LIG d   1      -3.238  78.920 116.465  0.00  0.00    -0.276 OA
ATOM     17  H   LIG d   1      -4.602  77.047 118.614  0.00  0.00     0.149 HD
ENDBRANCH   6  13
BRANCH   5  18
ATOM     18  N   LIG d   1      -5.264  80.291 119.555  0.00  0.00     0.381 N 
ATOM     19  H   LIG d   1      -5.743  81.113 119.865  0.00  0.00    -0.090 HD
ATOM     20  H   LIG d   1      -4.648  80.550 118.805  0.00  0.00    -0.090 HD
ATOM     21  H   LIG d   1      -4.739  79.901 120.306  0.00  0.00    -0.090 HD
ENDBRANCH   5  18
BRANCH   3  22
ATOM     22  C   LIG d   1      -9.858  79.519 118.444  0.00  0.00     0.382 C 
ATOM     23  O   LIG d   1     -10.710  78.598 118.411  0.00  0.00    -0.241 OA
ATOM     24  O   LIG d   1     -10.227  80.688 118.670  0.00  0.00    -0.241 OA
ENDBRANCH   3  22
TORSDOF 7
ENDMDL
MODEL 4
REMARK VINA RESULT:      -4.6      1.853      4.942
REMARK  7 active torsions:
REMARK  status: ('A' for Active; 'I' for Inactive)
REMARK    1  A    between atoms: C_2  and  C_3 
REMARK    2  A    between atoms: C_3  and  O_6 
REMARK    3  A    between atoms: C_3  and  C_4 
REMARK    4  A    between atoms: C_7  and  O_6 
REMARK    5  A    between atoms: C_9  and  C_10 
REMARK    6  A    between atoms: N_15  and  C_14 
REMARK    7  A    between atoms: N_20  and  C_19 
REMARK       I    between atoms: C_22  and  N_20 
ROOT
ATOM      1  C   LIG d   1      -5.483  76.777 117.030  0.00  0.00     0.161 C 
ATOM      2  C   LIG d   1      -6.245  77.850 117.521  0.00  0.00     0.016 C 
ATOM      3  C   LIG d   1      -5.797  79.191 117.514  0.00  0.00     0.038 C 
ATOM      4  C   LIG d   1      -4.609  79.572 116.873  0.00  0.00     0.028 C 
ATOM      5  C   LIG d   1      -3.570  78.457 116.811  0.00  0.00    -0.047 C 
ATOM      6  C   LIG d   1      -4.231  77.188 116.227  0.00  0.00     0.091 C 
ENDROOT
BRANCH   1   7
ATOM      7  O   LIG d   1      -6.317  75.903 116.245  0.00  0.00    -0.368 OA
BRANCH   7   8
ATOM      8  C   LIG d   1      -6.855  74.747 116.934  0.00  0.00     0.119 C 
BRANCH   8   9
ATOM      9  C   LIG d   1      -6.265  73.492 116.262  0.00  0.00     0.028 C 
ATOM     10  C   LIG d   1      -7.127  72.240 116.496  0.00  0.00     0.006 C 
ENDBRANCH   8   9
BRANCH   8  11
ATOM     11  C   LIG d   1      -8.370  74.637 116.740  0.00  0.00     0.028 C 
ATOM     12  C   LIG d   1      -9.070  76.005 116.729  0.00  0.00     0.006 C 
ENDBRANCH   8  11
ENDBRANCH   7   8
ENDBRANCH   1   7
BRANCH   6  13
ATOM     13  N   LIG d   1      -3.306  76.024 116.209  0.00  0.00    -0.311 N 
ATOM     14  C   LIG d   1      -2.605  75.662 115.136  0.00  0.00     0.210 C 
ATOM     15  C   LIG d   1      -1.727  74.421 115.327  0.00  0.00     0.109 C 
ATOM     16  O   LIG d   1      -2.602  76.269 114.055  0.00  0.00    -0.276 OA
ATOM     17  H   LIG d   1      -3.224  75.494 117.054  0.00  0.00     0.149 HD
ENDBRANCH   6  13
BRANCH   5  18
ATOM     18  N   LIG d   1      -2.440  78.946 115.999  0.00  0.00     0.381 N 
ATOM     19  H   LIG d   1      -2.580  79.910 115.768  0.00  0.00    -0.090 HD
ATOM     20  H   LIG d   1      -2.402  78.420 115.143  0.00  0.00    -0.090 HD
ATOM     21  H   LIG d   1      -1.587  78.838 116.501  0.00  0.00    -0.090 HD
ENDBRANCH   5  18
BRANCH   3  22
ATOM     22  C   LIG d   1      -6.522  80.161 118.188  0.00  0.00     0.382 C 
ATOM     23  O   LIG d   1      -6.117  80.592 119.295  0.00  0.00    -0.241 OA
ATOM     24  O   LIG d   1      -7.600  80.580 117.725  0.00  0.00    -0.241 OA
ENDBRANCH   3  22
TORSDOF 7
ENDMDL
MODEL 5
REMARK VINA RESULT:      -4.3     13.148     15.105
REMARK  7 active torsions:
REMARK  status: ('A' for Active; 'I' for Inactive)
REMARK    1  A    between atoms: C_2  and  C_3 
REMARK    2  A    between atoms: C_3  and  O_6 
REMARK    3  A    between atoms: C_3  and  C_4 
REMARK    4  A    between atoms: C_7  and  O_6 
REMARK    5  A    between atoms: C_9  and  C_10 
REMARK    6  A    between atoms: N_15  and  C_14 
REMARK    7  A    between atoms: N_20  and  C_19 
REMARK       I    between atoms: C_22  and  N_20 
ROOT
ATOM      1  C   LIG d   1       3.073  87.960 115.589  0.00  0.00     0.161 C 
ATOM      2  C   LIG d   1       2.029  87.892 116.526  0.00  0.00     0.016 C 
ATOM      3  C   LIG d   1       1.823  88.864 117.533  0.00  0.00     0.038 C 
ATOM      4  C   LIG d   1       2.561  90.055 117.575  0.00  0.00     0.028 C 
ATOM      5  C   LIG d   1       3.951  89.929 116.960  0.00  0.00    -0.047 C 
ATOM      6  C   LIG d   1       3.821  89.309 115.550  0.00  0.00     0.091 C 
ENDROOT
BRANCH   1   7
ATOM      7  O   LIG d   1       2.575  87.625 114.278  0.00  0.00    -0.368 OA
BRANCH   7   8
ATOM      8  C   LIG d   1       2.703  86.237 113.883  0.00  0.00     0.119 C 
BRANCH   8   9
ATOM      9  C   LIG d   1       3.965  86.119 113.007  0.00  0.00     0.028 C 
ATOM     10  C   LIG d   1       4.405  84.659 112.806  0.00  0.00     0.006 C 
ENDBRANCH   8   9
BRANCH   8  11
ATOM     11  C   LIG d   1       1.542  85.804 112.982  0.00  0.00     0.028 C 
ATOM     12  C   LIG d   1       0.498  84.954 113.723  0.00  0.00     0.006 C 
ENDBRANCH   8  11
ENDBRANCH   7   8
ENDBRANCH   1   7
BRANCH   6  13
ATOM     13  N   LIG d   1       5.141  89.073 114.910  0.00  0.00    -0.311 N 
ATOM     14  C   LIG d   1       5.422  89.424 113.657  0.00  0.00     0.210 C 
ATOM     15  C   LIG d   1       6.837  89.070 113.188  0.00  0.00     0.109 C 
ATOM     16  O   LIG d   1       4.645  90.023 112.899  0.00  0.00    -0.276 OA
ATOM     17  H   LIG d   1       5.842  88.619 115.464  0.00  0.00     0.149 HD
ENDBRANCH   6  13
BRANCH   5  18
ATOM     18  N   LIG d   1       4.556  91.274 116.946  0.00  0.00     0.381 N 
ATOM     19  H   LIG d   1       5.334  91.289 116.317  0.00  0.00    -0.090 HD
ATOM     20  H   LIG d   1       4.891  91.490 117.868  0.00  0.00    -0.090 HD
ATOM     21  H   LIG d   1       3.879  91.950 116.664  0.00  0.00    -0.090 HD
ENDBRANCH   5  18
BRANCH   3  22
ATOM     22  C   LIG d   1       0.894  88.628 118.535  0.00  0.00     0.382 C 
ATOM     23  O   LIG d   1       0.590  87.451 118.844  0.00  0.00    -0.241 OA
ATOM     24  O   LIG d   1       0.324  89.578 119.104  0.00  0.00    -0.241 OA
ENDBRANCH   3  22
TORSDOF 7
ENDMDL
MODEL 6
REMARK VINA RESULT:      -4.2     11.707     13.484
REMARK  7 active torsions:
REMARK  status: ('A' for Active; 'I' for Inactive)
REMARK    1  A    between atoms: C_2  and  C_3 
REMARK    2  A    between atoms: C_3  and  O_6 
REMARK    3  A    between atoms: C_3  and  C_4 
REMARK    4  A    between atoms: C_7  and  O_6 
REMARK    5  A    between atoms: C_9  and  C_10 
REMARK    6  A    between atoms: N_15  and  C_14 
REMARK    7  A    between atoms: N_20  and  C_19 
REMARK       I    between atoms: C_22  and  N_20 
ROOT
ATOM      1  C   LIG d   1       2.931  86.837 115.406  0.00  0.00     0.161 C 
ATOM      2  C   LIG d   1       3.550  87.921 114.761  0.00  0.00     0.016 C 
ATOM      3  C   LIG d   1       4.347  87.784 113.602  0.00  0.00     0.038 C 
ATOM      4  C   LIG d   1       4.457  86.565 112.917  0.00  0.00     0.028 C 
ATOM      5  C   LIG d   1       4.262  85.347 113.813  0.00  0.00    -0.047 C 
ATOM      6  C   LIG d   1       2.948  85.516 114.610  0.00  0.00     0.091 C 
ENDROOT
BRANCH   1   7
ATOM      7  O   LIG d   1       1.580  87.189 115.765  0.00  0.00    -0.368 OA
BRANCH   7   8
ATOM      8  C   LIG d   1       1.329  87.399 117.176  0.00  0.00     0.119 C 
BRANCH   8   9
ATOM      9  C   LIG d   1      -0.080  86.855 117.482  0.00  0.00     0.028 C 
ATOM     10  C   LIG d   1      -0.053  85.684 118.480  0.00  0.00     0.006 C 
ENDBRANCH   8   9
BRANCH   8  11
ATOM     11  C   LIG d   1       1.270  88.891 117.515  0.00  0.00     0.028 C 
ATOM     12  C   LIG d   1      -0.103  89.326 118.053  0.00  0.00     0.006 C 
ENDBRANCH   8  11
ENDBRANCH   7   8
ENDBRANCH   1   7
BRANCH   6  13
ATOM     13  N   LIG d   1       2.723  84.407 115.574  0.00  0.00    -0.311 N 
ATOM     14  C   LIG d   1       1.647  83.623 115.552  0.00  0.00     0.210 C 
ATOM     15  C   LIG d   1       1.603  82.553 116.647  0.00  0.00     0.109 C 
ATOM     16  O   LIG d   1       0.740  83.691 114.709  0.00  0.00    -0.276 OA
ATOM     17  H   LIG d   1       3.425  84.261 116.273  0.00  0.00     0.149 HD
ENDBRANCH   6  13
BRANCH   5  18
ATOM     18  N   LIG d   1       4.264  84.152 112.948  0.00  0.00     0.381 N 
ATOM     19  H   LIG d   1       4.432  83.335 113.500  0.00  0.00    -0.090 HD
ATOM     20  H   LIG d   1       5.008  84.238 112.278  0.00  0.00    -0.090 HD
ATOM     21  H   LIG d   1       3.390  84.070 112.477  0.00  0.00    -0.090 HD
ENDBRANCH   5  18
BRANCH   3  22
ATOM     22  C   LIG d   1       5.078  88.868 113.139  0.00  0.00     0.382 C 
ATOM     23  O   LIG d   1       6.279  88.719 112.807  0.00  0.00    -0.241 OA
ATOM     24  O   LIG d   1       4.565  90.002 113.091  0.00  0.00    -0.241 OA
ENDBRANCH   3  22
TORSDOF 7
ENDMDL
MODEL 7
REMARK VINA RESULT:      -4.2      3.308      5.422
REMARK  7 active torsions:
REMARK  status: ('A' for Active; 'I' for Inactive)
REMARK    1  A    between atoms: C_2  and  C_3 
REMARK    2  A    between atoms: C_3  and  O_6 
REMARK    3  A    between atoms: C_3  and  C_4 
REMARK    4  A    between atoms: C_7  and  O_6 
REMARK    5  A    between atoms: C_9  and  C_10 
REMARK    6  A    between atoms: N_15  and  C_14 
REMARK    7  A    between atoms: N_20  and  C_19 
REMARK       I    between atoms: C_22  and  N_20 
ROOT
ATOM      1  C   LIG d   1      -1.975  77.504 116.960  0.00  0.00     0.161 C 
ATOM      2  C   LIG d   1      -2.871  76.585 116.390  0.00  0.00     0.016 C 
ATOM      3  C   LIG d   1      -2.955  76.340 115.000  0.00  0.00     0.038 C 
ATOM      4  C   LIG d   1      -2.038  76.891 114.093  0.00  0.00     0.028 C 
ATOM      5  C   LIG d   1      -1.440  78.213 114.564  0.00  0.00    -0.047 C 
ATOM      6  C   LIG d   1      -0.890  78.032 115.998  0.00  0.00     0.091 C 
ENDROOT
BRANCH   1   7
ATOM      7  O   LIG d   1      -1.366  76.930 118.134  0.00  0.00    -0.368 OA
BRANCH   7   8
ATOM      8  C   LIG d   1      -1.046  75.518 118.059  0.00  0.00     0.119 C 
BRANCH   8   9
ATOM      9  C   LIG d   1      -0.858  75.010 119.502  0.00  0.00     0.028 C 
ATOM     10  C   LIG d   1      -0.496  73.516 119.554  0.00  0.00     0.006 C 
ENDBRANCH   8   9
BRANCH   8  11
ATOM     11  C   LIG d   1       0.302  75.289 117.369  0.00  0.00     0.028 C 
ATOM     12  C   LIG d   1       0.180  74.447 116.089  0.00  0.00     0.006 C 
ENDBRANCH   8  11
ENDBRANCH   7   8
ENDBRANCH   1   7
BRANCH   6  13
ATOM     13  N   LIG d   1      -0.363  79.300 116.566  0.00  0.00    -0.311 N 
ATOM     14  C   LIG d   1       0.799  79.387 117.212  0.00  0.00     0.210 C 
ATOM     15  C   LIG d   1       1.145  80.784 117.736  0.00  0.00     0.109 C 
ATOM     16  O   LIG d   1       1.590  78.446 117.373  0.00  0.00    -0.276 OA
ATOM     17  H   LIG d   1      -0.927  80.120 116.454  0.00  0.00     0.149 HD
ENDBRANCH   6  13
BRANCH   5  18
ATOM     18  N   LIG d   1      -0.402  78.604 113.592  0.00  0.00     0.381 N 
ATOM     19  H   LIG d   1      -0.488  79.577 113.377  0.00  0.00    -0.090 HD
ATOM     20  H   LIG d   1      -0.536  78.081 112.744  0.00  0.00    -0.090 HD
ATOM     21  H   LIG d   1       0.503  78.417 113.965  0.00  0.00    -0.090 HD
ENDBRANCH   5  18
BRANCH   3  22
ATOM     22  C   LIG d   1      -3.992  75.567 114.500  0.00  0.00     0.382 C 
ATOM     23  O   LIG d   1      -4.342  74.523 115.102  0.00  0.00    -0.241 OA
ATOM     24  O   LIG d   1      -4.551  75.875 113.431  0.00  0.00    -0.241 OA
ENDBRANCH   3  22
TORSDOF 7
ENDMDL
MODEL 8
REMARK VINA RESULT:      -4.2     14.018     17.081
REMARK  7 active torsions:
REMARK  status: ('A' for Active; 'I' for Inactive)
REMARK    1  A    between atoms: C_2  and  C_3 
REMARK    2  A    between atoms: C_3  and  O_6 
REMARK    3  A    between atoms: C_3  and  C_4 
REMARK    4  A    between atoms: C_7  and  O_6 
REMARK    5  A    between atoms: C_9  and  C_10 
REMARK    6  A    between atoms: N_15  and  C_14 
REMARK    7  A    between atoms: N_20  and  C_19 
REMARK       I    between atoms: C_22  and  N_20 
ROOT
ATOM      1  C   LIG d   1      12.040  76.793 114.043  0.00  0.00     0.161 C 
ATOM      2  C   LIG d   1      11.566  75.508 114.356  0.00  0.00     0.016 C 
ATOM      3  C   LIG d   1      12.367  74.507 114.953  0.00  0.00     0.038 C 
ATOM      4  C   LIG d   1      13.663  74.775 115.418  0.00  0.00     0.028 C 
ATOM      5  C   LIG d   1      14.354  75.909 114.669  0.00  0.00    -0.047 C 
ATOM      6  C   LIG d   1      13.418  77.139 114.645  0.00  0.00     0.091 C 
ENDROOT
BRANCH   1   7
ATOM      7  O   LIG d   1      11.063  77.781 114.428  0.00  0.00    -0.368 OA
BRANCH   7   8
ATOM      8  C   LIG d   1      10.141  77.392 115.475  0.00  0.00     0.119 C 
BRANCH   8   9
ATOM      9  C   LIG d   1       8.768  78.003 115.134  0.00  0.00     0.028 C 
ATOM     10  C   LIG d   1       7.846  78.097 116.361  0.00  0.00     0.006 C 
ENDBRANCH   8   9
BRANCH   8  11
ATOM     11  C   LIG d   1      10.535  78.005 116.822  0.00  0.00     0.028 C 
ATOM     12  C   LIG d   1      11.181  76.987 117.774  0.00  0.00     0.006 C 
ENDBRANCH   8  11
ENDBRANCH   7   8
ENDBRANCH   1   7
BRANCH   6  13
ATOM     13  N   LIG d   1      13.983  78.266 113.859  0.00  0.00    -0.311 N 
ATOM     14  C   LIG d   1      14.709  79.244 114.397  0.00  0.00     0.210 C 
ATOM     15  C   LIG d   1      15.177  80.319 113.411  0.00  0.00     0.109 C 
ATOM     16  O   LIG d   1      15.036  79.307 115.591  0.00  0.00    -0.276 OA
ATOM     17  H   LIG d   1      13.792  78.277 112.876  0.00  0.00     0.149 HD
ENDBRANCH   6  13
BRANCH   5  18
ATOM     18  N   LIG d   1      15.638  76.172 115.345  0.00  0.00     0.381 N 
ATOM     19  H   LIG d   1      15.471  76.565 116.249  0.00  0.00    -0.090 HD
ATOM     20  H   LIG d   1      16.160  76.839 114.803  0.00  0.00    -0.090 HD
ATOM     21  H   LIG d   1      16.157  75.326 115.433  0.00  0.00    -0.090 HD
ENDBRANCH   5  18
BRANCH   3  22
ATOM     22  C   LIG d   1      11.885  73.211 115.052  0.00  0.00     0.382 C 
ATOM     23  O   LIG d   1      10.895  72.856 114.369  0.00  0.00    -0.241 OA
ATOM     24  O   LIG d   1      12.401  72.405 115.849  0.00  0.00    -0.241 OA
ENDBRANCH   3  22
TORSDOF 7
ENDMDL
MODEL 9
REMARK VINA RESULT:      -4.2     13.457     17.016
REMARK  7 active torsions:
REMARK  status: ('A' for Active; 'I' for Inactive)
REMARK    1  A    between atoms: C_2  and  C_3 
REMARK    2  A    between atoms: C_3  and  O_6 
REMARK    3  A    between atoms: C_3  and  C_4 
REMARK    4  A    between atoms: C_7  and  O_6 
REMARK    5  A    between atoms: C_9  and  C_10 
REMARK    6  A    between atoms: N_15  and  C_14 
REMARK    7  A    between atoms: N_20  and  C_19 
REMARK       I    between atoms: C_22  and  N_20 
ROOT
ATOM      1  C   LIG d   1      11.063  76.304 115.018  0.00  0.00     0.161 C 
ATOM      2  C   LIG d   1       9.976  77.170 114.811  0.00  0.00     0.016 C 
ATOM      3  C   LIG d   1       9.408  77.963 115.834  0.00  0.00     0.038 C 
ATOM      4  C   LIG d   1       9.988  78.058 117.108  0.00  0.00     0.028 C 
ATOM      5  C   LIG d   1      10.783  76.819 117.505  0.00  0.00    -0.047 C 
ATOM      6  C   LIG d   1      11.779  76.478 116.374  0.00  0.00     0.091 C 
ENDROOT
BRANCH   1   7
ATOM      7  O   LIG d   1      12.004  76.434 113.934  0.00  0.00    -0.368 OA
BRANCH   7   8
ATOM      8  C   LIG d   1      13.073  77.392 114.129  0.00  0.00     0.119 C 
BRANCH   8   9
ATOM      9  C   LIG d   1      12.910  78.491 113.060  0.00  0.00     0.028 C 
ATOM     10  C   LIG d   1      13.084  79.904 113.641  0.00  0.00     0.006 C 
ENDBRANCH   8   9
BRANCH   8  11
ATOM     11  C   LIG d   1      14.443  76.763 113.858  0.00  0.00     0.028 C 
ATOM     12  C   LIG d   1      15.574  77.434 114.653  0.00  0.00     0.006 C 
ENDBRANCH   8  11
ENDBRANCH   7   8
ENDBRANCH   1   7
BRANCH   6  13
ATOM     13  N   LIG d   1      12.539  75.229 116.644  0.00  0.00    -0.311 N 
ATOM     14  C   LIG d   1      13.728  75.210 117.244  0.00  0.00     0.210 C 
ATOM     15  C   LIG d   1      14.347  73.818 117.407  0.00  0.00     0.109 C 
ATOM     16  O   LIG d   1      14.314  76.210 117.684  0.00  0.00    -0.276 OA
ATOM     17  H   LIG d   1      12.122  74.368 116.348  0.00  0.00     0.149 HD
ENDBRANCH   6  13
BRANCH   5  18
ATOM     18  N   LIG d   1      11.445  77.107 118.791  0.00  0.00     0.381 N 
ATOM     19  H   LIG d   1      10.756  77.233 119.506  0.00  0.00    -0.090 HD
ATOM     20  H   LIG d   1      11.967  77.961 118.703  0.00  0.00    -0.090 HD
ATOM     21  H   LIG d   1      12.056  76.359 119.036  0.00  0.00    -0.090 HD
ENDBRANCH   5  18
BRANCH   3  22
ATOM     22  C   LIG d   1       8.222  78.642 115.598  0.00  0.00     0.382 C 
ATOM     23  O   LIG d   1       7.596  78.457 114.527  0.00  0.00    -0.241 OA
ATOM     24  O   LIG d   1       7.793  79.470 116.424  0.00  0.00    -0.241 OA
ENDBRANCH   3  22
TORSDOF 7
ENDMDL
