MODEL 1
REMARK VINA RESULT:      -5.7      0.000      0.000
REMARK  7 active torsions:
REMARK  status: ('A' for Active; 'I' for Inactive)
REMARK    1  A    between atoms: C_2  and  C_3 
REMARK    2  A    between atoms: C_3  and  O_6 
REMARK    3  A    between atoms: C_3  and  C_4 
REMARK    4  A    between atoms: C_7  and  O_6 
REMARK    5  A    between atoms: C_9  and  C_10 
REMARK    6  A    between atoms: N_15  and  C_14 
REMARK    7  A    between atoms: N_20  and  C_19 
REMARK       I    between atoms: C_22  and  N_20 
ROOT
ATOM      1  C   LIG d   1      -7.257  76.094 117.252  0.00  0.00     0.161 C 
ATOM      2  C   LIG d   1      -6.501  75.465 116.249  0.00  0.00     0.016 C 
ATOM      3  C   LIG d   1      -5.101  75.616 116.119  0.00  0.00     0.038 C 
ATOM      4  C   LIG d   1      -4.336  76.290 117.083  0.00  0.00     0.028 C 
ATOM      5  C   LIG d   1      -5.117  77.362 117.835  0.00  0.00    -0.047 C 
ATOM      6  C   LIG d   1      -6.424  76.742 118.378  0.00  0.00     0.091 C 
ENDROOT
BRANCH   1   7
ATOM      7  O   LIG d   1      -8.206  75.161 117.805  0.00  0.00    -0.368 OA
BRANCH   7   8
ATOM      8  C   LIG d   1      -9.589  75.594 117.823  0.00  0.00     0.119 C 
BRANCH   8   9
ATOM      9  C   LIG d   1     -10.087  75.490 119.278  0.00  0.00     0.028 C 
ATOM     10  C   LIG d   1     -11.561  75.906 119.424  0.00  0.00     0.006 C 
ENDBRANCH   8   9
BRANCH   8  11
ATOM     11  C   LIG d   1     -10.481  74.643 117.020  0.00  0.00     0.028 C 
ATOM     12  C   LIG d   1     -10.113  73.165 117.225  0.00  0.00     0.006 C 
ENDBRANCH   8  11
ENDBRANCH   7   8
ENDBRANCH   1   7
BRANCH   6  13
ATOM     13  N   LIG d   1      -7.288  77.745 119.055  0.00  0.00    -0.311 N 
ATOM     14  C   LIG d   1      -7.397  79.010 118.653  0.00  0.00     0.210 C 
ATOM     15  C   LIG d   1      -8.326  79.881 119.505  0.00  0.00     0.109 C 
ATOM     16  O   LIG d   1      -6.838  79.484 117.653  0.00  0.00    -0.276 OA
ATOM     17  H   LIG d   1      -7.802  77.436 119.858  0.00  0.00     0.149 HD
ENDBRANCH   6  13
BRANCH   5  18
ATOM     18  N   LIG d   1      -4.240  77.887 118.899  0.00  0.00     0.381 N 
ATOM     19  H   LIG d   1      -3.385  77.368 118.921  0.00  0.00    -0.090 HD
ATOM     20  H   LIG d   1      -4.700  77.773 119.785  0.00  0.00    -0.090 HD
ATOM     21  H   LIG d   1      -4.048  78.851 118.738  0.00  0.00    -0.090 HD
ENDBRANCH   5  18
BRANCH   3  22
ATOM     22  C   LIG d   1      -4.458  75.123 114.994  0.00  0.00     0.382 C 
ATOM     23  O   LIG d   1      -5.127  74.774 113.992  0.00  0.00    -0.241 OA
ATOM     24  O   LIG d   1      -3.221  74.981 114.985  0.00  0.00    -0.241 OA
ENDBRANCH   3  22
TORSDOF 7
ENDMDL
MODEL 2
REMARK VINA RESULT:      -5.6     14.484     16.383
REMARK  7 active torsions:
REMARK  status: ('A' for Active; 'I' for Inactive)
REMARK    1  A    between atoms: C_2  and  C_3 
REMARK    2  A    between atoms: C_3  and  O_6 
REMARK    3  A    between atoms: C_3  and  C_4 
REMARK    4  A    between atoms: C_7  and  O_6 
REMARK    5  A    between atoms: C_9  and  C_10 
REMARK    6  A    between atoms: N_15  and  C_14 
REMARK    7  A    between atoms: N_20  and  C_19 
REMARK       I    between atoms: C_22  and  N_20 
ROOT
ATOM      1  C   LIG d   1       1.526  88.656 116.403  0.00  0.00     0.161 C 
ATOM      2  C   LIG d   1       0.154  88.617 116.703  0.00  0.00     0.016 C 
ATOM      3  C   LIG d   1      -0.546  89.699 117.284  0.00  0.00     0.038 C 
ATOM      4  C   LIG d   1       0.050  90.956 117.467  0.00  0.00     0.028 C 
ATOM      5  C   LIG d   1       1.563  90.888 117.647  0.00  0.00    -0.047 C 
ATOM      6  C   LIG d   1       2.169  90.056 116.493  0.00  0.00     0.091 C 
ENDROOT
BRANCH   1   7
ATOM      7  O   LIG d   1       1.758  88.080 115.102  0.00  0.00    -0.368 OA
BRANCH   7   8
ATOM      8  C   LIG d   1       2.177  86.693 115.084  0.00  0.00     0.119 C 
BRANCH   8   9
ATOM      9  C   LIG d   1       2.955  86.428 116.387  0.00  0.00     0.028 C 
ATOM     10  C   LIG d   1       4.461  86.234 116.142  0.00  0.00     0.006 C 
ENDBRANCH   8   9
BRANCH   8  11
ATOM     11  C   LIG d   1       3.175  86.427 113.954  0.00  0.00     0.028 C 
ATOM     12  C   LIG d   1       3.064  87.446 112.809  0.00  0.00     0.006 C 
ENDBRANCH   8  11
ENDBRANCH   7   8
ENDBRANCH   1   7
BRANCH   6  13
ATOM     13  N   LIG d   1       3.636  89.869 116.638  0.00  0.00    -0.311 N 
ATOM     14  C   LIG d   1       4.490  89.951 115.619  0.00  0.00     0.210 C 
ATOM     15  C   LIG d   1       5.957  89.705 115.984  0.00  0.00     0.109 C 
ATOM     16  O   LIG d   1       4.175  90.235 114.454  0.00  0.00    -0.276 OA
ATOM     17  H   LIG d   1       3.981  89.666 117.556  0.00  0.00     0.149 HD
ENDBRANCH   6  13
BRANCH   5  18
ATOM     18  N   LIG d   1       2.070  92.273 117.689  0.00  0.00     0.381 N 
ATOM     19  H   LIG d   1       1.311  92.914 117.570  0.00  0.00    -0.090 HD
ATOM     20  H   LIG d   1       2.717  92.405 116.931  0.00  0.00    -0.090 HD
ATOM     21  H   LIG d   1       2.525  92.443 118.558  0.00  0.00    -0.090 HD
ENDBRANCH   5  18
BRANCH   3  22
ATOM     22  C   LIG d   1      -1.848  89.517 117.726  0.00  0.00     0.382 C 
ATOM     23  O   LIG d   1      -2.097  88.656 118.604  0.00  0.00    -0.241 OA
ATOM     24  O   LIG d   1      -2.782  90.172 117.227  0.00  0.00    -0.241 OA
ENDBRANCH   3  22
TORSDOF 7
ENDMDL
MODEL 3
REMARK VINA RESULT:      -5.5      1.797      4.873
REMARK  7 active torsions:
REMARK  status: ('A' for Active; 'I' for Inactive)
REMARK    1  A    between atoms: C_2  and  C_3 
REMARK    2  A    between atoms: C_3  and  O_6 
REMARK    3  A    between atoms: C_3  and  C_4 
REMARK    4  A    between atoms: C_7  and  O_6 
REMARK    5  A    between atoms: C_9  and  C_10 
REMARK    6  A    between atoms: N_15  and  C_14 
REMARK    7  A    between atoms: N_20  and  C_19 
REMARK       I    between atoms: C_22  and  N_20 
ROOT
ATOM      1  C   LIG d   1      -6.714  76.169 117.727  0.00  0.00     0.161 C 
ATOM      2  C   LIG d   1      -7.336  74.959 117.378  0.00  0.00     0.016 C 
ATOM      3  C   LIG d   1      -8.730  74.742 117.482  0.00  0.00     0.038 C 
ATOM      4  C   LIG d   1      -9.619  75.778 117.803  0.00  0.00     0.028 C 
ATOM      5  C   LIG d   1      -8.988  76.878 118.651  0.00  0.00    -0.047 C 
ATOM      6  C   LIG d   1      -7.681  77.346 117.973  0.00  0.00     0.091 C 
ENDROOT
BRANCH   1   7
ATOM      7  O   LIG d   1      -5.738  76.523 116.727  0.00  0.00    -0.368 OA
BRANCH   7   8
ATOM      8  C   LIG d   1      -4.915  75.439 116.228  0.00  0.00     0.119 C 
BRANCH   8   9
ATOM      9  C   LIG d   1      -3.478  75.681 116.729  0.00  0.00     0.028 C 
ATOM     10  C   LIG d   1      -2.451  74.782 116.021  0.00  0.00     0.006 C 
ENDBRANCH   8   9
BRANCH   8  11
ATOM     11  C   LIG d   1      -4.822  75.469 114.700  0.00  0.00     0.028 C 
ATOM     12  C   LIG d   1      -6.141  75.885 114.030  0.00  0.00     0.006 C 
ENDBRANCH   8  11
ENDBRANCH   7   8
ENDBRANCH   1   7
BRANCH   6  13
ATOM     13  N   LIG d   1      -6.956  78.362 118.780  0.00  0.00    -0.311 N 
ATOM     14  C   LIG d   1      -7.127  79.675 118.631  0.00  0.00     0.210 C 
ATOM     15  C   LIG d   1      -6.266  80.547 119.551  0.00  0.00     0.109 C 
ATOM     16  O   LIG d   1      -7.932  80.199 117.847  0.00  0.00    -0.276 OA
ATOM     17  H   LIG d   1      -6.306  78.024 119.462  0.00  0.00     0.149 HD
ENDBRANCH   6  13
BRANCH   5  18
ATOM     18  N   LIG d   1      -9.984  77.957 118.794  0.00  0.00     0.381 N 
ATOM     19  H   LIG d   1     -10.458  77.866 119.671  0.00  0.00    -0.090 HD
ATOM     20  H   LIG d   1     -10.664  77.872 118.059  0.00  0.00    -0.090 HD
ATOM     21  H   LIG d   1      -9.535  78.844 118.741  0.00  0.00    -0.090 HD
ENDBRANCH   5  18
BRANCH   3  22
ATOM     22  C   LIG d   1      -9.242  73.466 117.304  0.00  0.00     0.382 C 
ATOM     23  O   LIG d   1      -8.467  72.480 117.257  0.00  0.00    -0.241 OA
ATOM     24  O   LIG d   1     -10.465  73.293 117.145  0.00  0.00    -0.241 OA
ENDBRANCH   3  22
TORSDOF 7
ENDMDL
MODEL 4
REMARK VINA RESULT:      -5.5      3.650      6.020
REMARK  7 active torsions:
REMARK  status: ('A' for Active; 'I' for Inactive)
REMARK    1  A    between atoms: C_2  and  C_3 
REMARK    2  A    between atoms: C_3  and  O_6 
REMARK    3  A    between atoms: C_3  and  C_4 
REMARK    4  A    between atoms: C_7  and  O_6 
REMARK    5  A    between atoms: C_9  and  C_10 
REMARK    6  A    between atoms: N_15  and  C_14 
REMARK    7  A    between atoms: N_20  and  C_19 
REMARK       I    between atoms: C_22  and  N_20 
ROOT
ATOM      1  C   LIG d   1      -3.159  74.621 116.109  0.00  0.00     0.161 C 
ATOM      2  C   LIG d   1      -2.231  75.452 115.460  0.00  0.00     0.016 C 
ATOM      3  C   LIG d   1      -2.590  76.395 114.470  0.00  0.00     0.038 C 
ATOM      4  C   LIG d   1      -3.930  76.680 114.168  0.00  0.00     0.028 C 
ATOM      5  C   LIG d   1      -4.872  75.511 114.435  0.00  0.00    -0.047 C 
ATOM      6  C   LIG d   1      -4.637  74.995 115.873  0.00  0.00     0.091 C 
ENDROOT
BRANCH   1   7
ATOM      7  O   LIG d   1      -2.873  74.578 117.521  0.00  0.00    -0.368 OA
BRANCH   7   8
ATOM      8  C   LIG d   1      -2.022  75.635 118.032  0.00  0.00     0.119 C 
BRANCH   8   9
ATOM      9  C   LIG d   1      -1.010  74.988 118.997  0.00  0.00     0.028 C 
ATOM     10  C   LIG d   1      -1.187  73.464 119.099  0.00  0.00     0.006 C 
ENDBRANCH   8   9
BRANCH   8  11
ATOM     11  C   LIG d   1      -2.818  76.628 118.883  0.00  0.00     0.028 C 
ATOM     12  C   LIG d   1      -3.212  77.895 118.108  0.00  0.00     0.006 C 
ENDBRANCH   8  11
ENDBRANCH   7   8
ENDBRANCH   1   7
BRANCH   6  13
ATOM     13  N   LIG d   1      -5.460  73.798 116.187  0.00  0.00    -0.311 N 
ATOM     14  C   LIG d   1      -6.681  73.865 116.715  0.00  0.00     0.210 C 
ATOM     15  C   LIG d   1      -7.347  72.511 116.979  0.00  0.00     0.109 C 
ATOM     16  O   LIG d   1      -7.289  74.918 116.959  0.00  0.00    -0.276 OA
ATOM     17  H   LIG d   1      -5.056  72.903 115.992  0.00  0.00     0.149 HD
ENDBRANCH   6  13
BRANCH   5  18
ATOM     18  N   LIG d   1      -6.249  75.988 114.209  0.00  0.00     0.381 N 
ATOM     19  H   LIG d   1      -6.438  76.772 114.802  0.00  0.00    -0.090 HD
ATOM     20  H   LIG d   1      -6.891  75.252 114.446  0.00  0.00    -0.090 HD
ATOM     21  H   LIG d   1      -6.368  76.248 113.255  0.00  0.00    -0.090 HD
ENDBRANCH   5  18
BRANCH   3  22
ATOM     22  C   LIG d   1      -1.600  77.037 113.742  0.00  0.00     0.382 C 
ATOM     23  O   LIG d   1      -1.021  76.436 112.805  0.00  0.00    -0.241 OA
ATOM     24  O   LIG d   1      -1.248  78.195 114.038  0.00  0.00    -0.241 OA
ENDBRANCH   3  22
TORSDOF 7
ENDMDL
MODEL 5
REMARK VINA RESULT:      -5.4      2.114      5.151
REMARK  7 active torsions:
REMARK  status: ('A' for Active; 'I' for Inactive)
REMARK    1  A    between atoms: C_2  and  C_3 
REMARK    2  A    between atoms: C_3  and  O_6 
REMARK    3  A    between atoms: C_3  and  C_4 
REMARK    4  A    between atoms: C_7  and  O_6 
REMARK    5  A    between atoms: C_9  and  C_10 
REMARK    6  A    between atoms: N_15  and  C_14 
REMARK    7  A    between atoms: N_20  and  C_19 
REMARK       I    between atoms: C_22  and  N_20 
ROOT
ATOM      1  C   LIG d   1      -7.580  77.003 117.684  0.00  0.00     0.161 C 
ATOM      2  C   LIG d   1      -8.720  76.237 117.979  0.00  0.00     0.016 C 
ATOM      3  C   LIG d   1      -8.822  74.854 117.701  0.00  0.00     0.038 C 
ATOM      4  C   LIG d   1      -7.726  74.107 117.244  0.00  0.00     0.028 C 
ATOM      5  C   LIG d   1      -6.714  74.934 116.458  0.00  0.00    -0.047 C 
ATOM      6  C   LIG d   1      -6.334  76.182 117.287  0.00  0.00     0.091 C 
ENDROOT
BRANCH   1   7
ATOM      7  O   LIG d   1      -7.275  77.873 118.792  0.00  0.00    -0.368 OA
BRANCH   7   8
ATOM      8  C   LIG d   1      -7.495  79.287 118.571  0.00  0.00     0.119 C 
BRANCH   8   9
ATOM      9  C   LIG d   1      -6.208  80.027 118.986  0.00  0.00     0.028 C 
ATOM     10  C   LIG d   1      -5.432  80.577 117.778  0.00  0.00     0.006 C 
ENDBRANCH   8   9
BRANCH   8  11
ATOM     11  C   LIG d   1      -8.590  79.831 119.493  0.00  0.00     0.028 C 
ATOM     12  C   LIG d   1      -9.992  79.747 118.868  0.00  0.00     0.006 C 
ENDBRANCH   8  11
ENDBRANCH   7   8
ENDBRANCH   1   7
BRANCH   6  13
ATOM     13  N   LIG d   1      -5.412  77.090 116.555  0.00  0.00    -0.311 N 
ATOM     14  C   LIG d   1      -4.088  77.060 116.697  0.00  0.00     0.210 C 
ATOM     15  C   LIG d   1      -3.325  78.095 115.865  0.00  0.00     0.109 C 
ATOM     16  O   LIG d   1      -3.471  76.253 117.409  0.00  0.00    -0.276 OA
ATOM     17  H   LIG d   1      -5.826  77.756 115.933  0.00  0.00     0.149 HD
ENDBRANCH   6  13
BRANCH   5  18
ATOM     18  N   LIG d   1      -5.561  74.064 116.162  0.00  0.00     0.381 N 
ATOM     19  H   LIG d   1      -5.745  73.135 116.485  0.00  0.00    -0.090 HD
ATOM     20  H   LIG d   1      -4.755  74.414 116.651  0.00  0.00    -0.090 HD
ATOM     21  H   LIG d   1      -5.384  74.053 115.182  0.00  0.00    -0.090 HD
ENDBRANCH   5  18
BRANCH   3  22
ATOM     22  C   LIG d   1     -10.043  74.213 117.844  0.00  0.00     0.382 C 
ATOM     23  O   LIG d   1     -10.294  73.186 117.168  0.00  0.00    -0.241 OA
ATOM     24  O   LIG d   1     -10.913  74.674 118.606  0.00  0.00    -0.241 OA
ENDBRANCH   3  22
TORSDOF 7
ENDMDL
MODEL 6
REMARK VINA RESULT:      -5.3      2.066      5.275
REMARK  7 active torsions:
REMARK  status: ('A' for Active; 'I' for Inactive)
REMARK    1  A    between atoms: C_2  and  C_3 
REMARK    2  A    between atoms: C_3  and  O_6 
REMARK    3  A    between atoms: C_3  and  C_4 
REMARK    4  A    between atoms: C_7  and  O_6 
REMARK    5  A    between atoms: C_9  and  C_10 
REMARK    6  A    between atoms: N_15  and  C_14 
REMARK    7  A    between atoms: N_20  and  C_19 
REMARK       I    between atoms: C_22  and  N_20 
ROOT
ATOM      1  C   LIG d   1      -6.414  77.180 117.119  0.00  0.00     0.161 C 
ATOM      2  C   LIG d   1      -5.619  78.329 117.264  0.00  0.00     0.016 C 
ATOM      3  C   LIG d   1      -5.976  79.424 118.083  0.00  0.00     0.038 C 
ATOM      4  C   LIG d   1      -7.089  79.379 118.937  0.00  0.00     0.028 C 
ATOM      5  C   LIG d   1      -8.191  78.446 118.447  0.00  0.00    -0.047 C 
ATOM      6  C   LIG d   1      -7.575  77.065 118.128  0.00  0.00     0.091 C 
ENDROOT
BRANCH   1   7
ATOM      7  O   LIG d   1      -5.584  76.002 117.173  0.00  0.00    -0.368 OA
BRANCH   7   8
ATOM      8  C   LIG d   1      -4.860  75.675 115.962  0.00  0.00     0.119 C 
BRANCH   8   9
ATOM      9  C   LIG d   1      -5.651  74.573 115.232  0.00  0.00     0.028 C 
ATOM     10  C   LIG d   1      -6.349  73.609 116.207  0.00  0.00     0.006 C 
ENDBRANCH   8   9
BRANCH   8  11
ATOM     11  C   LIG d   1      -3.496  75.054 116.278  0.00  0.00     0.028 C 
ATOM     12  C   LIG d   1      -2.756  75.786 117.409  0.00  0.00     0.006 C 
ENDBRANCH   8  11
ENDBRANCH   7   8
ENDBRANCH   1   7
BRANCH   6  13
ATOM     13  N   LIG d   1      -8.571  76.118 117.562  0.00  0.00    -0.311 N 
ATOM     14  C   LIG d   1      -9.255  75.245 118.300  0.00  0.00     0.210 C 
ATOM     15  C   LIG d   1     -10.216  74.347 117.515  0.00  0.00     0.109 C 
ATOM     16  O   LIG d   1      -9.180  75.152 119.535  0.00  0.00    -0.276 OA
ATOM     17  H   LIG d   1      -8.717  76.147 116.572  0.00  0.00     0.149 HD
ENDBRANCH   6  13
BRANCH   5  18
ATOM     18  N   LIG d   1      -9.226  78.389 119.496  0.00  0.00     0.381 N 
ATOM     19  H   LIG d   1      -8.806  78.158 120.374  0.00  0.00    -0.090 HD
ATOM     20  H   LIG d   1      -9.887  77.669 119.263  0.00  0.00    -0.090 HD
ATOM     21  H   LIG d   1      -9.692  79.268 119.564  0.00  0.00    -0.090 HD
ENDBRANCH   5  18
BRANCH   3  22
ATOM     22  C   LIG d   1      -5.239  80.596 118.024  0.00  0.00     0.382 C 
ATOM     23  O   LIG d   1      -4.186  80.709 118.696  0.00  0.00    -0.241 OA
ATOM     24  O   LIG d   1      -5.637  81.559 117.341  0.00  0.00    -0.241 OA
ENDBRANCH   3  22
TORSDOF 7
ENDMDL
MODEL 7
REMARK VINA RESULT:      -5.1      2.283      5.963
REMARK  7 active torsions:
REMARK  status: ('A' for Active; 'I' for Inactive)
REMARK    1  A    between atoms: C_2  and  C_3 
REMARK    2  A    between atoms: C_3  and  O_6 
REMARK    3  A    between atoms: C_3  and  C_4 
REMARK    4  A    between atoms: C_7  and  O_6 
REMARK    5  A    between atoms: C_9  and  C_10 
REMARK    6  A    between atoms: N_15  and  C_14 
REMARK    7  A    between atoms: N_20  and  C_19 
REMARK       I    between atoms: C_22  and  N_20 
ROOT
ATOM      1  C   LIG d   1      -6.652  77.142 117.248  0.00  0.00     0.161 C 
ATOM      2  C   LIG d   1      -7.945  76.937 117.759  0.00  0.00     0.016 C 
ATOM      3  C   LIG d   1      -8.592  75.680 117.756  0.00  0.00     0.038 C 
ATOM      4  C   LIG d   1      -7.928  74.504 117.376  0.00  0.00     0.028 C 
ATOM      5  C   LIG d   1      -6.797  74.742 116.382  0.00  0.00    -0.047 C 
ATOM      6  C   LIG d   1      -5.870  75.850 116.931  0.00  0.00     0.091 C 
ENDROOT
BRANCH   1   7
ATOM      7  O   LIG d   1      -5.898  77.977 118.148  0.00  0.00    -0.368 OA
BRANCH   7   8
ATOM      8  C   LIG d   1      -5.519  79.281 117.641  0.00  0.00     0.119 C 
BRANCH   8   9
ATOM      9  C   LIG d   1      -4.012  79.461 117.907  0.00  0.00     0.028 C 
ATOM     10  C   LIG d   1      -3.416  78.299 118.720  0.00  0.00     0.006 C 
ENDBRANCH   8   9
BRANCH   8  11
ATOM     11  C   LIG d   1      -6.206  80.403 118.424  0.00  0.00     0.028 C 
ATOM     12  C   LIG d   1      -5.816  81.803 117.924  0.00  0.00     0.006 C 
ENDBRANCH   8  11
ENDBRANCH   7   8
ENDBRANCH   1   7
BRANCH   6  13
ATOM     13  N   LIG d   1      -4.784  76.204 115.980  0.00  0.00    -0.311 N 
ATOM     14  C   LIG d   1      -3.569  75.659 116.020  0.00  0.00     0.210 C 
ATOM     15  C   LIG d   1      -2.592  76.180 114.960  0.00  0.00     0.109 C 
ATOM     16  O   LIG d   1      -3.217  74.771 116.811  0.00  0.00    -0.276 OA
ATOM     17  H   LIG d   1      -4.992  76.894 115.286  0.00  0.00     0.149 HD
ENDBRANCH   6  13
BRANCH   5  18
ATOM     18  N   LIG d   1      -6.104  73.456 116.179  0.00  0.00     0.381 N 
ATOM     19  H   LIG d   1      -5.454  73.537 115.423  0.00  0.00    -0.090 HD
ATOM     20  H   LIG d   1      -6.782  72.755 115.938  0.00  0.00    -0.090 HD
ATOM     21  H   LIG d   1      -5.624  73.192 117.012  0.00  0.00    -0.090 HD
ENDBRANCH   5  18
BRANCH   3  22
ATOM     22  C   LIG d   1      -9.933  75.597 118.099  0.00  0.00     0.382 C 
ATOM     23  O   LIG d   1     -10.467  74.475 118.275  0.00  0.00    -0.241 OA
ATOM     24  O   LIG d   1     -10.627  76.628 118.191  0.00  0.00    -0.241 OA
ENDBRANCH   3  22
TORSDOF 7
ENDMDL
MODEL 8
REMARK VINA RESULT:      -5.1     17.949     20.571
REMARK  7 active torsions:
REMARK  status: ('A' for Active; 'I' for Inactive)
REMARK    1  A    between atoms: C_2  and  C_3 
REMARK    2  A    between atoms: C_3  and  O_6 
REMARK    3  A    between atoms: C_3  and  C_4 
REMARK    4  A    between atoms: C_7  and  O_6 
REMARK    5  A    between atoms: C_9  and  C_10 
REMARK    6  A    between atoms: N_15  and  C_14 
REMARK    7  A    between atoms: N_20  and  C_19 
REMARK       I    between atoms: C_22  and  N_20 
ROOT
ATOM      1  C   LIG d   1      12.313  73.955 114.720  0.00  0.00     0.161 C 
ATOM      2  C   LIG d   1      11.136  74.706 114.566  0.00  0.00     0.016 C 
ATOM      3  C   LIG d   1      11.127  76.070 114.195  0.00  0.00     0.038 C 
ATOM      4  C   LIG d   1      12.296  76.740 113.804  0.00  0.00     0.028 C 
ATOM      5  C   LIG d   1      13.562  76.165 114.430  0.00  0.00    -0.047 C 
ATOM      6  C   LIG d   1      13.591  74.638 114.190  0.00  0.00     0.091 C 
ENDROOT
BRANCH   1   7
ATOM      7  O   LIG d   1      12.149  72.659 114.111  0.00  0.00    -0.368 OA
BRANCH   7   8
ATOM      8  C   LIG d   1      11.911  71.554 115.017  0.00  0.00     0.119 C 
BRANCH   8   9
ATOM      9  C   LIG d   1      12.979  70.481 114.729  0.00  0.00     0.028 C 
ATOM     10  C   LIG d   1      13.891  70.220 115.940  0.00  0.00     0.006 C 
ENDBRANCH   8   9
BRANCH   8  11
ATOM     11  C   LIG d   1      10.568  70.877 114.731  0.00  0.00     0.028 C 
ATOM     12  C   LIG d   1      10.092  69.983 115.887  0.00  0.00     0.006 C 
ENDBRANCH   8  11
ENDBRANCH   7   8
ENDBRANCH   1   7
BRANCH   6  13
ATOM     13  N   LIG d   1      14.755  73.984 114.843  0.00  0.00    -0.311 N 
ATOM     14  C   LIG d   1      15.585  73.160 114.205  0.00  0.00     0.210 C 
ATOM     15  C   LIG d   1      16.708  72.578 115.069  0.00  0.00     0.109 C 
ATOM     16  O   LIG d   1      15.517  72.882 112.999  0.00  0.00    -0.276 OA
ATOM     17  H   LIG d   1      14.902  74.179 115.813  0.00  0.00     0.149 HD
ENDBRANCH   6  13
BRANCH   5  18
ATOM     18  N   LIG d   1      14.713  76.866 113.831  0.00  0.00     0.381 N 
ATOM     19  H   LIG d   1      14.487  77.831 113.691  0.00  0.00    -0.090 HD
ATOM     20  H   LIG d   1      14.914  76.457 112.936  0.00  0.00    -0.090 HD
ATOM     21  H   LIG d   1      15.508  76.787 114.427  0.00  0.00    -0.090 HD
ENDBRANCH   5  18
BRANCH   3  22
ATOM     22  C   LIG d   1       9.943  76.790 114.252  0.00  0.00     0.382 C 
ATOM     23  O   LIG d   1       8.863  76.249 113.911  0.00  0.00    -0.241 OA
ATOM     24  O   LIG d   1       9.947  77.987 114.598  0.00  0.00    -0.241 OA
ENDBRANCH   3  22
TORSDOF 7
ENDMDL
MODEL 9
REMARK VINA RESULT:      -5.0     17.596     19.706
REMARK  7 active torsions:
REMARK  status: ('A' for Active; 'I' for Inactive)
REMARK    1  A    between atoms: C_2  and  C_3 
REMARK    2  A    between atoms: C_3  and  O_6 
REMARK    3  A    between atoms: C_3  and  C_4 
REMARK    4  A    between atoms: C_7  and  O_6 
REMARK    5  A    between atoms: C_9  and  C_10 
REMARK    6  A    between atoms: N_15  and  C_14 
REMARK    7  A    between atoms: N_20  and  C_19 
REMARK       I    between atoms: C_22  and  N_20 
ROOT
ATOM      1  C   LIG d   1     -24.143  83.748 114.892  0.00  0.00     0.161 C 
ATOM      2  C   LIG d   1     -23.100  84.687 114.841  0.00  0.00     0.016 C 
ATOM      3  C   LIG d   1     -23.230  85.963 114.247  0.00  0.00     0.038 C 
ATOM      4  C   LIG d   1     -24.466  86.448 113.794  0.00  0.00     0.028 C 
ATOM      5  C   LIG d   1     -25.429  85.345 113.368  0.00  0.00    -0.047 C 
ATOM      6  C   LIG d   1     -25.530  84.300 114.503  0.00  0.00     0.091 C 
ENDROOT
BRANCH   1   7
ATOM      7  O   LIG d   1     -24.193  83.144 116.200  0.00  0.00    -0.368 OA
BRANCH   7   8
ATOM      8  C   LIG d   1     -23.337  81.994 116.405  0.00  0.00     0.119 C 
BRANCH   8   9
ATOM      9  C   LIG d   1     -24.227  80.737 116.346  0.00  0.00     0.028 C 
ATOM     10  C   LIG d   1     -24.143  80.021 114.988  0.00  0.00     0.006 C 
ENDBRANCH   8   9
BRANCH   8  11
ATOM     11  C   LIG d   1     -22.728  81.995 117.810  0.00  0.00     0.028 C 
ATOM     12  C   LIG d   1     -22.472  83.412 118.347  0.00  0.00     0.006 C 
ENDBRANCH   8  11
ENDBRANCH   7   8
ENDBRANCH   1   7
BRANCH   6  13
ATOM     13  N   LIG d   1     -26.387  83.143 114.134  0.00  0.00    -0.311 N 
ATOM     14  C   LIG d   1     -27.519  82.839 114.766  0.00  0.00     0.210 C 
ATOM     15  C   LIG d   1     -28.240  81.594 114.239  0.00  0.00     0.109 C 
ATOM     16  O   LIG d   1     -28.012  83.500 115.693  0.00  0.00    -0.276 OA
ATOM     17  H   LIG d   1     -26.079  82.571 113.373  0.00  0.00     0.149 HD
ENDBRANCH   6  13
BRANCH   5  18
ATOM     18  N   LIG d   1     -26.722  85.980 113.050  0.00  0.00     0.381 N 
ATOM     19  H   LIG d   1     -26.880  86.753 113.666  0.00  0.00    -0.090 HD
ATOM     20  H   LIG d   1     -27.457  85.309 113.191  0.00  0.00    -0.090 HD
ATOM     21  H   LIG d   1     -26.725  86.293 112.105  0.00  0.00    -0.090 HD
ENDBRANCH   5  18
BRANCH   3  22
ATOM     22  C   LIG d   1     -22.106  86.755 114.065  0.00  0.00     0.382 C 
ATOM     23  O   LIG d   1     -22.062  87.905 114.563  0.00  0.00    -0.241 OA
ATOM     24  O   LIG d   1     -21.154  86.350 113.372  0.00  0.00    -0.241 OA
ENDBRANCH   3  22
TORSDOF 7
ENDMDL
