MODEL 1
REMARK VINA RESULT:      -6.2      0.000      0.000
REMARK  7 active torsions:
REMARK  status: ('A' for Active; 'I' for Inactive)
REMARK    1  A    between atoms: C_2  and  C_3 
REMARK    2  A    between atoms: C_3  and  O_6 
REMARK    3  A    between atoms: C_3  and  C_4 
REMARK    4  A    between atoms: C_7  and  O_6 
REMARK    5  A    between atoms: C_9  and  C_10 
REMARK    6  A    between atoms: N_15  and  C_14 
REMARK    7  A    between atoms: N_20  and  C_19 
REMARK       I    between atoms: C_22  and  N_20 
ROOT
ATOM      1  C   LIG d   1      -7.651  76.553 117.457  0.00  0.00     0.161 C 
ATOM      2  C   LIG d   1      -8.926  76.990 117.855  0.00  0.00     0.016 C 
ATOM      3  C   LIG d   1      -9.244  78.347 118.093  0.00  0.00     0.038 C 
ATOM      4  C   LIG d   1      -8.344  79.382 117.801  0.00  0.00     0.028 C 
ATOM      5  C   LIG d   1      -6.882  78.953 117.879  0.00  0.00    -0.047 C 
ATOM      6  C   LIG d   1      -6.687  77.679 117.027  0.00  0.00     0.091 C 
ENDROOT
BRANCH   1   7
ATOM      7  O   LIG d   1      -7.776  75.572 116.409  0.00  0.00    -0.368 OA
BRANCH   7   8
ATOM      8  C   LIG d   1      -7.661  74.186 116.816  0.00  0.00     0.119 C 
BRANCH   8   9
ATOM      9  C   LIG d   1      -6.445  73.588 116.083  0.00  0.00     0.028 C 
ATOM     10  C   LIG d   1      -6.038  74.413 114.851  0.00  0.00     0.006 C 
ENDBRANCH   8   9
BRANCH   8  11
ATOM     11  C   LIG d   1      -8.864  73.365 116.344  0.00  0.00     0.028 C 
ATOM     12  C   LIG d   1      -8.921  71.969 116.983  0.00  0.00     0.006 C 
ENDBRANCH   8  11
ENDBRANCH   7   8
ENDBRANCH   1   7
BRANCH   6  13
ATOM     13  N   LIG d   1      -5.303  77.144 117.116  0.00  0.00    -0.311 N 
ATOM     14  C   LIG d   1      -4.346  77.439 116.238  0.00  0.00     0.210 C 
ATOM     15  C   LIG d   1      -2.996  76.765 116.503  0.00  0.00     0.109 C 
ATOM     16  O   LIG d   1      -4.477  78.220 115.284  0.00  0.00    -0.276 OA
ATOM     17  H   LIG d   1      -5.101  76.527 117.878  0.00  0.00     0.149 HD
ENDBRANCH   6  13
BRANCH   5  18
ATOM     18  N   LIG d   1      -6.060  80.088 117.419  0.00  0.00     0.381 N 
ATOM     19  H   LIG d   1      -5.297  80.232 118.050  0.00  0.00    -0.090 HD
ATOM     20  H   LIG d   1      -6.625  80.919 117.414  0.00  0.00    -0.090 HD
ATOM     21  H   LIG d   1      -5.713  79.908 116.503  0.00  0.00    -0.090 HD
ENDBRANCH   5  18
BRANCH   3  22
ATOM     22  C   LIG d   1     -10.463  78.676 118.667  0.00  0.00     0.382 C 
ATOM     23  O   LIG d   1     -11.357  77.804 118.784  0.00  0.00    -0.241 OA
ATOM     24  O   LIG d   1     -10.696  79.845 119.028  0.00  0.00    -0.241 OA
ENDBRANCH   3  22
TORSDOF 7
ENDMDL
MODEL 2
REMARK VINA RESULT:      -5.8      2.032      2.582
REMARK  7 active torsions:
REMARK  status: ('A' for Active; 'I' for Inactive)
REMARK    1  A    between atoms: C_2  and  C_3 
REMARK    2  A    between atoms: C_3  and  O_6 
REMARK    3  A    between atoms: C_3  and  C_4 
REMARK    4  A    between atoms: C_7  and  O_6 
REMARK    5  A    between atoms: C_9  and  C_10 
REMARK    6  A    between atoms: N_15  and  C_14 
REMARK    7  A    between atoms: N_20  and  C_19 
REMARK       I    between atoms: C_22  and  N_20 
ROOT
ATOM      1  C   LIG d   1      -6.224  76.841 116.907  0.00  0.00     0.161 C 
ATOM      2  C   LIG d   1      -7.095  77.886 117.256  0.00  0.00     0.016 C 
ATOM      3  C   LIG d   1      -6.720  79.250 117.239  0.00  0.00     0.038 C 
ATOM      4  C   LIG d   1      -5.487  79.673 116.722  0.00  0.00     0.028 C 
ATOM      5  C   LIG d   1      -4.390  78.618 116.831  0.00  0.00    -0.047 C 
ATOM      6  C   LIG d   1      -4.910  77.290 116.235  0.00  0.00     0.091 C 
ENDROOT
BRANCH   1   7
ATOM      7  O   LIG d   1      -6.914  75.889 116.073  0.00  0.00    -0.368 OA
BRANCH   7   8
ATOM      8  C   LIG d   1      -7.053  74.551 116.613  0.00  0.00     0.119 C 
BRANCH   8   9
ATOM      9  C   LIG d   1      -6.579  73.563 115.530  0.00  0.00     0.028 C 
ATOM     10  C   LIG d   1      -6.965  72.110 115.852  0.00  0.00     0.006 C 
ENDBRANCH   8   9
BRANCH   8  11
ATOM     11  C   LIG d   1      -8.523  74.202 116.865  0.00  0.00     0.028 C 
ATOM     12  C   LIG d   1      -9.493  75.151 116.143  0.00  0.00     0.006 C 
ENDBRANCH   8  11
ENDBRANCH   7   8
ENDBRANCH   1   7
BRANCH   6  13
ATOM     13  N   LIG d   1      -3.930  76.182 116.378  0.00  0.00    -0.311 N 
ATOM     14  C   LIG d   1      -3.089  75.819 115.412  0.00  0.00     0.210 C 
ATOM     15  C   LIG d   1      -2.175  74.639 115.760  0.00  0.00     0.109 C 
ATOM     16  O   LIG d   1      -2.990  76.382 114.311  0.00  0.00    -0.276 OA
ATOM     17  H   LIG d   1      -3.921  75.692 117.251  0.00  0.00     0.149 HD
ENDBRANCH   6  13
BRANCH   5  18
ATOM     18  N   LIG d   1      -3.200  79.139 116.133  0.00  0.00     0.381 N 
ATOM     19  H   LIG d   1      -2.595  78.382 115.885  0.00  0.00    -0.090 HD
ATOM     20  H   LIG d   1      -2.701  79.751 116.753  0.00  0.00    -0.090 HD
ATOM     21  H   LIG d   1      -3.475  79.636 115.314  0.00  0.00    -0.090 HD
ENDBRANCH   5  18
BRANCH   3  22
ATOM     22  C   LIG d   1      -7.570  80.203 117.779  0.00  0.00     0.382 C 
ATOM     23  O   LIG d   1      -7.908  81.200 117.097  0.00  0.00    -0.241 OA
ATOM     24  O   LIG d   1      -7.967  80.102 118.955  0.00  0.00    -0.241 OA
ENDBRANCH   3  22
TORSDOF 7
ENDMDL
MODEL 3
REMARK VINA RESULT:      -5.6      2.373      4.778
REMARK  7 active torsions:
REMARK  status: ('A' for Active; 'I' for Inactive)
REMARK    1  A    between atoms: C_2  and  C_3 
REMARK    2  A    between atoms: C_3  and  O_6 
REMARK    3  A    between atoms: C_3  and  C_4 
REMARK    4  A    between atoms: C_7  and  O_6 
REMARK    5  A    between atoms: C_9  and  C_10 
REMARK    6  A    between atoms: N_15  and  C_14 
REMARK    7  A    between atoms: N_20  and  C_19 
REMARK       I    between atoms: C_22  and  N_20 
ROOT
ATOM      1  C   LIG d   1      -6.434  75.736 117.360  0.00  0.00     0.161 C 
ATOM      2  C   LIG d   1      -6.653  74.420 116.921  0.00  0.00     0.016 C 
ATOM      3  C   LIG d   1      -7.940  73.872 116.714  0.00  0.00     0.038 C 
ATOM      4  C   LIG d   1      -9.101  74.657 116.788  0.00  0.00     0.028 C 
ATOM      5  C   LIG d   1      -8.961  75.857 117.719  0.00  0.00    -0.047 C 
ATOM      6  C   LIG d   1      -7.684  76.641 117.339  0.00  0.00     0.091 C 
ENDROOT
BRANCH   1   7
ATOM      7  O   LIG d   1      -5.369  76.335 116.596  0.00  0.00    -0.368 OA
BRANCH   7   8
ATOM      8  C   LIG d   1      -4.825  75.530 115.521  0.00  0.00     0.119 C 
BRANCH   8   9
ATOM      9  C   LIG d   1      -3.314  75.370 115.782  0.00  0.00     0.028 C 
ATOM     10  C   LIG d   1      -2.479  76.453 115.078  0.00  0.00     0.006 C 
ENDBRANCH   8   9
BRANCH   8  11
ATOM     11  C   LIG d   1      -4.930  76.254 114.175  0.00  0.00     0.028 C 
ATOM     12  C   LIG d   1      -6.366  76.296 113.632  0.00  0.00     0.006 C 
ENDBRANCH   8  11
ENDBRANCH   7   8
ENDBRANCH   1   7
BRANCH   6  13
ATOM     13  N   LIG d   1      -7.427  77.783 118.254  0.00  0.00    -0.311 N 
ATOM     14  C   LIG d   1      -6.963  78.962 117.843  0.00  0.00     0.210 C 
ATOM     15  C   LIG d   1      -6.750  79.996 118.953  0.00  0.00     0.109 C 
ATOM     16  O   LIG d   1      -6.738  79.260 116.660  0.00  0.00    -0.276 OA
ATOM     17  H   LIG d   1      -7.613  77.639 119.228  0.00  0.00     0.149 HD
ENDBRANCH   6  13
BRANCH   5  18
ATOM     18  N   LIG d   1     -10.191  76.662 117.595  0.00  0.00     0.381 N 
ATOM     19  H   LIG d   1     -10.093  77.319 116.847  0.00  0.00    -0.090 HD
ATOM     20  H   LIG d   1     -10.332  77.174 118.448  0.00  0.00    -0.090 HD
ATOM     21  H   LIG d   1     -10.972  76.067 117.424  0.00  0.00    -0.090 HD
ENDBRANCH   5  18
BRANCH   3  22
ATOM     22  C   LIG d   1      -8.078  72.515 116.468  0.00  0.00     0.382 C 
ATOM     23  O   LIG d   1      -7.199  71.903 115.815  0.00  0.00    -0.241 OA
ATOM     24  O   LIG d   1      -9.093  71.903 116.852  0.00  0.00    -0.241 OA
ENDBRANCH   3  22
TORSDOF 7
ENDMDL
MODEL 4
REMARK VINA RESULT:      -5.5      2.362      4.249
REMARK  7 active torsions:
REMARK  status: ('A' for Active; 'I' for Inactive)
REMARK    1  A    between atoms: C_2  and  C_3 
REMARK    2  A    between atoms: C_3  and  O_6 
REMARK    3  A    between atoms: C_3  and  C_4 
REMARK    4  A    between atoms: C_7  and  O_6 
REMARK    5  A    between atoms: C_9  and  C_10 
REMARK    6  A    between atoms: N_15  and  C_14 
REMARK    7  A    between atoms: N_20  and  C_19 
REMARK       I    between atoms: C_22  and  N_20 
ROOT
ATOM      1  C   LIG d   1      -6.411  77.291 116.572  0.00  0.00     0.161 C 
ATOM      2  C   LIG d   1      -6.293  78.653 116.896  0.00  0.00     0.016 C 
ATOM      3  C   LIG d   1      -7.304  79.385 117.560  0.00  0.00     0.038 C 
ATOM      4  C   LIG d   1      -8.447  78.763 118.084  0.00  0.00     0.028 C 
ATOM      5  C   LIG d   1      -8.840  77.492 117.340  0.00  0.00    -0.047 C 
ATOM      6  C   LIG d   1      -7.603  76.570 117.234  0.00  0.00     0.091 C 
ENDROOT
BRANCH   1   7
ATOM      7  O   LIG d   1      -5.179  76.607 116.878  0.00  0.00    -0.368 OA
BRANCH   7   8
ATOM      8  C   LIG d   1      -4.242  76.460 115.783  0.00  0.00     0.119 C 
BRANCH   8   9
ATOM      9  C   LIG d   1      -5.064  76.322 114.487  0.00  0.00     0.028 C 
ATOM     10  C   LIG d   1      -5.265  74.855 114.073  0.00  0.00     0.006 C 
ENDBRANCH   8   9
BRANCH   8  11
ATOM     11  C   LIG d   1      -3.448  75.156 115.901  0.00  0.00     0.028 C 
ATOM     12  C   LIG d   1      -1.937  75.359 115.702  0.00  0.00     0.006 C 
ENDBRANCH   8  11
ENDBRANCH   7   8
ENDBRANCH   1   7
BRANCH   6  13
ATOM     13  N   LIG d   1      -7.879  75.340 116.446  0.00  0.00    -0.311 N 
ATOM     14  C   LIG d   1      -7.646  74.110 116.901  0.00  0.00     0.210 C 
ATOM     15  C   LIG d   1      -7.983  72.983 115.920  0.00  0.00     0.109 C 
ATOM     16  O   LIG d   1      -7.223  73.844 118.036  0.00  0.00    -0.276 OA
ATOM     17  H   LIG d   1      -8.253  75.462 115.526  0.00  0.00     0.149 HD
ENDBRANCH   6  13
BRANCH   5  18
ATOM     18  N   LIG d   1      -9.961  76.874 118.073  0.00  0.00     0.381 N 
ATOM     19  H   LIG d   1     -10.827  77.257 117.753  0.00  0.00    -0.090 HD
ATOM     20  H   LIG d   1      -9.865  77.085 119.051  0.00  0.00    -0.090 HD
ATOM     21  H   LIG d   1      -9.955  75.887 117.937  0.00  0.00    -0.090 HD
ENDBRANCH   5  18
BRANCH   3  22
ATOM     22  C   LIG d   1      -7.194  80.763 117.671  0.00  0.00     0.382 C 
ATOM     23  O   LIG d   1      -6.490  81.264 118.580  0.00  0.00    -0.241 OA
ATOM     24  O   LIG d   1      -7.825  81.511 116.901  0.00  0.00    -0.241 OA
ENDBRANCH   3  22
TORSDOF 7
ENDMDL
MODEL 5
REMARK VINA RESULT:      -5.3      3.555      6.427
REMARK  7 active torsions:
REMARK  status: ('A' for Active; 'I' for Inactive)
REMARK    1  A    between atoms: C_2  and  C_3 
REMARK    2  A    between atoms: C_3  and  O_6 
REMARK    3  A    between atoms: C_3  and  C_4 
REMARK    4  A    between atoms: C_7  and  O_6 
REMARK    5  A    between atoms: C_9  and  C_10 
REMARK    6  A    between atoms: N_15  and  C_14 
REMARK    7  A    between atoms: N_20  and  C_19 
REMARK       I    between atoms: C_22  and  N_20 
ROOT
ATOM      1  C   LIG d   1      -3.353  75.342 115.340  0.00  0.00     0.161 C 
ATOM      2  C   LIG d   1      -2.694  76.569 115.162  0.00  0.00     0.016 C 
ATOM      3  C   LIG d   1      -3.343  77.822 115.259  0.00  0.00     0.038 C 
ATOM      4  C   LIG d   1      -4.672  77.937 115.692  0.00  0.00     0.028 C 
ATOM      5  C   LIG d   1      -5.516  76.702 115.394  0.00  0.00    -0.047 C 
ATOM      6  C   LIG d   1      -4.778  75.451 115.923  0.00  0.00     0.091 C 
ENDROOT
BRANCH   1   7
ATOM      7  O   LIG d   1      -2.545  74.467 116.152  0.00  0.00    -0.368 OA
BRANCH   7   8
ATOM      8  C   LIG d   1      -1.256  74.987 116.561  0.00  0.00     0.119 C 
BRANCH   8   9
ATOM      9  C   LIG d   1      -0.193  73.937 116.185  0.00  0.00     0.028 C 
ATOM     10  C   LIG d   1       0.063  73.878 114.670  0.00  0.00     0.006 C 
ENDBRANCH   8   9
BRANCH   8  11
ATOM     11  C   LIG d   1      -1.169  75.125 118.084  0.00  0.00     0.028 C 
ATOM     12  C   LIG d   1      -1.083  76.589 118.545  0.00  0.00     0.006 C 
ENDBRANCH   8  11
ENDBRANCH   7   8
ENDBRANCH   1   7
BRANCH   6  13
ATOM     13  N   LIG d   1      -5.494  74.190 115.598  0.00  0.00    -0.311 N 
ATOM     14  C   LIG d   1      -6.436  73.660 116.377  0.00  0.00     0.210 C 
ATOM     15  C   LIG d   1      -7.034  72.346 115.866  0.00  0.00     0.109 C 
ATOM     16  O   LIG d   1      -6.856  74.171 117.426  0.00  0.00    -0.276 OA
ATOM     17  H   LIG d   1      -5.238  73.726 114.749  0.00  0.00     0.149 HD
ENDBRANCH   6  13
BRANCH   5  18
ATOM     18  N   LIG d   1      -6.836  76.902 116.021  0.00  0.00     0.381 N 
ATOM     19  H   LIG d   1      -7.498  77.194 115.330  0.00  0.00    -0.090 HD
ATOM     20  H   LIG d   1      -6.761  77.627 116.712  0.00  0.00    -0.090 HD
ATOM     21  H   LIG d   1      -7.143  76.056 116.448  0.00  0.00    -0.090 HD
ENDBRANCH   5  18
BRANCH   3  22
ATOM     22  C   LIG d   1      -2.672  78.975 114.881  0.00  0.00     0.382 C 
ATOM     23  O   LIG d   1      -3.286  79.891 114.283  0.00  0.00    -0.241 OA
ATOM     24  O   LIG d   1      -1.450  79.091 115.090  0.00  0.00    -0.241 OA
ENDBRANCH   3  22
TORSDOF 7
ENDMDL
MODEL 6
REMARK VINA RESULT:      -5.3      2.307      6.125
REMARK  7 active torsions:
REMARK  status: ('A' for Active; 'I' for Inactive)
REMARK    1  A    between atoms: C_2  and  C_3 
REMARK    2  A    between atoms: C_3  and  O_6 
REMARK    3  A    between atoms: C_3  and  C_4 
REMARK    4  A    between atoms: C_7  and  O_6 
REMARK    5  A    between atoms: C_9  and  C_10 
REMARK    6  A    between atoms: N_15  and  C_14 
REMARK    7  A    between atoms: N_20  and  C_19 
REMARK       I    between atoms: C_22  and  N_20 
ROOT
ATOM      1  C   LIG d   1      -6.205  77.490 116.795  0.00  0.00     0.161 C 
ATOM      2  C   LIG d   1      -5.172  78.386 116.470  0.00  0.00     0.016 C 
ATOM      3  C   LIG d   1      -4.210  78.133 115.466  0.00  0.00     0.038 C 
ATOM      4  C   LIG d   1      -4.306  77.027 114.608  0.00  0.00     0.028 C 
ATOM      5  C   LIG d   1      -5.039  75.842 115.228  0.00  0.00    -0.047 C 
ATOM      6  C   LIG d   1      -6.392  76.329 115.795  0.00  0.00     0.091 C 
ENDROOT
BRANCH   1   7
ATOM      7  O   LIG d   1      -7.442  78.211 116.963  0.00  0.00    -0.368 OA
BRANCH   7   8
ATOM      8  C   LIG d   1      -7.504  79.115 118.093  0.00  0.00     0.119 C 
BRANCH   8   9
ATOM      9  C   LIG d   1      -8.636  78.625 119.016  0.00  0.00     0.028 C 
ATOM     10  C   LIG d   1      -9.730  77.862 118.250  0.00  0.00     0.006 C 
ENDBRANCH   8   9
BRANCH   8  11
ATOM     11  C   LIG d   1      -7.917  80.524 117.657  0.00  0.00     0.028 C 
ATOM     12  C   LIG d   1      -7.211  81.628 118.461  0.00  0.00     0.006 C 
ENDBRANCH   8  11
ENDBRANCH   7   8
ENDBRANCH   1   7
BRANCH   6  13
ATOM     13  N   LIG d   1      -7.136  75.249 116.494  0.00  0.00    -0.311 N 
ATOM     14  C   LIG d   1      -8.435  75.018 116.314  0.00  0.00     0.210 C 
ATOM     15  C   LIG d   1      -9.010  73.869 117.148  0.00  0.00     0.109 C 
ATOM     16  O   LIG d   1      -9.159  75.635 115.518  0.00  0.00    -0.276 OA
ATOM     17  H   LIG d   1      -6.619  74.680 117.136  0.00  0.00     0.149 HD
ENDBRANCH   6  13
BRANCH   5  18
ATOM     18  N   LIG d   1      -5.188  74.813 114.182  0.00  0.00     0.381 N 
ATOM     19  H   LIG d   1      -6.122  74.456 114.189  0.00  0.00    -0.090 HD
ATOM     20  H   LIG d   1      -4.559  74.054 114.380  0.00  0.00    -0.090 HD
ATOM     21  H   LIG d   1      -4.979  75.202 113.289  0.00  0.00    -0.090 HD
ENDBRANCH   5  18
BRANCH   3  22
ATOM     22  C   LIG d   1      -3.114  78.972 115.337  0.00  0.00     0.382 C 
ATOM     23  O   LIG d   1      -2.236  78.998 116.233  0.00  0.00    -0.241 OA
ATOM     24  O   LIG d   1      -3.014  79.736 114.359  0.00  0.00    -0.241 OA
ENDBRANCH   3  22
TORSDOF 7
ENDMDL
MODEL 7
REMARK VINA RESULT:      -4.9      2.727      5.024
REMARK  7 active torsions:
REMARK  status: ('A' for Active; 'I' for Inactive)
REMARK    1  A    between atoms: C_2  and  C_3 
REMARK    2  A    between atoms: C_3  and  O_6 
REMARK    3  A    between atoms: C_3  and  C_4 
REMARK    4  A    between atoms: C_7  and  O_6 
REMARK    5  A    between atoms: C_9  and  C_10 
REMARK    6  A    between atoms: N_15  and  C_14 
REMARK    7  A    between atoms: N_20  and  C_19 
REMARK       I    between atoms: C_22  and  N_20 
ROOT
ATOM      1  C   LIG d   1      -5.279  75.487 116.500  0.00  0.00     0.161 C 
ATOM      2  C   LIG d   1      -5.888  74.273 116.138  0.00  0.00     0.016 C 
ATOM      3  C   LIG d   1      -7.272  74.023 116.283  0.00  0.00     0.038 C 
ATOM      4  C   LIG d   1      -8.171  75.030 116.663  0.00  0.00     0.028 C 
ATOM      5  C   LIG d   1      -7.535  76.119 117.520  0.00  0.00    -0.047 C 
ATOM      6  C   LIG d   1      -6.262  76.635 116.812  0.00  0.00     0.091 C 
ENDROOT
BRANCH   1   7
ATOM      7  O   LIG d   1      -4.346  75.890 115.478  0.00  0.00    -0.368 OA
BRANCH   7   8
ATOM      8  C   LIG d   1      -2.980  76.106 115.912  0.00  0.00     0.119 C 
BRANCH   8   9
ATOM      9  C   LIG d   1      -2.233  76.801 114.758  0.00  0.00     0.028 C 
ATOM     10  C   LIG d   1      -3.188  77.506 113.780  0.00  0.00     0.006 C 
ENDBRANCH   8   9
BRANCH   8  11
ATOM     11  C   LIG d   1      -2.248  74.779 116.129  0.00  0.00     0.028 C 
ATOM     12  C   LIG d   1      -0.994  74.640 115.250  0.00  0.00     0.006 C 
ENDBRANCH   8  11
ENDBRANCH   7   8
ENDBRANCH   1   7
BRANCH   6  13
ATOM     13  N   LIG d   1      -5.531  77.644 117.623  0.00  0.00    -0.311 N 
ATOM     14  C   LIG d   1      -5.294  78.886 117.208  0.00  0.00     0.210 C 
ATOM     15  C   LIG d   1      -4.507  79.758 118.191  0.00  0.00     0.109 C 
ATOM     16  O   LIG d   1      -5.688  79.359 116.131  0.00  0.00    -0.276 OA
ATOM     17  H   LIG d   1      -5.203  77.354 118.524  0.00  0.00     0.149 HD
ENDBRANCH   6  13
BRANCH   5  18
ATOM     18  N   LIG d   1      -8.548  77.171 117.728  0.00  0.00     0.381 N 
ATOM     19  H   LIG d   1      -8.376  77.934 117.104  0.00  0.00    -0.090 HD
ATOM     20  H   LIG d   1      -8.474  77.512 118.671  0.00  0.00    -0.090 HD
ATOM     21  H   LIG d   1      -9.460  76.803 117.571  0.00  0.00    -0.090 HD
ENDBRANCH   5  18
BRANCH   3  22
ATOM     22  C   LIG d   1      -7.763  72.742 116.085  0.00  0.00     0.382 C 
ATOM     23  O   LIG d   1      -8.972  72.492 116.308  0.00  0.00    -0.241 OA
ATOM     24  O   LIG d   1      -7.002  71.822 115.729  0.00  0.00    -0.241 OA
ENDBRANCH   3  22
TORSDOF 7
ENDMDL
MODEL 8
REMARK VINA RESULT:      -4.8      5.237      7.254
REMARK  7 active torsions:
REMARK  status: ('A' for Active; 'I' for Inactive)
REMARK    1  A    between atoms: C_2  and  C_3 
REMARK    2  A    between atoms: C_3  and  O_6 
REMARK    3  A    between atoms: C_3  and  C_4 
REMARK    4  A    between atoms: C_7  and  O_6 
REMARK    5  A    between atoms: C_9  and  C_10 
REMARK    6  A    between atoms: N_15  and  C_14 
REMARK    7  A    between atoms: N_20  and  C_19 
REMARK       I    between atoms: C_22  and  N_20 
ROOT
ATOM      1  C   LIG d   1      -1.203  76.852 115.216  0.00  0.00     0.161 C 
ATOM      2  C   LIG d   1      -2.424  76.217 114.932  0.00  0.00     0.016 C 
ATOM      3  C   LIG d   1      -3.447  76.810 114.157  0.00  0.00     0.038 C 
ATOM      4  C   LIG d   1      -3.257  78.025 113.482  0.00  0.00     0.028 C 
ATOM      5  C   LIG d   1      -2.232  78.935 114.150  0.00  0.00    -0.047 C 
ATOM      6  C   LIG d   1      -0.934  78.132 114.396  0.00  0.00     0.091 C 
ENDROOT
BRANCH   1   7
ATOM      7  O   LIG d   1      -0.118  75.918 115.057  0.00  0.00    -0.368 OA
BRANCH   7   8
ATOM      8  C   LIG d   1      -0.417  74.535 115.368  0.00  0.00     0.119 C 
BRANCH   8   9
ATOM      9  C   LIG d   1       0.216  74.221 116.738  0.00  0.00     0.028 C 
ATOM     10  C   LIG d   1      -0.839  73.983 117.831  0.00  0.00     0.006 C 
ENDBRANCH   8   9
BRANCH   8  11
ATOM     11  C   LIG d   1       0.263  73.582 114.380  0.00  0.00     0.028 C 
ATOM     12  C   LIG d   1       0.963  74.318 113.227  0.00  0.00     0.006 C 
ENDBRANCH   8  11
ENDBRANCH   7   8
ENDBRANCH   1   7
BRANCH   6  13
ATOM     13  N   LIG d   1       0.093  78.923 115.123  0.00  0.00    -0.311 N 
ATOM     14  C   LIG d   1       0.926  79.771 114.522  0.00  0.00     0.210 C 
ATOM     15  C   LIG d   1       1.920  80.471 115.453  0.00  0.00     0.109 C 
ATOM     16  O   LIG d   1       0.914  80.034 113.310  0.00  0.00    -0.276 OA
ATOM     17  H   LIG d   1       0.151  78.795 116.114  0.00  0.00     0.149 HD
ENDBRANCH   6  13
BRANCH   5  18
ATOM     18  N   LIG d   1      -2.032  80.102 113.270  0.00  0.00     0.381 N 
ATOM     19  H   LIG d   1      -1.864  79.795 112.333  0.00  0.00    -0.090 HD
ATOM     20  H   LIG d   1      -1.224  80.611 113.584  0.00  0.00    -0.090 HD
ATOM     21  H   LIG d   1      -2.835  80.690 113.296  0.00  0.00    -0.090 HD
ENDBRANCH   5  18
BRANCH   3  22
ATOM     22  C   LIG d   1      -4.692  76.203 114.083  0.00  0.00     0.382 C 
ATOM     23  O   LIG d   1      -5.732  76.881 114.267  0.00  0.00    -0.241 OA
ATOM     24  O   LIG d   1      -4.786  74.978 113.879  0.00  0.00    -0.241 OA
ENDBRANCH   3  22
TORSDOF 7
ENDMDL
MODEL 9
REMARK VINA RESULT:      -4.5      5.100      6.689
REMARK  7 active torsions:
REMARK  status: ('A' for Active; 'I' for Inactive)
REMARK    1  A    between atoms: C_2  and  C_3 
REMARK    2  A    between atoms: C_3  and  O_6 
REMARK    3  A    between atoms: C_3  and  C_4 
REMARK    4  A    between atoms: C_7  and  O_6 
REMARK    5  A    between atoms: C_9  and  C_10 
REMARK    6  A    between atoms: N_15  and  C_14 
REMARK    7  A    between atoms: N_20  and  C_19 
REMARK       I    between atoms: C_22  and  N_20 
ROOT
ATOM      1  C   LIG d   1      -2.552  76.287 116.697  0.00  0.00     0.161 C 
ATOM      2  C   LIG d   1      -3.491  75.571 115.936  0.00  0.00     0.016 C 
ATOM      3  C   LIG d   1      -4.025  76.042 114.714  0.00  0.00     0.038 C 
ATOM      4  C   LIG d   1      -3.538  77.200 114.090  0.00  0.00     0.028 C 
ATOM      5  C   LIG d   1      -2.952  78.214 115.067  0.00  0.00    -0.047 C 
ATOM      6  C   LIG d   1      -1.927  77.500 115.977  0.00  0.00     0.091 C 
ENDROOT
BRANCH   1   7
ATOM      7  O   LIG d   1      -1.521  75.395 117.165  0.00  0.00    -0.368 OA
BRANCH   7   8
ATOM      8  C   LIG d   1      -0.324  75.323 116.351  0.00  0.00     0.119 C 
BRANCH   8   9
ATOM      9  C   LIG d   1      -0.201  73.876 115.837  0.00  0.00     0.028 C 
ATOM     10  C   LIG d   1       0.203  73.812 114.354  0.00  0.00     0.006 C 
ENDBRANCH   8   9
BRANCH   8  11
ATOM     11  C   LIG d   1       0.935  75.563 117.190  0.00  0.00     0.028 C 
ATOM     12  C   LIG d   1       1.077  74.567 118.351  0.00  0.00     0.006 C 
ENDBRANCH   8  11
ENDBRANCH   7   8
ENDBRANCH   1   7
BRANCH   6  13
ATOM     13  N   LIG d   1      -1.368  78.402 117.018  0.00  0.00    -0.311 N 
ATOM     14  C   LIG d   1      -0.209  79.044 116.886  0.00  0.00     0.210 C 
ATOM     15  C   LIG d   1       0.192  79.908 118.086  0.00  0.00     0.109 C 
ATOM     16  O   LIG d   1       0.509  79.007 115.876  0.00  0.00    -0.276 OA
ATOM     17  H   LIG d   1      -1.901  78.514 117.858  0.00  0.00     0.149 HD
ENDBRANCH   6  13
BRANCH   5  18
ATOM     18  N   LIG d   1      -2.359  79.307 114.274  0.00  0.00     0.381 N 
ATOM     19  H   LIG d   1      -1.409  79.086 114.051  0.00  0.00    -0.090 HD
ATOM     20  H   LIG d   1      -2.368  80.148 114.822  0.00  0.00    -0.090 HD
ATOM     21  H   LIG d   1      -2.881  79.442 113.436  0.00  0.00    -0.090 HD
ENDBRANCH   5  18
BRANCH   3  22
ATOM     22  C   LIG d   1      -5.085  75.371 114.124  0.00  0.00     0.382 C 
ATOM     23  O   LIG d   1      -5.619  75.834 113.087  0.00  0.00    -0.241 OA
ATOM     24  O   LIG d   1      -5.543  74.334 114.639  0.00  0.00    -0.241 OA
ENDBRANCH   3  22
TORSDOF 7
ENDMDL
