MODEL 1
REMARK VINA RESULT:      -5.5      0.000      0.000
REMARK  7 active torsions:
REMARK  status: ('A' for Active; 'I' for Inactive)
REMARK    1  A    between atoms: C_2  and  C_3 
REMARK    2  A    between atoms: C_3  and  O_6 
REMARK    3  A    between atoms: C_3  and  C_4 
REMARK    4  A    between atoms: C_7  and  O_6 
REMARK    5  A    between atoms: C_9  and  C_10 
REMARK    6  A    between atoms: N_15  and  C_14 
REMARK    7  A    between atoms: N_20  and  C_19 
REMARK       I    between atoms: C_22  and  N_20 
ROOT
ATOM      1  C   LIG d   1      -7.322  74.958 117.999  0.00  0.00     0.161 C 
ATOM      2  C   LIG d   1      -7.381  73.608 117.615  0.00  0.00     0.016 C 
ATOM      3  C   LIG d   1      -8.568  72.974 117.179  0.00  0.00     0.038 C 
ATOM      4  C   LIG d   1      -9.751  73.692 116.953  0.00  0.00     0.028 C 
ATOM      5  C   LIG d   1      -9.870  74.950 117.807  0.00  0.00    -0.047 C 
ATOM      6  C   LIG d   1      -8.578  75.784 117.652  0.00  0.00     0.091 C 
ENDROOT
BRANCH   1   7
ATOM      7  O   LIG d   1      -6.146  75.574 117.437  0.00  0.00    -0.368 OA
BRANCH   7   8
ATOM      8  C   LIG d   1      -5.307  74.720 116.621  0.00  0.00     0.119 C 
BRANCH   8   9
ATOM      9  C   LIG d   1      -3.885  74.766 117.213  0.00  0.00     0.028 C 
ATOM     10  C   LIG d   1      -3.706  75.912 118.223  0.00  0.00     0.006 C 
ENDBRANCH   8   9
BRANCH   8  11
ATOM     11  C   LIG d   1      -5.171  75.269 115.197  0.00  0.00     0.028 C 
ATOM     12  C   LIG d   1      -6.525  75.640 114.571  0.00  0.00     0.006 C 
ENDBRANCH   8  11
ENDBRANCH   7   8
ENDBRANCH   1   7
BRANCH   6  13
ATOM     13  N   LIG d   1      -8.575  76.991 118.520  0.00  0.00    -0.311 N 
ATOM     14  C   LIG d   1      -8.139  78.183 118.117  0.00  0.00     0.210 C 
ATOM     15  C   LIG d   1      -8.206  79.288 119.176  0.00  0.00     0.109 C 
ATOM     16  O   LIG d   1      -7.734  78.438 116.973  0.00  0.00    -0.276 OA
ATOM     17  H   LIG d   1      -8.917  76.881 119.455  0.00  0.00     0.149 HD
ENDBRANCH   6  13
BRANCH   5  18
ATOM     18  N   LIG d   1     -11.080  75.672 117.371  0.00  0.00     0.381 N 
ATOM     19  H   LIG d   1     -10.896  76.655 117.344  0.00  0.00    -0.090 HD
ATOM     20  H   LIG d   1     -11.814  75.507 118.037  0.00  0.00    -0.090 HD
ATOM     21  H   LIG d   1     -11.361  75.354 116.470  0.00  0.00    -0.090 HD
ENDBRANCH   5  18
BRANCH   3  22
ATOM     22  C   LIG d   1      -8.588  71.599 117.004  0.00  0.00     0.382 C 
ATOM     23  O   LIG d   1      -9.355  70.889 117.698  0.00  0.00    -0.241 OA
ATOM     24  O   LIG d   1      -7.816  71.054 116.191  0.00  0.00    -0.241 OA
ENDBRANCH   3  22
TORSDOF 7
ENDMDL
MODEL 2
REMARK VINA RESULT:      -5.5      1.083      1.993
REMARK  7 active torsions:
REMARK  status: ('A' for Active; 'I' for Inactive)
REMARK    1  A    between atoms: C_2  and  C_3 
REMARK    2  A    between atoms: C_3  and  O_6 
REMARK    3  A    between atoms: C_3  and  C_4 
REMARK    4  A    between atoms: C_7  and  O_6 
REMARK    5  A    between atoms: C_9  and  C_10 
REMARK    6  A    between atoms: N_15  and  C_14 
REMARK    7  A    between atoms: N_20  and  C_19 
REMARK       I    between atoms: C_22  and  N_20 
ROOT
ATOM      1  C   LIG d   1      -7.421  75.032 117.269  0.00  0.00     0.161 C 
ATOM      2  C   LIG d   1      -7.556  73.672 116.944  0.00  0.00     0.016 C 
ATOM      3  C   LIG d   1      -8.671  72.889 117.321  0.00  0.00     0.038 C 
ATOM      4  C   LIG d   1      -9.805  73.455 117.923  0.00  0.00     0.028 C 
ATOM      5  C   LIG d   1      -9.500  74.719 118.720  0.00  0.00    -0.047 C 
ATOM      6  C   LIG d   1      -8.697  75.694 117.828  0.00  0.00     0.091 C 
ENDROOT
BRANCH   1   7
ATOM      7  O   LIG d   1      -6.939  75.762 116.123  0.00  0.00    -0.368 OA
BRANCH   7   8
ATOM      8  C   LIG d   1      -5.591  76.284 116.221  0.00  0.00     0.119 C 
BRANCH   8   9
ATOM      9  C   LIG d   1      -4.757  75.623 115.106  0.00  0.00     0.028 C 
ATOM     10  C   LIG d   1      -5.634  74.955 114.034  0.00  0.00     0.006 C 
ENDBRANCH   8   9
BRANCH   8  11
ATOM     11  C   LIG d   1      -4.923  75.860 117.532  0.00  0.00     0.028 C 
ATOM     12  C   LIG d   1      -3.637  75.048 117.311  0.00  0.00     0.006 C 
ENDBRANCH   8  11
ENDBRANCH   7   8
ENDBRANCH   1   7
BRANCH   6  13
ATOM     13  N   LIG d   1      -8.285  76.921 118.558  0.00  0.00    -0.311 N 
ATOM     14  C   LIG d   1      -9.012  78.037 118.585  0.00  0.00     0.210 C 
ATOM     15  C   LIG d   1      -8.395  79.192 119.379  0.00  0.00     0.109 C 
ATOM     16  O   LIG d   1     -10.126  78.168 118.054  0.00  0.00    -0.276 OA
ATOM     17  H   LIG d   1      -7.410  76.891 119.042  0.00  0.00     0.149 HD
ENDBRANCH   6  13
BRANCH   5  18
ATOM     18  N   LIG d   1     -10.786  75.279 119.177  0.00  0.00     0.381 N 
ATOM     19  H   LIG d   1     -11.451  75.254 118.429  0.00  0.00    -0.090 HD
ATOM     20  H   LIG d   1     -10.647  76.238 119.443  0.00  0.00    -0.090 HD
ATOM     21  H   LIG d   1     -11.129  74.758 119.953  0.00  0.00    -0.090 HD
ENDBRANCH   5  18
BRANCH   3  22
ATOM     22  C   LIG d   1      -8.642  71.516 117.133  0.00  0.00     0.382 C 
ATOM     23  O   LIG d   1      -7.931  71.022 116.225  0.00  0.00    -0.241 OA
ATOM     24  O   LIG d   1      -9.353  70.767 117.830  0.00  0.00    -0.241 OA
ENDBRANCH   3  22
TORSDOF 7
ENDMDL
MODEL 3
REMARK VINA RESULT:      -5.4      2.453      5.668
REMARK  7 active torsions:
REMARK  status: ('A' for Active; 'I' for Inactive)
REMARK    1  A    between atoms: C_2  and  C_3 
REMARK    2  A    between atoms: C_3  and  O_6 
REMARK    3  A    between atoms: C_3  and  C_4 
REMARK    4  A    between atoms: C_7  and  O_6 
REMARK    5  A    between atoms: C_9  and  C_10 
REMARK    6  A    between atoms: N_15  and  C_14 
REMARK    7  A    between atoms: N_20  and  C_19 
REMARK       I    between atoms: C_22  and  N_20 
ROOT
ATOM      1  C   LIG d   1      -7.746  74.104 118.623  0.00  0.00     0.161 C 
ATOM      2  C   LIG d   1      -6.995  75.166 118.091  0.00  0.00     0.016 C 
ATOM      3  C   LIG d   1      -6.220  75.058 116.914  0.00  0.00     0.038 C 
ATOM      4  C   LIG d   1      -6.264  73.917 116.099  0.00  0.00     0.028 C 
ATOM      5  C   LIG d   1      -6.612  72.643 116.860  0.00  0.00    -0.047 C 
ATOM      6  C   LIG d   1      -7.895  72.886 117.688  0.00  0.00     0.091 C 
ENDROOT
BRANCH   1   7
ATOM      7  O   LIG d   1      -9.042  74.581 119.035  0.00  0.00    -0.368 OA
BRANCH   7   8
ATOM      8  C   LIG d   1      -9.492  75.814 118.421  0.00  0.00     0.119 C 
BRANCH   8   9
ATOM      9  C   LIG d   1      -9.943  76.757 119.554  0.00  0.00     0.028 C 
ATOM     10  C   LIG d   1     -10.136  78.204 119.070  0.00  0.00     0.006 C 
ENDBRANCH   8   9
BRANCH   8  11
ATOM     11  C   LIG d   1     -10.740  75.586 117.563  0.00  0.00     0.028 C 
ATOM     12  C   LIG d   1     -10.473  74.678 116.352  0.00  0.00     0.006 C 
ENDBRANCH   8  11
ENDBRANCH   7   8
ENDBRANCH   1   7
BRANCH   6  13
ATOM     13  N   LIG d   1      -8.258  71.716 118.528  0.00  0.00    -0.311 N 
ATOM     14  C   LIG d   1      -8.983  70.691 118.084  0.00  0.00     0.210 C 
ATOM     15  C   LIG d   1      -9.260  69.597 119.121  0.00  0.00     0.109 C 
ATOM     16  O   LIG d   1      -9.396  70.568 116.921  0.00  0.00    -0.276 OA
ATOM     17  H   LIG d   1      -7.937  71.718 119.477  0.00  0.00     0.149 HD
ENDBRANCH   6  13
BRANCH   5  18
ATOM     18  N   LIG d   1      -6.759  71.558 115.871  0.00  0.00     0.381 N 
ATOM     19  H   LIG d   1      -6.502  71.891 114.963  0.00  0.00    -0.090 HD
ATOM     20  H   LIG d   1      -7.722  71.274 115.841  0.00  0.00    -0.090 HD
ATOM     21  H   LIG d   1      -6.185  70.785 116.124  0.00  0.00    -0.090 HD
ENDBRANCH   5  18
BRANCH   3  22
ATOM     22  C   LIG d   1      -5.358  76.086 116.562  0.00  0.00     0.382 C 
ATOM     23  O   LIG d   1      -5.760  77.014 115.819  0.00  0.00    -0.241 OA
ATOM     24  O   LIG d   1      -4.172  76.073 116.940  0.00  0.00    -0.241 OA
ENDBRANCH   3  22
TORSDOF 7
ENDMDL
MODEL 4
REMARK VINA RESULT:      -5.4      2.399      4.856
REMARK  7 active torsions:
REMARK  status: ('A' for Active; 'I' for Inactive)
REMARK    1  A    between atoms: C_2  and  C_3 
REMARK    2  A    between atoms: C_3  and  O_6 
REMARK    3  A    between atoms: C_3  and  C_4 
REMARK    4  A    between atoms: C_7  and  O_6 
REMARK    5  A    between atoms: C_9  and  C_10 
REMARK    6  A    between atoms: N_15  and  C_14 
REMARK    7  A    between atoms: N_20  and  C_19 
REMARK       I    between atoms: C_22  and  N_20 
ROOT
ATOM      1  C   LIG d   1      -7.614  76.550 116.947  0.00  0.00     0.161 C 
ATOM      2  C   LIG d   1      -6.995  75.949 115.839  0.00  0.00     0.016 C 
ATOM      3  C   LIG d   1      -5.634  76.142 115.508  0.00  0.00     0.038 C 
ATOM      4  C   LIG d   1      -4.756  76.834 116.355  0.00  0.00     0.028 C 
ATOM      5  C   LIG d   1      -5.449  77.879 117.222  0.00  0.00    -0.047 C 
ATOM      6  C   LIG d   1      -6.645  77.219 117.945  0.00  0.00     0.091 C 
ENDROOT
BRANCH   1   7
ATOM      7  O   LIG d   1      -8.445  75.587 117.625  0.00  0.00    -0.368 OA
BRANCH   7   8
ATOM      8  C   LIG d   1      -9.518  75.008 116.842  0.00  0.00     0.119 C 
BRANCH   8   9
ATOM      9  C   LIG d   1     -10.845  75.565 117.392  0.00  0.00     0.028 C 
ATOM     10  C   LIG d   1     -10.633  76.538 118.564  0.00  0.00     0.006 C 
ENDBRANCH   8   9
BRANCH   8  11
ATOM     11  C   LIG d   1      -9.600  73.492 117.044  0.00  0.00     0.028 C 
ATOM     12  C   LIG d   1      -9.592  73.087 118.526  0.00  0.00     0.006 C 
ENDBRANCH   8  11
ENDBRANCH   7   8
ENDBRANCH   1   7
BRANCH   6  13
ATOM     13  N   LIG d   1      -7.429  78.192 118.749  0.00  0.00    -0.311 N 
ATOM     14  C   LIG d   1      -7.896  79.340 118.261  0.00  0.00     0.210 C 
ATOM     15  C   LIG d   1      -8.662  80.207 119.265  0.00  0.00     0.109 C 
ATOM     16  O   LIG d   1      -7.775  79.708 117.083  0.00  0.00    -0.276 OA
ATOM     17  H   LIG d   1      -7.601  77.958 119.708  0.00  0.00     0.149 HD
ENDBRANCH   6  13
BRANCH   5  18
ATOM     18  N   LIG d   1      -4.443  78.426 118.152  0.00  0.00     0.381 N 
ATOM     19  H   LIG d   1      -4.314  79.403 117.976  0.00  0.00    -0.090 HD
ATOM     20  H   LIG d   1      -3.567  77.959 117.994  0.00  0.00    -0.090 HD
ATOM     21  H   LIG d   1      -4.737  78.287 119.093  0.00  0.00    -0.090 HD
ENDBRANCH   5  18
BRANCH   3  22
ATOM     22  C   LIG d   1      -5.148  75.673 114.297  0.00  0.00     0.382 C 
ATOM     23  O   LIG d   1      -4.442  76.416 113.575  0.00  0.00    -0.241 OA
ATOM     24  O   LIG d   1      -5.444  74.531 113.897  0.00  0.00    -0.241 OA
ENDBRANCH   3  22
TORSDOF 7
ENDMDL
MODEL 5
REMARK VINA RESULT:      -5.3      2.527      5.275
REMARK  7 active torsions:
REMARK  status: ('A' for Active; 'I' for Inactive)
REMARK    1  A    between atoms: C_2  and  C_3 
REMARK    2  A    between atoms: C_3  and  O_6 
REMARK    3  A    between atoms: C_3  and  C_4 
REMARK    4  A    between atoms: C_7  and  O_6 
REMARK    5  A    between atoms: C_9  and  C_10 
REMARK    6  A    between atoms: N_15  and  C_14 
REMARK    7  A    between atoms: N_20  and  C_19 
REMARK       I    between atoms: C_22  and  N_20 
ROOT
ATOM      1  C   LIG d   1      -7.355  75.668 118.817  0.00  0.00     0.161 C 
ATOM      2  C   LIG d   1      -8.548  76.398 118.950  0.00  0.00     0.016 C 
ATOM      3  C   LIG d   1      -8.764  77.655 118.339  0.00  0.00     0.038 C 
ATOM      4  C   LIG d   1      -7.851  78.200 117.424  0.00  0.00     0.028 C 
ATOM      5  C   LIG d   1      -6.416  77.739 117.651  0.00  0.00    -0.047 C 
ATOM      6  C   LIG d   1      -6.392  76.196 117.733  0.00  0.00     0.091 C 
ENDROOT
BRANCH   1   7
ATOM      7  O   LIG d   1      -7.657  74.278 118.586  0.00  0.00    -0.368 OA
BRANCH   7   8
ATOM      8  C   LIG d   1      -7.978  73.913 117.221  0.00  0.00     0.119 C 
BRANCH   8   9
ATOM      9  C   LIG d   1      -9.463  73.504 117.189  0.00  0.00     0.028 C 
ATOM     10  C   LIG d   1     -10.354  74.578 116.540  0.00  0.00     0.006 C 
ENDBRANCH   8   9
BRANCH   8  11
ATOM     11  C   LIG d   1      -7.205  72.667 116.781  0.00  0.00     0.028 C 
ATOM     12  C   LIG d   1      -8.084  71.408 116.727  0.00  0.00     0.006 C 
ENDBRANCH   8  11
ENDBRANCH   7   8
ENDBRANCH   1   7
BRANCH   6  13
ATOM     13  N   LIG d   1      -5.038  75.665 118.038  0.00  0.00    -0.311 N 
ATOM     14  C   LIG d   1      -4.191  75.236 117.104  0.00  0.00     0.210 C 
ATOM     15  C   LIG d   1      -2.854  74.710 117.636  0.00  0.00     0.109 C 
ATOM     16  O   LIG d   1      -4.407  75.271 115.884  0.00  0.00    -0.276 OA
ATOM     17  H   LIG d   1      -4.768  75.630 119.002  0.00  0.00     0.149 HD
ENDBRANCH   6  13
BRANCH   5  18
ATOM     18  N   LIG d   1      -5.596  78.272 116.547  0.00  0.00     0.381 N 
ATOM     19  H   LIG d   1      -6.190  78.637 115.830  0.00  0.00    -0.090 HD
ATOM     20  H   LIG d   1      -5.052  77.524 116.155  0.00  0.00    -0.090 HD
ATOM     21  H   LIG d   1      -4.993  78.989 116.886  0.00  0.00    -0.090 HD
ENDBRANCH   5  18
BRANCH   3  22
ATOM     22  C   LIG d   1      -9.886  78.398 118.673  0.00  0.00     0.382 C 
ATOM     23  O   LIG d   1     -11.004  77.837 118.770  0.00  0.00    -0.241 OA
ATOM     24  O   LIG d   1      -9.802  79.630 118.835  0.00  0.00    -0.241 OA
ENDBRANCH   3  22
TORSDOF 7
ENDMDL
MODEL 6
REMARK VINA RESULT:      -5.3      1.719      4.803
REMARK  7 active torsions:
REMARK  status: ('A' for Active; 'I' for Inactive)
REMARK    1  A    between atoms: C_2  and  C_3 
REMARK    2  A    between atoms: C_3  and  O_6 
REMARK    3  A    between atoms: C_3  and  C_4 
REMARK    4  A    between atoms: C_7  and  O_6 
REMARK    5  A    between atoms: C_9  and  C_10 
REMARK    6  A    between atoms: N_15  and  C_14 
REMARK    7  A    between atoms: N_20  and  C_19 
REMARK       I    between atoms: C_22  and  N_20 
ROOT
ATOM      1  C   LIG d   1      -7.609  76.248 117.374  0.00  0.00     0.161 C 
ATOM      2  C   LIG d   1      -7.448  77.643 117.399  0.00  0.00     0.016 C 
ATOM      3  C   LIG d   1      -8.457  78.535 117.832  0.00  0.00     0.038 C 
ATOM      4  C   LIG d   1      -9.648  78.080 118.416  0.00  0.00     0.028 C 
ATOM      5  C   LIG d   1     -10.060  76.689 117.946  0.00  0.00    -0.047 C 
ATOM      6  C   LIG d   1      -8.860  75.728 118.112  0.00  0.00     0.091 C 
ENDROOT
BRANCH   1   7
ATOM      7  O   LIG d   1      -6.423  75.611 117.889  0.00  0.00    -0.368 OA
BRANCH   7   8
ATOM      8  C   LIG d   1      -5.653  74.834 116.939  0.00  0.00     0.119 C 
BRANCH   8   9
ATOM      9  C   LIG d   1      -4.329  75.583 116.693  0.00  0.00     0.028 C 
ATOM     10  C   LIG d   1      -3.136  74.910 117.393  0.00  0.00     0.006 C 
ENDBRANCH   8   9
BRANCH   8  11
ATOM     11  C   LIG d   1      -6.346  74.778 115.574  0.00  0.00     0.028 C 
ATOM     12  C   LIG d   1      -5.399  75.111 114.411  0.00  0.00     0.006 C 
ENDBRANCH   8  11
ENDBRANCH   7   8
ENDBRANCH   1   7
BRANCH   6  13
ATOM     13  N   LIG d   1      -9.151  74.364 117.598  0.00  0.00    -0.311 N 
ATOM     14  C   LIG d   1      -8.917  73.253 118.293  0.00  0.00     0.210 C 
ATOM     15  C   LIG d   1      -9.271  71.950 117.569  0.00  0.00     0.109 C 
ATOM     16  O   LIG d   1      -8.480  73.224 119.454  0.00  0.00    -0.276 OA
ATOM     17  H   LIG d   1      -9.537  74.297 116.676  0.00  0.00     0.149 HD
ENDBRANCH   6  13
BRANCH   5  18
ATOM     18  N   LIG d   1     -11.239  76.283 118.735  0.00  0.00     0.381 N 
ATOM     19  H   LIG d   1     -11.200  76.703 119.642  0.00  0.00    -0.090 HD
ATOM     20  H   LIG d   1     -11.226  75.285 118.849  0.00  0.00    -0.090 HD
ATOM     21  H   LIG d   1     -12.073  76.561 118.268  0.00  0.00    -0.090 HD
ENDBRANCH   5  18
BRANCH   3  22
ATOM     22  C   LIG d   1      -8.294  79.899 117.645  0.00  0.00     0.382 C 
ATOM     23  O   LIG d   1      -9.174  80.697 118.050  0.00  0.00    -0.241 OA
ATOM     24  O   LIG d   1      -7.299  80.340 117.037  0.00  0.00    -0.241 OA
ENDBRANCH   3  22
TORSDOF 7
ENDMDL
MODEL 7
REMARK VINA RESULT:      -5.2      2.709      5.726
REMARK  7 active torsions:
REMARK  status: ('A' for Active; 'I' for Inactive)
REMARK    1  A    between atoms: C_2  and  C_3 
REMARK    2  A    between atoms: C_3  and  O_6 
REMARK    3  A    between atoms: C_3  and  C_4 
REMARK    4  A    between atoms: C_7  and  O_6 
REMARK    5  A    between atoms: C_9  and  C_10 
REMARK    6  A    between atoms: N_15  and  C_14 
REMARK    7  A    between atoms: N_20  and  C_19 
REMARK       I    between atoms: C_22  and  N_20 
ROOT
ATOM      1  C   LIG d   1      -7.386  76.832 117.531  0.00  0.00     0.161 C 
ATOM      2  C   LIG d   1      -8.438  77.671 117.935  0.00  0.00     0.016 C 
ATOM      3  C   LIG d   1      -8.363  79.082 117.905  0.00  0.00     0.038 C 
ATOM      4  C   LIG d   1      -7.279  79.755 117.322  0.00  0.00     0.028 C 
ATOM      5  C   LIG d   1      -5.979  78.958 117.362  0.00  0.00    -0.047 C 
ATOM      6  C   LIG d   1      -6.238  77.547 116.788  0.00  0.00     0.091 C 
ENDROOT
BRANCH   1   7
ATOM      7  O   LIG d   1      -7.903  75.750 116.731  0.00  0.00    -0.368 OA
BRANCH   7   8
ATOM      8  C   LIG d   1      -7.968  74.455 117.377  0.00  0.00     0.119 C 
BRANCH   8   9
ATOM      9  C   LIG d   1      -6.965  73.530 116.661  0.00  0.00     0.028 C 
ATOM     10  C   LIG d   1      -7.422  72.061 116.654  0.00  0.00     0.006 C 
ENDBRANCH   8   9
BRANCH   8  11
ATOM     11  C   LIG d   1      -9.338  73.800 117.176  0.00  0.00     0.028 C 
ATOM     12  C   LIG d   1     -10.368  74.754 116.551  0.00  0.00     0.006 C 
ENDBRANCH   8  11
ENDBRANCH   7   8
ENDBRANCH   1   7
BRANCH   6  13
ATOM     13  N   LIG d   1      -5.038  76.674 116.869  0.00  0.00    -0.311 N 
ATOM     14  C   LIG d   1      -4.193  76.493 115.855  0.00  0.00     0.210 C 
ATOM     15  C   LIG d   1      -3.031  75.537 116.144  0.00  0.00     0.109 C 
ATOM     16  O   LIG d   1      -4.277  77.060 114.755  0.00  0.00    -0.276 OA
ATOM     17  H   LIG d   1      -4.876  76.200 117.736  0.00  0.00     0.149 HD
ENDBRANCH   6  13
BRANCH   5  18
ATOM     18  N   LIG d   1      -4.968  79.716 116.601  0.00  0.00     0.381 N 
ATOM     19  H   LIG d   1      -5.316  79.920 115.685  0.00  0.00    -0.090 HD
ATOM     20  H   LIG d   1      -4.143  79.151 116.506  0.00  0.00    -0.090 HD
ATOM     21  H   LIG d   1      -4.747  80.563 117.076  0.00  0.00    -0.090 HD
ENDBRANCH   5  18
BRANCH   3  22
ATOM     22  C   LIG d   1      -9.364  79.836 118.498  0.00  0.00     0.382 C 
ATOM     23  O   LIG d   1     -10.568  79.602 118.230  0.00  0.00    -0.241 OA
ATOM     24  O   LIG d   1      -9.078  80.776 119.263  0.00  0.00    -0.241 OA
ENDBRANCH   3  22
TORSDOF 7
ENDMDL
MODEL 8
REMARK VINA RESULT:      -5.1      3.216      5.964
REMARK  7 active torsions:
REMARK  status: ('A' for Active; 'I' for Inactive)
REMARK    1  A    between atoms: C_2  and  C_3 
REMARK    2  A    between atoms: C_3  and  O_6 
REMARK    3  A    between atoms: C_3  and  C_4 
REMARK    4  A    between atoms: C_7  and  O_6 
REMARK    5  A    between atoms: C_9  and  C_10 
REMARK    6  A    between atoms: N_15  and  C_14 
REMARK    7  A    between atoms: N_20  and  C_19 
REMARK       I    between atoms: C_22  and  N_20 
ROOT
ATOM      1  C   LIG d   1      -6.842  77.962 117.301  0.00  0.00     0.161 C 
ATOM      2  C   LIG d   1      -8.095  78.452 117.704  0.00  0.00     0.016 C 
ATOM      3  C   LIG d   1      -8.390  79.829 117.829  0.00  0.00     0.038 C 
ATOM      4  C   LIG d   1      -7.489  80.820 117.412  0.00  0.00     0.028 C 
ATOM      5  C   LIG d   1      -6.031  80.379 117.475  0.00  0.00    -0.047 C 
ATOM      6  C   LIG d   1      -5.882  79.030 116.735  0.00  0.00     0.091 C 
ENDROOT
BRANCH   1   7
ATOM      7  O   LIG d   1      -7.017  76.892 116.351  0.00  0.00    -0.368 OA
BRANCH   7   8
ATOM      8  C   LIG d   1      -6.708  75.560 116.828  0.00  0.00     0.119 C 
BRANCH   8   9
ATOM      9  C   LIG d   1      -6.178  74.750 115.629  0.00  0.00     0.028 C 
ATOM     10  C   LIG d   1      -5.925  75.630 114.393  0.00  0.00     0.006 C 
ENDBRANCH   8   9
BRANCH   8  11
ATOM     11  C   LIG d   1      -7.971  74.825 117.287  0.00  0.00     0.028 C 
ATOM     12  C   LIG d   1      -9.214  75.211 116.471  0.00  0.00     0.006 C 
ENDBRANCH   8  11
ENDBRANCH   7   8
ENDBRANCH   1   7
BRANCH   6  13
ATOM     13  N   LIG d   1      -4.502  78.485 116.821  0.00  0.00    -0.311 N 
ATOM     14  C   LIG d   1      -3.575  78.686 115.886  0.00  0.00     0.210 C 
ATOM     15  C   LIG d   1      -2.224  78.019 116.161  0.00  0.00     0.109 C 
ATOM     16  O   LIG d   1      -3.734  79.380 114.870  0.00  0.00    -0.276 OA
ATOM     17  H   LIG d   1      -4.278  77.936 117.627  0.00  0.00     0.149 HD
ENDBRANCH   6  13
BRANCH   5  18
ATOM     18  N   LIG d   1      -5.214  81.456 116.883  0.00  0.00     0.381 N 
ATOM     19  H   LIG d   1      -5.544  82.345 117.201  0.00  0.00    -0.090 HD
ATOM     20  H   LIG d   1      -5.307  81.423 115.884  0.00  0.00    -0.090 HD
ATOM     21  H   LIG d   1      -4.258  81.338 117.139  0.00  0.00    -0.090 HD
ENDBRANCH   5  18
BRANCH   3  22
ATOM     22  C   LIG d   1      -9.582  80.226 118.415  0.00  0.00     0.382 C 
ATOM     23  O   LIG d   1     -10.591  79.484 118.349  0.00  0.00    -0.241 OA
ATOM     24  O   LIG d   1      -9.673  81.337 118.970  0.00  0.00    -0.241 OA
ENDBRANCH   3  22
TORSDOF 7
ENDMDL
MODEL 9
REMARK VINA RESULT:      -4.8     16.159     19.040
REMARK  7 active torsions:
REMARK  status: ('A' for Active; 'I' for Inactive)
REMARK    1  A    between atoms: C_2  and  C_3 
REMARK    2  A    between atoms: C_3  and  O_6 
REMARK    3  A    between atoms: C_3  and  C_4 
REMARK    4  A    between atoms: C_7  and  O_6 
REMARK    5  A    between atoms: C_9  and  C_10 
REMARK    6  A    between atoms: N_15  and  C_14 
REMARK    7  A    between atoms: N_20  and  C_19 
REMARK       I    between atoms: C_22  and  N_20 
ROOT
ATOM      1  C   LIG d   1      10.243  78.669 114.443  0.00  0.00     0.161 C 
ATOM      2  C   LIG d   1       8.912  78.892 114.834  0.00  0.00     0.016 C 
ATOM      3  C   LIG d   1       8.098  77.899 115.425  0.00  0.00     0.038 C 
ATOM      4  C   LIG d   1       8.610  76.650 115.806  0.00  0.00     0.028 C 
ATOM      5  C   LIG d   1       9.808  76.207 114.973  0.00  0.00    -0.047 C 
ATOM      6  C   LIG d   1      10.853  77.346 114.952  0.00  0.00     0.091 C 
ENDROOT
BRANCH   1   7
ATOM      7  O   LIG d   1      11.063  79.785 114.842  0.00  0.00    -0.368 OA
BRANCH   7   8
ATOM      8  C   LIG d   1      11.604  80.594 113.768  0.00  0.00     0.119 C 
BRANCH   8   9
ATOM      9  C   LIG d   1      12.916  81.221 114.277  0.00  0.00     0.028 C 
ATOM     10  C   LIG d   1      14.159  80.583 113.633  0.00  0.00     0.006 C 
ENDBRANCH   8   9
BRANCH   8  11
ATOM     11  C   LIG d   1      10.687  81.778 113.447  0.00  0.00     0.028 C 
ATOM     12  C   LIG d   1      10.095  82.432 114.706  0.00  0.00     0.006 C 
ENDBRANCH   8  11
ENDBRANCH   7   8
ENDBRANCH   1   7
BRANCH   6  13
ATOM     13  N   LIG d   1      12.021  77.028 114.090  0.00  0.00    -0.311 N 
ATOM     14  C   LIG d   1      13.284  77.121 114.502  0.00  0.00     0.210 C 
ATOM     15  C   LIG d   1      14.337  76.766 113.447  0.00  0.00     0.109 C 
ATOM     16  O   LIG d   1      13.632  77.433 115.651  0.00  0.00    -0.276 OA
ATOM     17  H   LIG d   1      11.829  76.737 113.151  0.00  0.00     0.149 HD
ENDBRANCH   6  13
BRANCH   5  18
ATOM     18  N   LIG d   1      10.326  74.959 115.565  0.00  0.00     0.381 N 
ATOM     19  H   LIG d   1      11.072  74.602 115.003  0.00  0.00    -0.090 HD
ATOM     20  H   LIG d   1       9.588  74.276 115.580  0.00  0.00    -0.090 HD
ATOM     21  H   LIG d   1      10.650  75.129 116.491  0.00  0.00    -0.090 HD
ENDBRANCH   5  18
BRANCH   3  22
ATOM     22  C   LIG d   1       6.744  78.138 115.604  0.00  0.00     0.382 C 
ATOM     23  O   LIG d   1       5.944  77.956 114.655  0.00  0.00    -0.241 OA
ATOM     24  O   LIG d   1       6.318  78.576 116.689  0.00  0.00    -0.241 OA
ENDBRANCH   3  22
TORSDOF 7
ENDMDL
