MODEL 1
REMARK VINA RESULT:      -5.2      0.000      0.000
REMARK  7 active torsions:
REMARK  status: ('A' for Active; 'I' for Inactive)
REMARK    1  A    between atoms: C_2  and  C_3 
REMARK    2  A    between atoms: C_3  and  O_6 
REMARK    3  A    between atoms: C_3  and  C_4 
REMARK    4  A    between atoms: C_7  and  O_6 
REMARK    5  A    between atoms: C_9  and  C_10 
REMARK    6  A    between atoms: N_15  and  C_14 
REMARK    7  A    between atoms: N_20  and  C_19 
REMARK       I    between atoms: C_22  and  N_20 
ROOT
ATOM      1  C   LIG d   1      -7.993  75.110 117.978  0.00  0.00     0.161 C 
ATOM      2  C   LIG d   1      -9.374  74.854 117.944  0.00  0.00     0.016 C 
ATOM      3  C   LIG d   1     -10.355  75.869 118.022  0.00  0.00     0.038 C 
ATOM      4  C   LIG d   1     -10.018  77.230 117.987  0.00  0.00     0.028 C 
ATOM      5  C   LIG d   1      -8.624  77.523 118.530  0.00  0.00    -0.047 C 
ATOM      6  C   LIG d   1      -7.606  76.596 117.827  0.00  0.00     0.091 C 
ENDROOT
BRANCH   1   7
ATOM      7  O   LIG d   1      -7.324  74.314 116.979  0.00  0.00    -0.368 OA
BRANCH   7   8
ATOM      8  C   LIG d   1      -6.300  73.412 117.464  0.00  0.00     0.119 C 
BRANCH   8   9
ATOM      9  C   LIG d   1      -4.956  73.874 116.869  0.00  0.00     0.028 C 
ATOM     10  C   LIG d   1      -5.121  74.530 115.488  0.00  0.00     0.006 C 
ENDBRANCH   8   9
BRANCH   8  11
ATOM     11  C   LIG d   1      -6.511  71.991 116.932  0.00  0.00     0.028 C 
ATOM     12  C   LIG d   1      -7.860  71.818 116.216  0.00  0.00     0.006 C 
ENDBRANCH   8  11
ENDBRANCH   7   8
ENDBRANCH   1   7
BRANCH   6  13
ATOM     13  N   LIG d   1      -6.229  76.758 118.361  0.00  0.00    -0.311 N 
ATOM     14  C   LIG d   1      -5.306  77.528 117.786  0.00  0.00     0.210 C 
ATOM     15  C   LIG d   1      -3.944  77.539 118.487  0.00  0.00     0.109 C 
ATOM     16  O   LIG d   1      -5.496  78.228 116.779  0.00  0.00    -0.276 OA
ATOM     17  H   LIG d   1      -5.998  76.250 119.192  0.00  0.00     0.149 HD
ENDBRANCH   6  13
BRANCH   5  18
ATOM     18  N   LIG d   1      -8.350  78.956 118.307  0.00  0.00     0.381 N 
ATOM     19  H   LIG d   1      -9.203  79.434 118.092  0.00  0.00    -0.090 HD
ATOM     20  H   LIG d   1      -7.730  79.050 117.522  0.00  0.00    -0.090 HD
ATOM     21  H   LIG d   1      -7.933  79.354 119.119  0.00  0.00    -0.090 HD
ENDBRANCH   5  18
BRANCH   3  22
ATOM     22  C   LIG d   1     -11.689  75.525 118.177  0.00  0.00     0.382 C 
ATOM     23  O   LIG d   1     -12.588  76.332 117.838  0.00  0.00    -0.241 OA
ATOM     24  O   LIG d   1     -12.005  74.435 118.691  0.00  0.00    -0.241 OA
ENDBRANCH   3  22
TORSDOF 7
ENDMDL
MODEL 2
REMARK VINA RESULT:      -5.2      2.448      3.584
REMARK  7 active torsions:
REMARK  status: ('A' for Active; 'I' for Inactive)
REMARK    1  A    between atoms: C_2  and  C_3 
REMARK    2  A    between atoms: C_3  and  O_6 
REMARK    3  A    between atoms: C_3  and  C_4 
REMARK    4  A    between atoms: C_7  and  O_6 
REMARK    5  A    between atoms: C_9  and  C_10 
REMARK    6  A    between atoms: N_15  and  C_14 
REMARK    7  A    between atoms: N_20  and  C_19 
REMARK       I    between atoms: C_22  and  N_20 
ROOT
ATOM      1  C   LIG d   1      -6.388  74.884 118.304  0.00  0.00     0.161 C 
ATOM      2  C   LIG d   1      -6.574  73.508 118.092  0.00  0.00     0.016 C 
ATOM      3  C   LIG d   1      -7.777  72.953 117.599  0.00  0.00     0.038 C 
ATOM      4  C   LIG d   1      -8.831  73.756 117.140  0.00  0.00     0.028 C 
ATOM      5  C   LIG d   1      -8.882  75.128 117.805  0.00  0.00    -0.047 C 
ATOM      6  C   LIG d   1      -7.486  75.786 117.704  0.00  0.00     0.091 C 
ENDROOT
BRANCH   1   7
ATOM      7  O   LIG d   1      -5.091  75.282 117.817  0.00  0.00    -0.368 OA
BRANCH   7   8
ATOM      8  C   LIG d   1      -4.563  74.514 116.708  0.00  0.00     0.119 C 
BRANCH   8   9
ATOM      9  C   LIG d   1      -3.055  74.318 116.956  0.00  0.00     0.028 C 
ATOM     10  C   LIG d   1      -2.630  74.763 118.365  0.00  0.00     0.006 C 
ENDBRANCH   8   9
BRANCH   8  11
ATOM     11  C   LIG d   1      -4.660  75.294 115.393  0.00  0.00     0.028 C 
ATOM     12  C   LIG d   1      -4.653  74.381 114.157  0.00  0.00     0.006 C 
ENDBRANCH   8  11
ENDBRANCH   7   8
ENDBRANCH   1   7
BRANCH   6  13
ATOM     13  N   LIG d   1      -7.426  77.095 118.404  0.00  0.00    -0.311 N 
ATOM     14  C   LIG d   1      -6.789  78.159 117.916  0.00  0.00     0.210 C 
ATOM     15  C   LIG d   1      -6.832  79.404 118.807  0.00  0.00     0.109 C 
ATOM     16  O   LIG d   1      -6.220  78.198 116.814  0.00  0.00    -0.276 OA
ATOM     17  H   LIG d   1      -7.887  77.161 119.290  0.00  0.00     0.149 HD
ENDBRANCH   6  13
BRANCH   5  18
ATOM     18  N   LIG d   1      -9.939  75.909 117.135  0.00  0.00     0.381 N 
ATOM     19  H   LIG d   1     -10.039  76.797 117.584  0.00  0.00    -0.090 HD
ATOM     20  H   LIG d   1     -10.810  75.414 117.217  0.00  0.00    -0.090 HD
ATOM     21  H   LIG d   1      -9.711  76.038 116.174  0.00  0.00    -0.090 HD
ENDBRANCH   5  18
BRANCH   3  22
ATOM     22  C   LIG d   1      -7.950  71.577 117.600  0.00  0.00     0.382 C 
ATOM     23  O   LIG d   1      -7.393  70.874 116.723  0.00  0.00    -0.241 OA
ATOM     24  O   LIG d   1      -8.692  71.034 118.441  0.00  0.00    -0.241 OA
ENDBRANCH   3  22
TORSDOF 7
ENDMDL
MODEL 3
REMARK VINA RESULT:      -5.1      2.368      4.173
REMARK  7 active torsions:
REMARK  status: ('A' for Active; 'I' for Inactive)
REMARK    1  A    between atoms: C_2  and  C_3 
REMARK    2  A    between atoms: C_3  and  O_6 
REMARK    3  A    between atoms: C_3  and  C_4 
REMARK    4  A    between atoms: C_7  and  O_6 
REMARK    5  A    between atoms: C_9  and  C_10 
REMARK    6  A    between atoms: N_15  and  C_14 
REMARK    7  A    between atoms: N_20  and  C_19 
REMARK       I    between atoms: C_22  and  N_20 
ROOT
ATOM      1  C   LIG d   1      -7.624  75.904 117.652  0.00  0.00     0.161 C 
ATOM      2  C   LIG d   1      -7.898  77.242 117.984  0.00  0.00     0.016 C 
ATOM      3  C   LIG d   1      -9.190  77.715 118.308  0.00  0.00     0.038 C 
ATOM      4  C   LIG d   1     -10.279  76.845 118.470  0.00  0.00     0.028 C 
ATOM      5  C   LIG d   1     -10.157  75.563 117.653  0.00  0.00    -0.047 C 
ATOM      6  C   LIG d   1      -8.779  74.920 117.931  0.00  0.00     0.091 C 
ENDROOT
BRANCH   1   7
ATOM      7  O   LIG d   1      -6.423  75.471 118.320  0.00  0.00    -0.368 OA
BRANCH   7   8
ATOM      8  C   LIG d   1      -5.192  75.607 117.569  0.00  0.00     0.119 C 
BRANCH   8   9
ATOM      9  C   LIG d   1      -4.866  74.229 116.960  0.00  0.00     0.028 C 
ATOM     10  C   LIG d   1      -5.203  74.156 115.461  0.00  0.00     0.006 C 
ENDBRANCH   8   9
BRANCH   8  11
ATOM     11  C   LIG d   1      -4.011  75.932 118.489  0.00  0.00     0.028 C 
ATOM     12  C   LIG d   1      -2.866  74.915 118.371  0.00  0.00     0.006 C 
ENDBRANCH   8  11
ENDBRANCH   7   8
ENDBRANCH   1   7
BRANCH   6  13
ATOM     13  N   LIG d   1      -8.544  73.705 117.108  0.00  0.00    -0.311 N 
ATOM     14  C   LIG d   1      -8.042  72.573 117.598  0.00  0.00     0.210 C 
ATOM     15  C   LIG d   1      -7.861  71.449 116.573  0.00  0.00     0.109 C 
ATOM     16  O   LIG d   1      -7.759  72.382 118.790  0.00  0.00    -0.276 OA
ATOM     17  H   LIG d   1      -8.775  73.762 116.135  0.00  0.00     0.149 HD
ENDBRANCH   6  13
BRANCH   5  18
ATOM     18  N   LIG d   1     -11.287  74.690 118.021  0.00  0.00     0.381 N 
ATOM     19  H   LIG d   1     -12.140  75.069 117.659  0.00  0.00    -0.090 HD
ATOM     20  H   LIG d   1     -11.359  74.656 119.023  0.00  0.00    -0.090 HD
ATOM     21  H   LIG d   1     -11.142  73.773 117.660  0.00  0.00    -0.090 HD
ENDBRANCH   5  18
BRANCH   3  22
ATOM     22  C   LIG d   1      -9.412  79.077 118.434  0.00  0.00     0.382 C 
ATOM     23  O   LIG d   1     -10.585  79.521 118.470  0.00  0.00    -0.241 OA
ATOM     24  O   LIG d   1      -8.454  79.873 118.469  0.00  0.00    -0.241 OA
ENDBRANCH   3  22
TORSDOF 7
ENDMDL
MODEL 4
REMARK VINA RESULT:      -4.9      4.175      5.816
REMARK  7 active torsions:
REMARK  status: ('A' for Active; 'I' for Inactive)
REMARK    1  A    between atoms: C_2  and  C_3 
REMARK    2  A    between atoms: C_3  and  O_6 
REMARK    3  A    between atoms: C_3  and  C_4 
REMARK    4  A    between atoms: C_7  and  O_6 
REMARK    5  A    between atoms: C_9  and  C_10 
REMARK    6  A    between atoms: N_15  and  C_14 
REMARK    7  A    between atoms: N_20  and  C_19 
REMARK       I    between atoms: C_22  and  N_20 
ROOT
ATOM      1  C   LIG d   1      -3.207  75.468 117.139  0.00  0.00     0.161 C 
ATOM      2  C   LIG d   1      -4.116  74.471 117.529  0.00  0.00     0.016 C 
ATOM      3  C   LIG d   1      -5.121  73.957 116.676  0.00  0.00     0.038 C 
ATOM      4  C   LIG d   1      -5.188  74.302 115.318  0.00  0.00     0.028 C 
ATOM      5  C   LIG d   1      -4.609  75.679 115.013  0.00  0.00    -0.047 C 
ATOM      6  C   LIG d   1      -3.193  75.776 115.627  0.00  0.00     0.091 C 
ENDROOT
BRANCH   1   7
ATOM      7  O   LIG d   1      -1.882  75.125 117.592  0.00  0.00    -0.368 OA
BRANCH   7   8
ATOM      8  C   LIG d   1      -1.350  73.866 117.112  0.00  0.00     0.119 C 
BRANCH   8   9
ATOM      9  C   LIG d   1      -0.825  73.089 118.335  0.00  0.00     0.028 C 
ATOM     10  C   LIG d   1       0.623  73.464 118.691  0.00  0.00     0.006 C 
ENDBRANCH   8   9
BRANCH   8  11
ATOM     11  C   LIG d   1      -0.128  74.082 116.215  0.00  0.00     0.028 C 
ATOM     12  C   LIG d   1      -0.339  73.560 114.785  0.00  0.00     0.006 C 
ENDBRANCH   8  11
ENDBRANCH   7   8
ENDBRANCH   1   7
BRANCH   6  13
ATOM     13  N   LIG d   1      -2.588  77.121 115.447  0.00  0.00    -0.311 N 
ATOM     14  C   LIG d   1      -1.800  77.440 114.422  0.00  0.00     0.210 C 
ATOM     15  C   LIG d   1      -1.266  78.876 114.439  0.00  0.00     0.109 C 
ATOM     16  O   LIG d   1      -1.519  76.680 113.483  0.00  0.00    -0.276 OA
ATOM     17  H   LIG d   1      -2.790  77.809 116.147  0.00  0.00     0.149 HD
ENDBRANCH   6  13
BRANCH   5  18
ATOM     18  N   LIG d   1      -4.617  75.852 113.548  0.00  0.00     0.381 N 
ATOM     19  H   LIG d   1      -3.836  75.373 113.146  0.00  0.00    -0.090 HD
ATOM     20  H   LIG d   1      -4.531  76.830 113.336  0.00  0.00    -0.090 HD
ATOM     21  H   LIG d   1      -5.466  75.495 113.168  0.00  0.00    -0.090 HD
ENDBRANCH   5  18
BRANCH   3  22
ATOM     22  C   LIG d   1      -6.097  73.119 117.192  0.00  0.00     0.382 C 
ATOM     23  O   LIG d   1      -6.761  73.473 118.196  0.00  0.00    -0.241 OA
ATOM     24  O   LIG d   1      -6.291  71.994 116.694  0.00  0.00    -0.241 OA
ENDBRANCH   3  22
TORSDOF 7
ENDMDL
MODEL 5
REMARK VINA RESULT:      -4.8      4.251      7.472
REMARK  7 active torsions:
REMARK  status: ('A' for Active; 'I' for Inactive)
REMARK    1  A    between atoms: C_2  and  C_3 
REMARK    2  A    between atoms: C_3  and  O_6 
REMARK    3  A    between atoms: C_3  and  C_4 
REMARK    4  A    between atoms: C_7  and  O_6 
REMARK    5  A    between atoms: C_9  and  C_10 
REMARK    6  A    between atoms: N_15  and  C_14 
REMARK    7  A    between atoms: N_20  and  C_19 
REMARK       I    between atoms: C_22  and  N_20 
ROOT
ATOM      1  C   LIG d   1      -2.955  74.318 116.791  0.00  0.00     0.161 C 
ATOM      2  C   LIG d   1      -2.068  73.752 117.721  0.00  0.00     0.016 C 
ATOM      3  C   LIG d   1      -0.662  73.814 117.593  0.00  0.00     0.038 C 
ATOM      4  C   LIG d   1      -0.041  74.584 116.598  0.00  0.00     0.028 C 
ATOM      5  C   LIG d   1      -0.895  74.755 115.345  0.00  0.00    -0.047 C 
ATOM      6  C   LIG d   1      -2.297  75.257 115.758  0.00  0.00     0.091 C 
ENDROOT
BRANCH   1   7
ATOM      7  O   LIG d   1      -4.018  75.002 117.484  0.00  0.00    -0.368 OA
BRANCH   7   8
ATOM      8  C   LIG d   1      -5.258  74.267 117.635  0.00  0.00     0.119 C 
BRANCH   8   9
ATOM      9  C   LIG d   1      -5.645  73.723 116.246  0.00  0.00     0.028 C 
ATOM     10  C   LIG d   1      -6.506  72.451 116.334  0.00  0.00     0.006 C 
ENDBRANCH   8   9
BRANCH   8  11
ATOM     11  C   LIG d   1      -6.408  75.191 118.044  0.00  0.00     0.028 C 
ATOM     12  C   LIG d   1      -6.663  76.312 117.024  0.00  0.00     0.006 C 
ENDBRANCH   8  11
ENDBRANCH   7   8
ENDBRANCH   1   7
BRANCH   6  13
ATOM     13  N   LIG d   1      -3.222  75.371 114.601  0.00  0.00    -0.311 N 
ATOM     14  C   LIG d   1      -3.966  76.449 114.360  0.00  0.00     0.210 C 
ATOM     15  C   LIG d   1      -4.866  76.351 113.124  0.00  0.00     0.109 C 
ATOM     16  O   LIG d   1      -3.942  77.490 115.034  0.00  0.00    -0.276 OA
ATOM     17  H   LIG d   1      -3.281  74.584 113.984  0.00  0.00     0.149 HD
ENDBRANCH   6  13
BRANCH   5  18
ATOM     18  N   LIG d   1      -0.187  75.689 114.449  0.00  0.00     0.381 N 
ATOM     19  H   LIG d   1       0.679  75.968 114.865  0.00  0.00    -0.090 HD
ATOM     20  H   LIG d   1      -0.754  76.509 114.321  0.00  0.00    -0.090 HD
ATOM     21  H   LIG d   1      -0.017  75.254 113.569  0.00  0.00    -0.090 HD
ENDBRANCH   5  18
BRANCH   3  22
ATOM     22  C   LIG d   1       0.140  73.069 118.444  0.00  0.00     0.382 C 
ATOM     23  O   LIG d   1       1.236  73.533 118.840  0.00  0.00    -0.241 OA
ATOM     24  O   LIG d   1      -0.199  71.920 118.786  0.00  0.00    -0.241 OA
ENDBRANCH   3  22
TORSDOF 7
ENDMDL
MODEL 6
REMARK VINA RESULT:      -4.8      1.933      4.916
REMARK  7 active torsions:
REMARK  status: ('A' for Active; 'I' for Inactive)
REMARK    1  A    between atoms: C_2  and  C_3 
REMARK    2  A    between atoms: C_3  and  O_6 
REMARK    3  A    between atoms: C_3  and  C_4 
REMARK    4  A    between atoms: C_7  and  O_6 
REMARK    5  A    between atoms: C_9  and  C_10 
REMARK    6  A    between atoms: N_15  and  C_14 
REMARK    7  A    between atoms: N_20  and  C_19 
REMARK       I    between atoms: C_22  and  N_20 
ROOT
ATOM      1  C   LIG d   1      -7.886  75.331 117.719  0.00  0.00     0.161 C 
ATOM      2  C   LIG d   1      -7.932  73.972 117.364  0.00  0.00     0.016 C 
ATOM      3  C   LIG d   1      -6.873  73.304 116.708  0.00  0.00     0.038 C 
ATOM      4  C   LIG d   1      -5.627  73.915 116.497  0.00  0.00     0.028 C 
ATOM      5  C   LIG d   1      -5.709  75.433 116.385  0.00  0.00    -0.047 C 
ATOM      6  C   LIG d   1      -6.494  75.985 117.597  0.00  0.00     0.091 C 
ENDROOT
BRANCH   1   7
ATOM      7  O   LIG d   1      -8.406  75.505 119.052  0.00  0.00    -0.368 OA
BRANCH   7   8
ATOM      8  C   LIG d   1      -9.690  76.168 119.153  0.00  0.00     0.119 C 
BRANCH   8   9
ATOM      9  C   LIG d   1     -10.310  76.196 117.743  0.00  0.00     0.028 C 
ATOM     10  C   LIG d   1     -11.523  75.259 117.617  0.00  0.00     0.006 C 
ENDBRANCH   8   9
BRANCH   8  11
ATOM     11  C   LIG d   1      -9.528  77.638 119.553  0.00  0.00     0.028 C 
ATOM     12  C   LIG d   1     -10.701  78.515 119.088  0.00  0.00     0.006 C 
ENDBRANCH   8  11
ENDBRANCH   7   8
ENDBRANCH   1   7
BRANCH   6  13
ATOM     13  N   LIG d   1      -6.693  77.456 117.522  0.00  0.00    -0.311 N 
ATOM     14  C   LIG d   1      -6.200  78.309 118.418  0.00  0.00     0.210 C 
ATOM     15  C   LIG d   1      -6.539  79.781 118.164  0.00  0.00     0.109 C 
ATOM     16  O   LIG d   1      -5.486  77.989 119.381  0.00  0.00    -0.276 OA
ATOM     17  H   LIG d   1      -7.234  77.804 116.755  0.00  0.00     0.149 HD
ENDBRANCH   6  13
BRANCH   5  18
ATOM     18  N   LIG d   1      -4.330  75.949 116.305  0.00  0.00     0.381 N 
ATOM     19  H   LIG d   1      -3.799  75.400 115.659  0.00  0.00    -0.090 HD
ATOM     20  H   LIG d   1      -3.901  75.871 117.211  0.00  0.00    -0.090 HD
ATOM     21  H   LIG d   1      -4.338  76.902 116.015  0.00  0.00    -0.090 HD
ENDBRANCH   5  18
BRANCH   3  22
ATOM     22  C   LIG d   1      -7.068  72.021 116.220  0.00  0.00     0.382 C 
ATOM     23  O   LIG d   1      -7.792  71.213 116.850  0.00  0.00    -0.241 OA
ATOM     24  O   LIG d   1      -6.492  71.646 115.180  0.00  0.00    -0.241 OA
ENDBRANCH   3  22
TORSDOF 7
ENDMDL
MODEL 7
REMARK VINA RESULT:      -4.8      4.325      7.140
REMARK  7 active torsions:
REMARK  status: ('A' for Active; 'I' for Inactive)
REMARK    1  A    between atoms: C_2  and  C_3 
REMARK    2  A    between atoms: C_3  and  O_6 
REMARK    3  A    between atoms: C_3  and  C_4 
REMARK    4  A    between atoms: C_7  and  O_6 
REMARK    5  A    between atoms: C_9  and  C_10 
REMARK    6  A    between atoms: N_15  and  C_14 
REMARK    7  A    between atoms: N_20  and  C_19 
REMARK       I    between atoms: C_22  and  N_20 
ROOT
ATOM      1  C   LIG d   1      -2.868  76.347 117.097  0.00  0.00     0.161 C 
ATOM      2  C   LIG d   1      -3.236  77.437 116.291  0.00  0.00     0.016 C 
ATOM      3  C   LIG d   1      -2.468  77.887 115.192  0.00  0.00     0.038 C 
ATOM      4  C   LIG d   1      -1.349  77.178 114.730  0.00  0.00     0.028 C 
ATOM      5  C   LIG d   1      -0.656  76.364 115.818  0.00  0.00    -0.047 C 
ATOM      6  C   LIG d   1      -1.710  75.493 116.541  0.00  0.00     0.091 C 
ENDROOT
BRANCH   1   7
ATOM      7  O   LIG d   1      -4.020  75.521 117.356  0.00  0.00    -0.368 OA
BRANCH   7   8
ATOM      8  C   LIG d   1      -5.075  75.569 116.364  0.00  0.00     0.119 C 
BRANCH   8   9
ATOM      9  C   LIG d   1      -6.419  75.485 117.113  0.00  0.00     0.028 C 
ATOM     10  C   LIG d   1      -6.800  74.040 117.476  0.00  0.00     0.006 C 
ENDBRANCH   8   9
BRANCH   8  11
ATOM     11  C   LIG d   1      -5.041  74.338 115.454  0.00  0.00     0.028 C 
ATOM     12  C   LIG d   1      -4.570  74.664 114.028  0.00  0.00     0.006 C 
ENDBRANCH   8  11
ENDBRANCH   7   8
ENDBRANCH   1   7
BRANCH   6  13
ATOM     13  N   LIG d   1      -1.130  74.728 117.675  0.00  0.00    -0.311 N 
ATOM     14  C   LIG d   1      -0.550  73.537 117.535  0.00  0.00     0.210 C 
ATOM     15  C   LIG d   1      -0.037  72.911 118.836  0.00  0.00     0.109 C 
ATOM     16  O   LIG d   1      -0.382  72.954 116.453  0.00  0.00    -0.276 OA
ATOM     17  H   LIG d   1      -1.195  75.141 118.585  0.00  0.00     0.149 HD
ENDBRANCH   6  13
BRANCH   5  18
ATOM     18  N   LIG d   1       0.405  75.569 115.171  0.00  0.00     0.381 N 
ATOM     19  H   LIG d   1       0.040  74.681 114.890  0.00  0.00    -0.090 HD
ATOM     20  H   LIG d   1       1.143  75.411 115.835  0.00  0.00    -0.090 HD
ATOM     21  H   LIG d   1       0.761  76.056 114.378  0.00  0.00    -0.090 HD
ENDBRANCH   5  18
BRANCH   3  22
ATOM     22  C   LIG d   1      -2.795  79.081 114.568  0.00  0.00     0.382 C 
ATOM     23  O   LIG d   1      -3.096  80.086 115.256  0.00  0.00    -0.241 OA
ATOM     24  O   LIG d   1      -2.835  79.154 113.325  0.00  0.00    -0.241 OA
ENDBRANCH   3  22
TORSDOF 7
ENDMDL
MODEL 8
REMARK VINA RESULT:      -4.8      3.769      6.761
REMARK  7 active torsions:
REMARK  status: ('A' for Active; 'I' for Inactive)
REMARK    1  A    between atoms: C_2  and  C_3 
REMARK    2  A    between atoms: C_3  and  O_6 
REMARK    3  A    between atoms: C_3  and  C_4 
REMARK    4  A    between atoms: C_7  and  O_6 
REMARK    5  A    between atoms: C_9  and  C_10 
REMARK    6  A    between atoms: N_15  and  C_14 
REMARK    7  A    between atoms: N_20  and  C_19 
REMARK       I    between atoms: C_22  and  N_20 
ROOT
ATOM      1  C   LIG d   1      -3.231  75.027 115.018  0.00  0.00     0.161 C 
ATOM      2  C   LIG d   1      -2.545  76.248 114.911  0.00  0.00     0.016 C 
ATOM      3  C   LIG d   1      -3.046  77.469 115.419  0.00  0.00     0.038 C 
ATOM      4  C   LIG d   1      -4.205  77.525 116.207  0.00  0.00     0.028 C 
ATOM      5  C   LIG d   1      -5.191  76.400 115.913  0.00  0.00    -0.047 C 
ATOM      6  C   LIG d   1      -4.444  75.048 115.972  0.00  0.00     0.091 C 
ENDROOT
BRANCH   1   7
ATOM      7  O   LIG d   1      -2.313  73.983 115.398  0.00  0.00    -0.368 OA
BRANCH   7   8
ATOM      8  C   LIG d   1      -1.274  74.358 116.336  0.00  0.00     0.119 C 
BRANCH   8   9
ATOM      9  C   LIG d   1       0.008  73.604 115.932  0.00  0.00     0.028 C 
ATOM     10  C   LIG d   1       0.081  73.338 114.419  0.00  0.00     0.006 C 
ENDBRANCH   8   9
BRANCH   8  11
ATOM     11  C   LIG d   1      -1.599  73.874 117.752  0.00  0.00     0.028 C 
ATOM     12  C   LIG d   1      -0.474  73.027 118.366  0.00  0.00     0.006 C 
ENDBRANCH   8  11
ENDBRANCH   7   8
ENDBRANCH   1   7
BRANCH   6  13
ATOM     13  N   LIG d   1      -5.318  73.901 115.614  0.00  0.00    -0.311 N 
ATOM     14  C   LIG d   1      -6.012  73.200 116.509  0.00  0.00     0.210 C 
ATOM     15  C   LIG d   1      -6.834  72.045 115.929  0.00  0.00     0.109 C 
ATOM     16  O   LIG d   1      -6.050  73.446 117.724  0.00  0.00    -0.276 OA
ATOM     17  H   LIG d   1      -5.370  73.652 114.645  0.00  0.00     0.149 HD
ENDBRANCH   6  13
BRANCH   5  18
ATOM     18  N   LIG d   1      -6.286  76.498 116.898  0.00  0.00     0.381 N 
ATOM     19  H   LIG d   1      -6.746  75.614 116.982  0.00  0.00    -0.090 HD
ATOM     20  H   LIG d   1      -6.956  77.173 116.572  0.00  0.00    -0.090 HD
ATOM     21  H   LIG d   1      -5.924  76.779 117.783  0.00  0.00    -0.090 HD
ENDBRANCH   5  18
BRANCH   3  22
ATOM     22  C   LIG d   1      -2.405  78.658 115.105  0.00  0.00     0.382 C 
ATOM     23  O   LIG d   1      -1.187  78.654 114.802  0.00  0.00    -0.241 OA
ATOM     24  O   LIG d   1      -3.018  79.741 115.164  0.00  0.00    -0.241 OA
ENDBRANCH   3  22
TORSDOF 7
ENDMDL
MODEL 9
REMARK VINA RESULT:      -4.8      5.295      7.814
REMARK  7 active torsions:
REMARK  status: ('A' for Active; 'I' for Inactive)
REMARK    1  A    between atoms: C_2  and  C_3 
REMARK    2  A    between atoms: C_3  and  O_6 
REMARK    3  A    between atoms: C_3  and  C_4 
REMARK    4  A    between atoms: C_7  and  O_6 
REMARK    5  A    between atoms: C_9  and  C_10 
REMARK    6  A    between atoms: N_15  and  C_14 
REMARK    7  A    between atoms: N_20  and  C_19 
REMARK       I    between atoms: C_22  and  N_20 
ROOT
ATOM      1  C   LIG d   1      -1.538  74.830 115.321  0.00  0.00     0.161 C 
ATOM      2  C   LIG d   1      -1.146  73.907 116.305  0.00  0.00     0.016 C 
ATOM      3  C   LIG d   1      -0.341  74.249 117.415  0.00  0.00     0.038 C 
ATOM      4  C   LIG d   1       0.005  75.578 117.700  0.00  0.00     0.028 C 
ATOM      5  C   LIG d   1       0.055  76.469 116.463  0.00  0.00    -0.047 C 
ATOM      6  C   LIG d   1      -1.264  76.307 115.674  0.00  0.00     0.091 C 
ENDROOT
BRANCH   1   7
ATOM      7  O   LIG d   1      -2.931  74.641 115.002  0.00  0.00    -0.368 OA
BRANCH   7   8
ATOM      8  C   LIG d   1      -3.880  75.320 115.861  0.00  0.00     0.119 C 
BRANCH   8   9
ATOM      9  C   LIG d   1      -4.500  74.262 116.793  0.00  0.00     0.028 C 
ATOM     10  C   LIG d   1      -5.721  73.569 116.164  0.00  0.00     0.006 C 
ENDBRANCH   8   9
BRANCH   8  11
ATOM     11  C   LIG d   1      -5.052  75.890 115.056  0.00  0.00     0.028 C 
ATOM     12  C   LIG d   1      -4.754  75.981 113.551  0.00  0.00     0.006 C 
ENDBRANCH   8  11
ENDBRANCH   7   8
ENDBRANCH   1   7
BRANCH   6  13
ATOM     13  N   LIG d   1      -1.264  77.080 114.404  0.00  0.00    -0.311 N 
ATOM     14  C   LIG d   1      -2.044  78.138 114.190  0.00  0.00     0.210 C 
ATOM     15  C   LIG d   1      -1.900  78.777 112.805  0.00  0.00     0.109 C 
ATOM     16  O   LIG d   1      -2.817  78.627 115.027  0.00  0.00    -0.276 OA
ATOM     17  H   LIG d   1      -0.643  76.770 113.682  0.00  0.00     0.149 HD
ENDBRANCH   6  13
BRANCH   5  18
ATOM     18  N   LIG d   1       0.290  77.852 116.918  0.00  0.00     0.381 N 
ATOM     19  H   LIG d   1       1.205  77.926 117.317  0.00  0.00    -0.090 HD
ATOM     20  H   LIG d   1      -0.383  78.079 117.629  0.00  0.00    -0.090 HD
ATOM     21  H   LIG d   1       0.201  78.483 116.153  0.00  0.00    -0.090 HD
ENDBRANCH   5  18
BRANCH   3  22
ATOM     22  C   LIG d   1       0.162  73.248 118.234  0.00  0.00     0.382 C 
ATOM     23  O   LIG d   1      -0.474  72.176 118.376  0.00  0.00    -0.241 OA
ATOM     24  O   LIG d   1       1.221  73.422 118.867  0.00  0.00    -0.241 OA
ENDBRANCH   3  22
TORSDOF 7
ENDMDL
