MODEL 1
REMARK VINA RESULT:      -5.4      0.000      0.000
REMARK  7 active torsions:
REMARK  status: ('A' for Active; 'I' for Inactive)
REMARK    1  A    between atoms: C_2  and  C_3 
REMARK    2  A    between atoms: C_3  and  O_6 
REMARK    3  A    between atoms: C_3  and  C_4 
REMARK    4  A    between atoms: C_7  and  O_6 
REMARK    5  A    between atoms: C_9  and  C_10 
REMARK    6  A    between atoms: N_15  and  C_14 
REMARK    7  A    between atoms: N_20  and  C_19 
REMARK       I    between atoms: C_22  and  N_20 
ROOT
ATOM      1  C   LIG d   1      -1.554  77.290 115.047  0.00  0.00     0.161 C 
ATOM      2  C   LIG d   1      -2.873  77.011 114.652  0.00  0.00     0.016 C 
ATOM      3  C   LIG d   1      -3.558  75.826 115.009  0.00  0.00     0.038 C 
ATOM      4  C   LIG d   1      -3.019  74.903 115.918  0.00  0.00     0.028 C 
ATOM      5  C   LIG d   1      -1.494  74.897 115.943  0.00  0.00    -0.047 C 
ATOM      6  C   LIG d   1      -0.990  76.347 116.130  0.00  0.00     0.091 C 
ENDROOT
BRANCH   1   7
ATOM      7  O   LIG d   1      -1.453  78.662 115.476  0.00  0.00    -0.368 OA
BRANCH   7   8
ATOM      8  C   LIG d   1      -2.420  79.580 114.910  0.00  0.00     0.119 C 
BRANCH   8   9
ATOM      9  C   LIG d   1      -1.649  80.572 114.018  0.00  0.00     0.028 C 
ATOM     10  C   LIG d   1      -2.509  81.114 112.863  0.00  0.00     0.006 C 
ENDBRANCH   8   9
BRANCH   8  11
ATOM     11  C   LIG d   1      -3.077  80.437 115.995  0.00  0.00     0.028 C 
ATOM     12  C   LIG d   1      -4.297  79.756 116.635  0.00  0.00     0.006 C 
ENDBRANCH   8  11
ENDBRANCH   7   8
ENDBRANCH   1   7
BRANCH   6  13
ATOM     13  N   LIG d   1       0.492  76.441 116.082  0.00  0.00    -0.311 N 
ATOM     14  C   LIG d   1       1.236  76.841 117.112  0.00  0.00     0.210 C 
ATOM     15  C   LIG d   1       2.743  76.886 116.843  0.00  0.00     0.109 C 
ATOM     16  O   LIG d   1       0.792  77.133 118.233  0.00  0.00    -0.276 OA
ATOM     17  H   LIG d   1       0.937  76.194 115.219  0.00  0.00     0.149 HD
ENDBRANCH   6  13
BRANCH   5  18
ATOM     18  N   LIG d   1      -1.070  73.993 117.028  0.00  0.00     0.381 N 
ATOM     19  H   LIG d   1      -0.987  73.059 116.677  0.00  0.00    -0.090 HD
ATOM     20  H   LIG d   1      -1.771  73.998 117.748  0.00  0.00    -0.090 HD
ATOM     21  H   LIG d   1      -0.197  74.294 117.401  0.00  0.00    -0.090 HD
ENDBRANCH   5  18
BRANCH   3  22
ATOM     22  C   LIG d   1      -4.781  75.537 114.423  0.00  0.00     0.382 C 
ATOM     23  O   LIG d   1      -4.929  75.667 113.184  0.00  0.00    -0.241 OA
ATOM     24  O   LIG d   1      -5.750  75.189 115.123  0.00  0.00    -0.241 OA
ENDBRANCH   3  22
TORSDOF 7
ENDMDL
MODEL 2
REMARK VINA RESULT:      -5.0      2.254      3.185
REMARK  7 active torsions:
REMARK  status: ('A' for Active; 'I' for Inactive)
REMARK    1  A    between atoms: C_2  and  C_3 
REMARK    2  A    between atoms: C_3  and  O_6 
REMARK    3  A    between atoms: C_3  and  C_4 
REMARK    4  A    between atoms: C_7  and  O_6 
REMARK    5  A    between atoms: C_9  and  C_10 
REMARK    6  A    between atoms: N_15  and  C_14 
REMARK    7  A    between atoms: N_20  and  C_19 
REMARK       I    between atoms: C_22  and  N_20 
ROOT
ATOM      1  C   LIG d   1      -3.241  78.426 114.737  0.00  0.00     0.161 C 
ATOM      2  C   LIG d   1      -4.100  77.333 114.941  0.00  0.00     0.016 C 
ATOM      3  C   LIG d   1      -3.643  76.006 115.110  0.00  0.00     0.038 C 
ATOM      4  C   LIG d   1      -2.280  75.701 115.237  0.00  0.00     0.028 C 
ATOM      5  C   LIG d   1      -1.368  76.700 114.534  0.00  0.00    -0.047 C 
ATOM      6  C   LIG d   1      -1.747  78.129 114.984  0.00  0.00     0.091 C 
ENDROOT
BRANCH   1   7
ATOM      7  O   LIG d   1      -3.670  79.542 115.542  0.00  0.00    -0.368 OA
BRANCH   7   8
ATOM      8  C   LIG d   1      -4.230  79.215 116.838  0.00  0.00     0.119 C 
BRANCH   8   9
ATOM      9  C   LIG d   1      -5.403  80.181 117.093  0.00  0.00     0.028 C 
ATOM     10  C   LIG d   1      -6.736  79.443 117.303  0.00  0.00     0.006 C 
ENDBRANCH   8   9
BRANCH   8  11
ATOM     11  C   LIG d   1      -3.227  79.489 117.963  0.00  0.00     0.028 C 
ATOM     12  C   LIG d   1      -3.190  80.967 118.381  0.00  0.00     0.006 C 
ENDBRANCH   8  11
ENDBRANCH   7   8
ENDBRANCH   1   7
BRANCH   6  13
ATOM     13  N   LIG d   1      -0.959  79.174 114.279  0.00  0.00    -0.311 N 
ATOM     14  C   LIG d   1      -0.404  80.215 114.896  0.00  0.00     0.210 C 
ATOM     15  C   LIG d   1       0.349  81.185 113.980  0.00  0.00     0.109 C 
ATOM     16  O   LIG d   1      -0.437  80.412 116.121  0.00  0.00    -0.276 OA
ATOM     17  H   LIG d   1      -0.856  79.076 113.288  0.00  0.00     0.149 HD
ENDBRANCH   6  13
BRANCH   5  18
ATOM     18  N   LIG d   1       0.025  76.341 114.863  0.00  0.00     0.381 N 
ATOM     19  H   LIG d   1       0.655  76.946 114.375  0.00  0.00    -0.090 HD
ATOM     20  H   LIG d   1       0.196  75.398 114.562  0.00  0.00    -0.090 HD
ATOM     21  H   LIG d   1       0.173  76.417 115.845  0.00  0.00    -0.090 HD
ENDBRANCH   5  18
BRANCH   3  22
ATOM     22  C   LIG d   1      -4.555  74.961 115.113  0.00  0.00     0.382 C 
ATOM     23  O   LIG d   1      -4.673  74.229 114.101  0.00  0.00    -0.241 OA
ATOM     24  O   LIG d   1      -5.292  74.768 116.098  0.00  0.00    -0.241 OA
ENDBRANCH   3  22
TORSDOF 7
ENDMDL
MODEL 3
REMARK VINA RESULT:      -4.9     13.406     16.439
REMARK  7 active torsions:
REMARK  status: ('A' for Active; 'I' for Inactive)
REMARK    1  A    between atoms: C_2  and  C_3 
REMARK    2  A    between atoms: C_3  and  O_6 
REMARK    3  A    between atoms: C_3  and  C_4 
REMARK    4  A    between atoms: C_7  and  O_6 
REMARK    5  A    between atoms: C_9  and  C_10 
REMARK    6  A    between atoms: N_15  and  C_14 
REMARK    7  A    between atoms: N_20  and  C_19 
REMARK       I    between atoms: C_22  and  N_20 
ROOT
ATOM      1  C   LIG d   1      -4.427  91.911 117.334  0.00  0.00     0.161 C 
ATOM      2  C   LIG d   1      -3.621  92.961 117.804  0.00  0.00     0.016 C 
ATOM      3  C   LIG d   1      -4.113  94.029 118.588  0.00  0.00     0.038 C 
ATOM      4  C   LIG d   1      -5.425  94.041 119.085  0.00  0.00     0.028 C 
ATOM      5  C   LIG d   1      -6.408  93.261 118.218  0.00  0.00    -0.047 C 
ATOM      6  C   LIG d   1      -5.837  91.849 117.958  0.00  0.00     0.091 C 
ENDROOT
BRANCH   1   7
ATOM      7  O   LIG d   1      -3.745  90.654 117.510  0.00  0.00    -0.368 OA
BRANCH   7   8
ATOM      8  C   LIG d   1      -2.808  90.586 118.614  0.00  0.00     0.119 C 
BRANCH   8   9
ATOM      9  C   LIG d   1      -1.423  90.254 118.025  0.00  0.00     0.028 C 
ATOM     10  C   LIG d   1      -0.366  91.314 118.378  0.00  0.00     0.006 C 
ENDBRANCH   8   9
BRANCH   8  11
ATOM     11  C   LIG d   1      -3.138  89.424 119.555  0.00  0.00     0.028 C 
ATOM     12  C   LIG d   1      -2.131  88.268 119.450  0.00  0.00     0.006 C 
ENDBRANCH   8  11
ENDBRANCH   7   8
ENDBRANCH   1   7
BRANCH   6  13
ATOM     13  N   LIG d   1      -6.697  91.048 117.048  0.00  0.00    -0.311 N 
ATOM     14  C   LIG d   1      -6.929  91.379 115.779  0.00  0.00     0.210 C 
ATOM     15  C   LIG d   1      -7.861  90.427 115.023  0.00  0.00     0.109 C 
ATOM     16  O   LIG d   1      -6.427  92.354 115.199  0.00  0.00    -0.276 OA
ATOM     17  H   LIG d   1      -7.119  90.224 117.428  0.00  0.00     0.149 HD
ENDBRANCH   6  13
BRANCH   5  18
ATOM     18  N   LIG d   1      -7.704  93.240 118.922  0.00  0.00     0.381 N 
ATOM     19  H   LIG d   1      -7.554  93.301 119.909  0.00  0.00    -0.090 HD
ATOM     20  H   LIG d   1      -8.166  92.370 118.726  0.00  0.00    -0.090 HD
ATOM     21  H   LIG d   1      -8.270  94.002 118.617  0.00  0.00    -0.090 HD
ENDBRANCH   5  18
BRANCH   3  22
ATOM     22  C   LIG d   1      -3.300  95.122 118.849  0.00  0.00     0.382 C 
ATOM     23  O   LIG d   1      -2.054  95.010 118.763  0.00  0.00    -0.241 OA
ATOM     24  O   LIG d   1      -3.795  96.205 119.214  0.00  0.00    -0.241 OA
ENDBRANCH   3  22
TORSDOF 7
ENDMDL
MODEL 4
REMARK VINA RESULT:      -4.9      2.841      5.680
REMARK  7 active torsions:
REMARK  status: ('A' for Active; 'I' for Inactive)
REMARK    1  A    between atoms: C_2  and  C_3 
REMARK    2  A    between atoms: C_3  and  O_6 
REMARK    3  A    between atoms: C_3  and  C_4 
REMARK    4  A    between atoms: C_7  and  O_6 
REMARK    5  A    between atoms: C_9  and  C_10 
REMARK    6  A    between atoms: N_15  and  C_14 
REMARK    7  A    between atoms: N_20  and  C_19 
REMARK       I    between atoms: C_22  and  N_20 
ROOT
ATOM      1  C   LIG d   1      -3.045  79.164 115.922  0.00  0.00     0.161 C 
ATOM      2  C   LIG d   1      -2.059  80.160 116.025  0.00  0.00     0.016 C 
ATOM      3  C   LIG d   1      -0.913  80.209 115.198  0.00  0.00     0.038 C 
ATOM      4  C   LIG d   1      -0.751  79.346 114.104  0.00  0.00     0.028 C 
ATOM      5  C   LIG d   1      -1.469  78.012 114.274  0.00  0.00    -0.047 C 
ATOM      6  C   LIG d   1      -2.941  78.280 114.662  0.00  0.00     0.091 C 
ENDROOT
BRANCH   1   7
ATOM      7  O   LIG d   1      -4.354  79.762 116.007  0.00  0.00    -0.368 OA
BRANCH   7   8
ATOM      8  C   LIG d   1      -4.891  79.932 117.342  0.00  0.00     0.119 C 
BRANCH   8   9
ATOM      9  C   LIG d   1      -5.905  78.796 117.581  0.00  0.00     0.028 C 
ATOM     10  C   LIG d   1      -5.446  77.822 118.679  0.00  0.00     0.006 C 
ENDBRANCH   8   9
BRANCH   8  11
ATOM     11  C   LIG d   1      -5.699  81.228 117.457  0.00  0.00     0.028 C 
ATOM     12  C   LIG d   1      -7.208  80.978 117.609  0.00  0.00     0.006 C 
ENDBRANCH   8  11
ENDBRANCH   7   8
ENDBRANCH   1   7
BRANCH   6  13
ATOM     13  N   LIG d   1      -3.694  77.026 114.929  0.00  0.00    -0.311 N 
ATOM     14  C   LIG d   1      -4.403  76.386 114.001  0.00  0.00     0.210 C 
ATOM     15  C   LIG d   1      -5.119  75.123 114.493  0.00  0.00     0.109 C 
ATOM     16  O   LIG d   1      -4.482  76.725 112.811  0.00  0.00    -0.276 OA
ATOM     17  H   LIG d   1      -3.660  76.664 115.861  0.00  0.00     0.149 HD
ENDBRANCH   6  13
BRANCH   5  18
ATOM     18  N   LIG d   1      -1.331  77.268 113.007  0.00  0.00     0.381 N 
ATOM     19  H   LIG d   1      -1.869  77.714 112.292  0.00  0.00    -0.090 HD
ATOM     20  H   LIG d   1      -1.689  76.337 113.136  0.00  0.00    -0.090 HD
ATOM     21  H   LIG d   1      -0.373  77.228 112.737  0.00  0.00    -0.090 HD
ENDBRANCH   5  18
BRANCH   3  22
ATOM     22  C   LIG d   1       0.105  81.105 115.488  0.00  0.00     0.382 C 
ATOM     23  O   LIG d   1       0.771  81.619 114.557  0.00  0.00    -0.241 OA
ATOM     24  O   LIG d   1       0.395  81.371 116.669  0.00  0.00    -0.241 OA
ENDBRANCH   3  22
TORSDOF 7
ENDMDL
MODEL 5
REMARK VINA RESULT:      -4.8      1.771      5.001
REMARK  7 active torsions:
REMARK  status: ('A' for Active; 'I' for Inactive)
REMARK    1  A    between atoms: C_2  and  C_3 
REMARK    2  A    between atoms: C_3  and  O_6 
REMARK    3  A    between atoms: C_3  and  C_4 
REMARK    4  A    between atoms: C_7  and  O_6 
REMARK    5  A    between atoms: C_9  and  C_10 
REMARK    6  A    between atoms: N_15  and  C_14 
REMARK    7  A    between atoms: N_20  and  C_19 
REMARK       I    between atoms: C_22  and  N_20 
ROOT
ATOM      1  C   LIG d   1      -2.645  76.988 117.331  0.00  0.00     0.161 C 
ATOM      2  C   LIG d   1      -1.512  77.635 117.853  0.00  0.00     0.016 C 
ATOM      3  C   LIG d   1      -0.245  77.017 117.965  0.00  0.00     0.038 C 
ATOM      4  C   LIG d   1       0.013  75.751 117.418  0.00  0.00     0.028 C 
ATOM      5  C   LIG d   1      -1.225  74.864 117.334  0.00  0.00    -0.047 C 
ATOM      6  C   LIG d   1      -2.356  75.646 116.627  0.00  0.00     0.091 C 
ENDROOT
BRANCH   1   7
ATOM      7  O   LIG d   1      -3.349  77.878 116.443  0.00  0.00    -0.368 OA
BRANCH   7   8
ATOM      8  C   LIG d   1      -2.525  78.705 115.583  0.00  0.00     0.119 C 
BRANCH   8   9
ATOM      9  C   LIG d   1      -3.104  80.132 115.621  0.00  0.00     0.028 C 
ATOM     10  C   LIG d   1      -3.962  80.385 116.872  0.00  0.00     0.006 C 
ENDBRANCH   8   9
BRANCH   8  11
ATOM     11  C   LIG d   1      -2.629  78.263 114.120  0.00  0.00     0.028 C 
ATOM     12  C   LIG d   1      -1.434  78.728 113.272  0.00  0.00     0.006 C 
ENDBRANCH   8  11
ENDBRANCH   7   8
ENDBRANCH   1   7
BRANCH   6  13
ATOM     13  N   LIG d   1      -3.629  74.881 116.578  0.00  0.00    -0.311 N 
ATOM     14  C   LIG d   1      -4.289  74.628 115.450  0.00  0.00     0.210 C 
ATOM     15  C   LIG d   1      -5.592  73.840 115.625  0.00  0.00     0.109 C 
ATOM     16  O   LIG d   1      -3.904  74.954 114.317  0.00  0.00    -0.276 OA
ATOM     17  H   LIG d   1      -3.997  74.552 117.449  0.00  0.00     0.149 HD
ENDBRANCH   6  13
BRANCH   5  18
ATOM     18  N   LIG d   1      -0.842  73.631 116.620  0.00  0.00     0.381 N 
ATOM     19  H   LIG d   1      -1.462  73.478 115.850  0.00  0.00    -0.090 HD
ATOM     20  H   LIG d   1      -0.923  72.852 117.250  0.00  0.00    -0.090 HD
ATOM     21  H   LIG d   1       0.096  73.704 116.291  0.00  0.00    -0.090 HD
ENDBRANCH   5  18
BRANCH   3  22
ATOM     22  C   LIG d   1       0.770  77.651 118.665  0.00  0.00     0.382 C 
ATOM     23  O   LIG d   1       1.773  76.999 119.042  0.00  0.00    -0.241 OA
ATOM     24  O   LIG d   1       0.674  78.856 118.963  0.00  0.00    -0.241 OA
ENDBRANCH   3  22
TORSDOF 7
ENDMDL
MODEL 6
REMARK VINA RESULT:      -4.8     14.672     17.430
REMARK  7 active torsions:
REMARK  status: ('A' for Active; 'I' for Inactive)
REMARK    1  A    between atoms: C_2  and  C_3 
REMARK    2  A    between atoms: C_3  and  O_6 
REMARK    3  A    between atoms: C_3  and  C_4 
REMARK    4  A    between atoms: C_7  and  O_6 
REMARK    5  A    between atoms: C_9  and  C_10 
REMARK    6  A    between atoms: N_15  and  C_14 
REMARK    7  A    between atoms: N_20  and  C_19 
REMARK       I    between atoms: C_22  and  N_20 
ROOT
ATOM      1  C   LIG d   1      -6.223  93.415 117.959  0.00  0.00     0.161 C 
ATOM      2  C   LIG d   1      -6.825  94.615 118.373  0.00  0.00     0.016 C 
ATOM      3  C   LIG d   1      -7.867  95.249 117.659  0.00  0.00     0.038 C 
ATOM      4  C   LIG d   1      -8.486  94.643 116.556  0.00  0.00     0.028 C 
ATOM      5  C   LIG d   1      -7.575  93.675 115.807  0.00  0.00    -0.047 C 
ATOM      6  C   LIG d   1      -6.959  92.682 116.818  0.00  0.00     0.091 C 
ENDROOT
BRANCH   1   7
ATOM      7  O   LIG d   1      -6.053  92.538 119.090  0.00  0.00    -0.368 OA
BRANCH   7   8
ATOM      8  C   LIG d   1      -4.687  92.304 119.516  0.00  0.00     0.119 C 
BRANCH   8   9
ATOM      9  C   LIG d   1      -3.780  93.244 118.698  0.00  0.00     0.028 C 
ATOM     10  C   LIG d   1      -3.178  94.370 119.555  0.00  0.00     0.006 C 
ENDBRANCH   8   9
BRANCH   8  11
ATOM     11  C   LIG d   1      -4.228  90.887 119.162  0.00  0.00     0.028 C 
ATOM     12  C   LIG d   1      -2.985  90.872 118.258  0.00  0.00     0.006 C 
ENDBRANCH   8  11
ENDBRANCH   7   8
ENDBRANCH   1   7
BRANCH   6  13
ATOM     13  N   LIG d   1      -5.990  91.753 116.181  0.00  0.00    -0.311 N 
ATOM     14  C   LIG d   1      -6.194  90.441 116.073  0.00  0.00     0.210 C 
ATOM     15  C   LIG d   1      -5.059  89.663 115.400  0.00  0.00     0.109 C 
ATOM     16  O   LIG d   1      -7.222  89.853 116.441  0.00  0.00    -0.276 OA
ATOM     17  H   LIG d   1      -5.142  92.151 115.827  0.00  0.00     0.149 HD
ENDBRANCH   6  13
BRANCH   5  18
ATOM     18  N   LIG d   1      -8.386  93.014 114.768  0.00  0.00     0.381 N 
ATOM     19  H   LIG d   1      -9.318  92.872 115.104  0.00  0.00    -0.090 HD
ATOM     20  H   LIG d   1      -7.984  92.116 114.564  0.00  0.00    -0.090 HD
ATOM     21  H   LIG d   1      -8.405  93.572 113.943  0.00  0.00    -0.090 HD
ENDBRANCH   5  18
BRANCH   3  22
ATOM     22  C   LIG d   1      -8.275  96.523 118.025  0.00  0.00     0.382 C 
ATOM     23  O   LIG d   1      -8.781  96.718 119.157  0.00  0.00    -0.241 OA
ATOM     24  O   LIG d   1      -8.184  97.470 117.222  0.00  0.00    -0.241 OA
ENDBRANCH   3  22
TORSDOF 7
ENDMDL
MODEL 7
REMARK VINA RESULT:      -4.8     12.211     14.582
REMARK  7 active torsions:
REMARK  status: ('A' for Active; 'I' for Inactive)
REMARK    1  A    between atoms: C_2  and  C_3 
REMARK    2  A    between atoms: C_3  and  O_6 
REMARK    3  A    between atoms: C_3  and  C_4 
REMARK    4  A    between atoms: C_7  and  O_6 
REMARK    5  A    between atoms: C_9  and  C_10 
REMARK    6  A    between atoms: N_15  and  C_14 
REMARK    7  A    between atoms: N_20  and  C_19 
REMARK       I    between atoms: C_22  and  N_20 
ROOT
ATOM      1  C   LIG d   1       3.962  89.009 116.997  0.00  0.00     0.161 C 
ATOM      2  C   LIG d   1       2.678  89.552 116.820  0.00  0.00     0.016 C 
ATOM      3  C   LIG d   1       2.324  90.860 117.224  0.00  0.00     0.038 C 
ATOM      4  C   LIG d   1       3.277  91.772 117.700  0.00  0.00     0.028 C 
ATOM      5  C   LIG d   1       4.476  91.105 118.365  0.00  0.00    -0.047 C 
ATOM      6  C   LIG d   1       5.043  90.028 117.413  0.00  0.00     0.091 C 
ENDROOT
BRANCH   1   7
ATOM      7  O   LIG d   1       4.365  88.308 115.804  0.00  0.00    -0.368 OA
BRANCH   7   8
ATOM      8  C   LIG d   1       3.446  88.372 114.686  0.00  0.00     0.119 C 
BRANCH   8   9
ATOM      9  C   LIG d   1       3.056  86.925 114.325  0.00  0.00     0.028 C 
ATOM     10  C   LIG d   1       2.995  86.696 112.805  0.00  0.00     0.006 C 
ENDBRANCH   8   9
BRANCH   8  11
ATOM     11  C   LIG d   1       4.128  88.933 113.435  0.00  0.00     0.028 C 
ATOM     12  C   LIG d   1       5.637  89.151 113.626  0.00  0.00     0.006 C 
ENDBRANCH   8  11
ENDBRANCH   7   8
ENDBRANCH   1   7
BRANCH   6  13
ATOM     13  N   LIG d   1       6.167  89.268 118.021  0.00  0.00    -0.311 N 
ATOM     14  C   LIG d   1       7.443  89.632 117.909  0.00  0.00     0.210 C 
ATOM     15  C   LIG d   1       8.444  88.697 118.596  0.00  0.00     0.109 C 
ATOM     16  O   LIG d   1       7.839  90.657 117.334  0.00  0.00    -0.276 OA
ATOM     17  H   LIG d   1       5.933  88.440 118.533  0.00  0.00     0.149 HD
ENDBRANCH   6  13
BRANCH   5  18
ATOM     18  N   LIG d   1       5.452  92.162 118.690  0.00  0.00     0.381 N 
ATOM     19  H   LIG d   1       5.307  92.952 118.092  0.00  0.00    -0.090 HD
ATOM     20  H   LIG d   1       6.379  91.810 118.528  0.00  0.00    -0.090 HD
ATOM     21  H   LIG d   1       5.354  92.436 119.643  0.00  0.00    -0.090 HD
ENDBRANCH   5  18
BRANCH   3  22
ATOM     22  C   LIG d   1       0.995  91.253 117.191  0.00  0.00     0.382 C 
ATOM     23  O   LIG d   1       0.093  90.399 117.013  0.00  0.00    -0.241 OA
ATOM     24  O   LIG d   1       0.689  92.456 117.294  0.00  0.00    -0.241 OA
ENDBRANCH   3  22
TORSDOF 7
ENDMDL
MODEL 8
REMARK VINA RESULT:      -4.7     10.183     12.928
REMARK  7 active torsions:
REMARK  status: ('A' for Active; 'I' for Inactive)
REMARK    1  A    between atoms: C_2  and  C_3 
REMARK    2  A    between atoms: C_3  and  O_6 
REMARK    3  A    between atoms: C_3  and  C_4 
REMARK    4  A    between atoms: C_7  and  O_6 
REMARK    5  A    between atoms: C_9  and  C_10 
REMARK    6  A    between atoms: N_15  and  C_14 
REMARK    7  A    between atoms: N_20  and  C_19 
REMARK       I    between atoms: C_22  and  N_20 
ROOT
ATOM      1  C   LIG d   1       2.559  88.057 116.133  0.00  0.00     0.161 C 
ATOM      2  C   LIG d   1       2.832  89.422 116.324  0.00  0.00     0.016 C 
ATOM      3  C   LIG d   1       3.908  89.898 117.109  0.00  0.00     0.038 C 
ATOM      4  C   LIG d   1       4.880  89.034 117.636  0.00  0.00     0.028 C 
ATOM      5  C   LIG d   1       4.362  87.623 117.891  0.00  0.00    -0.047 C 
ATOM      6  C   LIG d   1       3.673  87.102 116.609  0.00  0.00     0.091 C 
ENDROOT
BRANCH   1   7
ATOM      7  O   LIG d   1       2.246  87.811 114.748  0.00  0.00    -0.368 OA
BRANCH   7   8
ATOM      8  C   LIG d   1       3.348  87.380 113.912  0.00  0.00     0.119 C 
BRANCH   8   9
ATOM      9  C   LIG d   1       3.888  88.625 113.181  0.00  0.00     0.028 C 
ATOM     10  C   LIG d   1       5.336  88.957 113.579  0.00  0.00     0.006 C 
ENDBRANCH   8   9
BRANCH   8  11
ATOM     11  C   LIG d   1       2.872  86.435 112.805  0.00  0.00     0.028 C 
ATOM     12  C   LIG d   1       3.428  85.010 112.958  0.00  0.00     0.006 C 
ENDBRANCH   8  11
ENDBRANCH   7   8
ENDBRANCH   1   7
BRANCH   6  13
ATOM     13  N   LIG d   1       3.064  85.760 116.798  0.00  0.00    -0.311 N 
ATOM     14  C   LIG d   1       3.703  84.621 116.537  0.00  0.00     0.210 C 
ATOM     15  C   LIG d   1       2.885  83.349 116.782  0.00  0.00     0.109 C 
ATOM     16  O   LIG d   1       4.881  84.542 116.156  0.00  0.00    -0.276 OA
ATOM     17  H   LIG d   1       2.121  85.730 117.134  0.00  0.00     0.149 HD
ENDBRANCH   6  13
BRANCH   5  18
ATOM     18  N   LIG d   1       5.509  86.796 118.308  0.00  0.00     0.381 N 
ATOM     19  H   LIG d   1       5.623  86.850 119.301  0.00  0.00    -0.090 HD
ATOM     20  H   LIG d   1       6.342  87.153 117.875  0.00  0.00    -0.090 HD
ATOM     21  H   LIG d   1       5.364  85.849 118.035  0.00  0.00    -0.090 HD
ENDBRANCH   5  18
BRANCH   3  22
ATOM     22  C   LIG d   1       3.997  91.249 117.406  0.00  0.00     0.382 C 
ATOM     23  O   LIG d   1       3.159  92.052 116.929  0.00  0.00    -0.241 OA
ATOM     24  O   LIG d   1       4.930  91.682 118.108  0.00  0.00    -0.241 OA
ENDBRANCH   3  22
TORSDOF 7
ENDMDL
MODEL 9
REMARK VINA RESULT:      -4.6     16.244     18.869
REMARK  7 active torsions:
REMARK  status: ('A' for Active; 'I' for Inactive)
REMARK    1  A    between atoms: C_2  and  C_3 
REMARK    2  A    between atoms: C_3  and  O_6 
REMARK    3  A    between atoms: C_3  and  C_4 
REMARK    4  A    between atoms: C_7  and  O_6 
REMARK    5  A    between atoms: C_9  and  C_10 
REMARK    6  A    between atoms: N_15  and  C_14 
REMARK    7  A    between atoms: N_20  and  C_19 
REMARK       I    between atoms: C_22  and  N_20 
ROOT
ATOM      1  C   LIG d   1     -16.186  64.635 114.791  0.00  0.00     0.161 C 
ATOM      2  C   LIG d   1     -17.290  64.881 113.959  0.00  0.00     0.016 C 
ATOM      3  C   LIG d   1     -18.618  64.979 114.435  0.00  0.00     0.038 C 
ATOM      4  C   LIG d   1     -18.915  64.988 115.806  0.00  0.00     0.028 C 
ATOM      5  C   LIG d   1     -17.891  64.238 116.652  0.00  0.00    -0.047 C 
ATOM      6  C   LIG d   1     -16.477  64.753 116.302  0.00  0.00     0.091 C 
ENDROOT
BRANCH   1   7
ATOM      7  O   LIG d   1     -15.094  65.500 114.423  0.00  0.00    -0.368 OA
BRANCH   7   8
ATOM      8  C   LIG d   1     -15.415  66.906 114.276  0.00  0.00     0.119 C 
BRANCH   8   9
ATOM      9  C   LIG d   1     -14.885  67.361 112.903  0.00  0.00     0.028 C 
ATOM     10  C   LIG d   1     -14.258  68.764 112.952  0.00  0.00     0.006 C 
ENDBRANCH   8   9
BRANCH   8  11
ATOM     11  C   LIG d   1     -14.664  67.759 115.303  0.00  0.00     0.028 C 
ATOM     12  C   LIG d   1     -15.579  68.291 116.418  0.00  0.00     0.006 C 
ENDBRANCH   8  11
ENDBRANCH   7   8
ENDBRANCH   1   7
BRANCH   6  13
ATOM     13  N   LIG d   1     -15.409  64.013 117.025  0.00  0.00    -0.311 N 
ATOM     14  C   LIG d   1     -14.879  64.427 118.174  0.00  0.00     0.210 C 
ATOM     15  C   LIG d   1     -13.778  63.526 118.740  0.00  0.00     0.109 C 
ATOM     16  O   LIG d   1     -15.240  65.438 118.796  0.00  0.00    -0.276 OA
ATOM     17  H   LIG d   1     -15.079  63.165 116.607  0.00  0.00     0.149 HD
ENDBRANCH   6  13
BRANCH   5  18
ATOM     18  N   LIG d   1     -18.248  64.444 118.069  0.00  0.00     0.381 N 
ATOM     19  H   LIG d   1     -17.442  64.302 118.645  0.00  0.00    -0.090 HD
ATOM     20  H   LIG d   1     -18.945  63.769 118.330  0.00  0.00    -0.090 HD
ATOM     21  H   LIG d   1     -18.602  65.366 118.201  0.00  0.00    -0.090 HD
ENDBRANCH   5  18
BRANCH   3  22
ATOM     22  C   LIG d   1     -19.670  65.029 113.533  0.00  0.00     0.382 C 
ATOM     23  O   LIG d   1     -19.919  64.038 112.805  0.00  0.00    -0.241 OA
ATOM     24  O   LIG d   1     -20.344  66.069 113.406  0.00  0.00    -0.241 OA
ENDBRANCH   3  22
TORSDOF 7
ENDMDL
