MODEL 1
REMARK VINA RESULT:      -5.2      0.000      0.000
REMARK  7 active torsions:
REMARK  status: ('A' for Active; 'I' for Inactive)
REMARK    1  A    between atoms: C_2  and  C_3 
REMARK    2  A    between atoms: C_3  and  O_6 
REMARK    3  A    between atoms: C_3  and  C_4 
REMARK    4  A    between atoms: C_7  and  O_6 
REMARK    5  A    between atoms: C_9  and  C_10 
REMARK    6  A    between atoms: N_15  and  C_14 
REMARK    7  A    between atoms: N_20  and  C_19 
REMARK       I    between atoms: C_22  and  N_20 
ROOT
ATOM      1  C   LIG d   1      -2.466  74.685 116.074  0.00  0.00     0.161 C 
ATOM      2  C   LIG d   1      -1.983  73.814 117.065  0.00  0.00     0.016 C 
ATOM      3  C   LIG d   1      -0.743  73.993 117.720  0.00  0.00     0.038 C 
ATOM      4  C   LIG d   1       0.034  75.146 117.535  0.00  0.00     0.028 C 
ATOM      5  C   LIG d   1      -0.170  75.802 116.174  0.00  0.00    -0.047 C 
ATOM      6  C   LIG d   1      -1.684  76.008 115.939  0.00  0.00     0.091 C 
ENDROOT
BRANCH   1   7
ATOM      7  O   LIG d   1      -3.865  74.951 116.297  0.00  0.00    -0.368 OA
BRANCH   7   8
ATOM      8  C   LIG d   1      -4.784  74.372 115.338  0.00  0.00     0.119 C 
BRANCH   8   9
ATOM      9  C   LIG d   1      -5.827  75.451 114.986  0.00  0.00     0.028 C 
ATOM     10  C   LIG d   1      -6.001  75.624 113.468  0.00  0.00     0.006 C 
ENDBRANCH   8   9
BRANCH   8  11
ATOM     11  C   LIG d   1      -5.584  73.222 115.958  0.00  0.00     0.028 C 
ATOM     12  C   LIG d   1      -6.854  73.701 116.679  0.00  0.00     0.006 C 
ENDBRANCH   8  11
ENDBRANCH   7   8
ENDBRANCH   1   7
BRANCH   6  13
ATOM     13  N   LIG d   1      -1.977  76.569 114.594  0.00  0.00    -0.311 N 
ATOM     14  C   LIG d   1      -2.832  77.569 114.386  0.00  0.00     0.210 C 
ATOM     15  C   LIG d   1      -3.003  77.980 112.921  0.00  0.00     0.109 C 
ATOM     16  O   LIG d   1      -3.441  78.175 115.281  0.00  0.00    -0.276 OA
ATOM     17  H   LIG d   1      -1.502  76.156 113.814  0.00  0.00     0.149 HD
ENDBRANCH   6  13
BRANCH   5  18
ATOM     18  N   LIG d   1       0.593  77.065 116.169  0.00  0.00     0.381 N 
ATOM     19  H   LIG d   1       0.280  77.653 116.915  0.00  0.00    -0.090 HD
ATOM     20  H   LIG d   1       0.427  77.541 115.300  0.00  0.00    -0.090 HD
ATOM     21  H   LIG d   1       1.566  76.875 116.272  0.00  0.00    -0.090 HD
ENDBRANCH   5  18
BRANCH   3  22
ATOM     22  C   LIG d   1      -0.250  72.991 118.543  0.00  0.00     0.382 C 
ATOM     23  O   LIG d   1       0.625  73.259 119.401  0.00  0.00    -0.241 OA
ATOM     24  O   LIG d   1      -0.637  71.815 118.407  0.00  0.00    -0.241 OA
ENDBRANCH   3  22
TORSDOF 7
ENDMDL
MODEL 2
REMARK VINA RESULT:      -5.0      2.570      4.573
REMARK  7 active torsions:
REMARK  status: ('A' for Active; 'I' for Inactive)
REMARK    1  A    between atoms: C_2  and  C_3 
REMARK    2  A    between atoms: C_3  and  O_6 
REMARK    3  A    between atoms: C_3  and  C_4 
REMARK    4  A    between atoms: C_7  and  O_6 
REMARK    5  A    between atoms: C_9  and  C_10 
REMARK    6  A    between atoms: N_15  and  C_14 
REMARK    7  A    between atoms: N_20  and  C_19 
REMARK       I    between atoms: C_22  and  N_20 
ROOT
ATOM      1  C   LIG d   1      -3.306  75.826 117.055  0.00  0.00     0.161 C 
ATOM      2  C   LIG d   1      -4.155  76.872 117.453  0.00  0.00     0.016 C 
ATOM      3  C   LIG d   1      -4.041  78.195 116.967  0.00  0.00     0.038 C 
ATOM      4  C   LIG d   1      -3.161  78.529 115.927  0.00  0.00     0.028 C 
ATOM      5  C   LIG d   1      -1.940  77.618 115.851  0.00  0.00    -0.047 C 
ATOM      6  C   LIG d   1      -2.412  76.147 115.839  0.00  0.00     0.091 C 
ENDROOT
BRANCH   1   7
ATOM      7  O   LIG d   1      -4.081  74.636 116.807  0.00  0.00    -0.368 OA
BRANCH   7   8
ATOM      8  C   LIG d   1      -5.436  74.844 116.340  0.00  0.00     0.119 C 
BRANCH   8   9
ATOM      9  C   LIG d   1      -6.353  73.905 117.148  0.00  0.00     0.028 C 
ATOM     10  C   LIG d   1      -6.354  72.469 116.598  0.00  0.00     0.006 C 
ENDBRANCH   8   9
BRANCH   8  11
ATOM     11  C   LIG d   1      -5.596  74.409 114.880  0.00  0.00     0.028 C 
ATOM     12  C   LIG d   1      -5.749  75.597 113.918  0.00  0.00     0.006 C 
ENDBRANCH   8  11
ENDBRANCH   7   8
ENDBRANCH   1   7
BRANCH   6  13
ATOM     13  N   LIG d   1      -1.276  75.187 115.851  0.00  0.00    -0.311 N 
ATOM     14  C   LIG d   1      -0.706  74.713 114.744  0.00  0.00     0.210 C 
ATOM     15  C   LIG d   1       0.436  73.719 114.981  0.00  0.00     0.109 C 
ATOM     16  O   LIG d   1      -1.017  75.045 113.590  0.00  0.00    -0.276 OA
ATOM     17  H   LIG d   1      -0.941  74.889 116.745  0.00  0.00     0.149 HD
ENDBRANCH   6  13
BRANCH   5  18
ATOM     18  N   LIG d   1      -1.180  77.992 114.643  0.00  0.00     0.381 N 
ATOM     19  H   LIG d   1      -1.719  77.785 113.826  0.00  0.00    -0.090 HD
ATOM     20  H   LIG d   1      -0.335  77.448 114.609  0.00  0.00    -0.090 HD
ATOM     21  H   LIG d   1      -0.958  78.963 114.666  0.00  0.00    -0.090 HD
ENDBRANCH   5  18
BRANCH   3  22
ATOM     22  C   LIG d   1      -4.787  79.208 117.550  0.00  0.00     0.382 C 
ATOM     23  O   LIG d   1      -5.025  79.182 118.781  0.00  0.00    -0.241 OA
ATOM     24  O   LIG d   1      -5.262  80.124 116.852  0.00  0.00    -0.241 OA
ENDBRANCH   3  22
TORSDOF 7
ENDMDL
MODEL 3
REMARK VINA RESULT:      -5.0      1.678      4.760
REMARK  7 active torsions:
REMARK  status: ('A' for Active; 'I' for Inactive)
REMARK    1  A    between atoms: C_2  and  C_3 
REMARK    2  A    between atoms: C_3  and  O_6 
REMARK    3  A    between atoms: C_3  and  C_4 
REMARK    4  A    between atoms: C_7  and  O_6 
REMARK    5  A    between atoms: C_9  and  C_10 
REMARK    6  A    between atoms: N_15  and  C_14 
REMARK    7  A    between atoms: N_20  and  C_19 
REMARK       I    between atoms: C_22  and  N_20 
ROOT
ATOM      1  C   LIG d   1      -3.007  75.581 116.735  0.00  0.00     0.161 C 
ATOM      2  C   LIG d   1      -3.483  76.314 115.635  0.00  0.00     0.016 C 
ATOM      3  C   LIG d   1      -2.698  76.606 114.496  0.00  0.00     0.038 C 
ATOM      4  C   LIG d   1      -1.422  76.051 114.313  0.00  0.00     0.028 C 
ATOM      5  C   LIG d   1      -0.712  75.722 115.621  0.00  0.00    -0.047 C 
ATOM      6  C   LIG d   1      -1.655  74.874 116.505  0.00  0.00     0.091 C 
ENDROOT
BRANCH   1   7
ATOM      7  O   LIG d   1      -4.005  74.630 117.157  0.00  0.00    -0.368 OA
BRANCH   7   8
ATOM      8  C   LIG d   1      -5.259  74.658 116.432  0.00  0.00     0.119 C 
BRANCH   8   9
ATOM      9  C   LIG d   1      -6.367  75.021 117.440  0.00  0.00     0.028 C 
ATOM     10  C   LIG d   1      -7.212  76.219 116.977  0.00  0.00     0.006 C 
ENDBRANCH   8   9
BRANCH   8  11
ATOM     11  C   LIG d   1      -5.630  73.269 115.905  0.00  0.00     0.028 C 
ATOM     12  C   LIG d   1      -6.433  72.441 116.919  0.00  0.00     0.006 C 
ENDBRANCH   8  11
ENDBRANCH   7   8
ENDBRANCH   1   7
BRANCH   6  13
ATOM     13  N   LIG d   1      -1.069  74.578 117.839  0.00  0.00    -0.311 N 
ATOM     14  C   LIG d   1      -0.378  73.472 118.107  0.00  0.00     0.210 C 
ATOM     15  C   LIG d   1       0.121  73.355 119.551  0.00  0.00     0.109 C 
ATOM     16  O   LIG d   1      -0.102  72.592 117.278  0.00  0.00    -0.276 OA
ATOM     17  H   LIG d   1      -1.218  75.254 118.562  0.00  0.00     0.149 HD
ENDBRANCH   6  13
BRANCH   5  18
ATOM     18  N   LIG d   1       0.545  75.026 115.284  0.00  0.00     0.381 N 
ATOM     19  H   LIG d   1       1.326  75.570 115.591  0.00  0.00    -0.090 HD
ATOM     20  H   LIG d   1       0.603  74.926 114.285  0.00  0.00    -0.090 HD
ATOM     21  H   LIG d   1       0.564  74.128 115.716  0.00  0.00    -0.090 HD
ENDBRANCH   5  18
BRANCH   3  22
ATOM     22  C   LIG d   1      -3.173  77.493 113.543  0.00  0.00     0.382 C 
ATOM     23  O   LIG d   1      -2.672  78.640 113.449  0.00  0.00    -0.241 OA
ATOM     24  O   LIG d   1      -4.126  77.178 112.805  0.00  0.00    -0.241 OA
ENDBRANCH   3  22
TORSDOF 7
ENDMDL
MODEL 4
REMARK VINA RESULT:      -4.9     15.872     18.439
REMARK  7 active torsions:
REMARK  status: ('A' for Active; 'I' for Inactive)
REMARK    1  A    between atoms: C_2  and  C_3 
REMARK    2  A    between atoms: C_3  and  O_6 
REMARK    3  A    between atoms: C_3  and  C_4 
REMARK    4  A    between atoms: C_7  and  O_6 
REMARK    5  A    between atoms: C_9  and  C_10 
REMARK    6  A    between atoms: N_15  and  C_14 
REMARK    7  A    between atoms: N_20  and  C_19 
REMARK       I    between atoms: C_22  and  N_20 
ROOT
ATOM      1  C   LIG d   1      -6.032  93.098 116.636  0.00  0.00     0.161 C 
ATOM      2  C   LIG d   1      -7.025  92.199 116.213  0.00  0.00     0.016 C 
ATOM      3  C   LIG d   1      -6.908  90.795 116.338  0.00  0.00     0.038 C 
ATOM      4  C   LIG d   1      -5.848  90.199 117.038  0.00  0.00     0.028 C 
ATOM      5  C   LIG d   1      -4.575  91.038 117.038  0.00  0.00    -0.047 C 
ATOM      6  C   LIG d   1      -4.919  92.472 117.501  0.00  0.00     0.091 C 
ENDROOT
BRANCH   1   7
ATOM      7  O   LIG d   1      -6.640  94.207 117.326  0.00  0.00    -0.368 OA
BRANCH   7   8
ATOM      8  C   LIG d   1      -7.008  93.973 118.708  0.00  0.00     0.119 C 
BRANCH   8   9
ATOM      9  C   LIG d   1      -8.498  93.582 118.730  0.00  0.00     0.028 C 
ATOM     10  C   LIG d   1      -9.352  94.567 119.546  0.00  0.00     0.006 C 
ENDBRANCH   8   9
BRANCH   8  11
ATOM     11  C   LIG d   1      -6.914  95.259 119.535  0.00  0.00     0.028 C 
ATOM     12  C   LIG d   1      -6.554  96.489 118.686  0.00  0.00     0.006 C 
ENDBRANCH   8  11
ENDBRANCH   7   8
ENDBRANCH   1   7
BRANCH   6  13
ATOM     13  N   LIG d   1      -3.744  93.382 117.450  0.00  0.00    -0.311 N 
ATOM     14  C   LIG d   1      -2.905  93.553 118.470  0.00  0.00     0.210 C 
ATOM     15  C   LIG d   1      -1.772  94.552 118.213  0.00  0.00     0.109 C 
ATOM     16  O   LIG d   1      -2.973  92.950 119.551  0.00  0.00    -0.276 OA
ATOM     17  H   LIG d   1      -3.596  93.887 116.599  0.00  0.00     0.149 HD
ENDBRANCH   6  13
BRANCH   5  18
ATOM     18  N   LIG d   1      -3.598  90.366 117.915  0.00  0.00     0.381 N 
ATOM     19  H   LIG d   1      -2.669  90.557 117.597  0.00  0.00    -0.090 HD
ATOM     20  H   LIG d   1      -3.749  89.373 117.869  0.00  0.00    -0.090 HD
ATOM     21  H   LIG d   1      -3.708  90.682 118.853  0.00  0.00    -0.090 HD
ENDBRANCH   5  18
BRANCH   3  22
ATOM     22  C   LIG d   1      -7.839  89.970 115.725  0.00  0.00     0.382 C 
ATOM     23  O   LIG d   1      -8.516  89.169 116.413  0.00  0.00    -0.241 OA
ATOM     24  O   LIG d   1      -7.979  89.986 114.487  0.00  0.00    -0.241 OA
ENDBRANCH   3  22
TORSDOF 7
ENDMDL
MODEL 5
REMARK VINA RESULT:      -4.8      2.574      3.118
REMARK  7 active torsions:
REMARK  status: ('A' for Active; 'I' for Inactive)
REMARK    1  A    between atoms: C_2  and  C_3 
REMARK    2  A    between atoms: C_3  and  O_6 
REMARK    3  A    between atoms: C_3  and  C_4 
REMARK    4  A    between atoms: C_7  and  O_6 
REMARK    5  A    between atoms: C_9  and  C_10 
REMARK    6  A    between atoms: N_15  and  C_14 
REMARK    7  A    between atoms: N_20  and  C_19 
REMARK       I    between atoms: C_22  and  N_20 
ROOT
ATOM      1  C   LIG d   1      -3.411  75.273 115.763  0.00  0.00     0.161 C 
ATOM      2  C   LIG d   1      -2.374  74.512 115.198  0.00  0.00     0.016 C 
ATOM      3  C   LIG d   1      -1.031  74.950 115.140  0.00  0.00     0.038 C 
ATOM      4  C   LIG d   1      -0.605  76.122 115.782  0.00  0.00     0.028 C 
ATOM      5  C   LIG d   1      -1.705  77.168 115.927  0.00  0.00    -0.047 C 
ATOM      6  C   LIG d   1      -2.946  76.505 116.567  0.00  0.00     0.091 C 
ENDROOT
BRANCH   1   7
ATOM      7  O   LIG d   1      -4.248  74.429 116.579  0.00  0.00    -0.368 OA
BRANCH   7   8
ATOM      8  C   LIG d   1      -5.396  73.840 115.919  0.00  0.00     0.119 C 
BRANCH   8   9
ATOM      9  C   LIG d   1      -6.135  74.972 115.179  0.00  0.00     0.028 C 
ATOM     10  C   LIG d   1      -7.358  75.482 115.960  0.00  0.00     0.006 C 
ENDBRANCH   8   9
BRANCH   8  11
ATOM     11  C   LIG d   1      -6.403  73.294 116.935  0.00  0.00     0.028 C 
ATOM     12  C   LIG d   1      -6.767  71.822 116.681  0.00  0.00     0.006 C 
ENDBRANCH   8  11
ENDBRANCH   7   8
ENDBRANCH   1   7
BRANCH   6  13
ATOM     13  N   LIG d   1      -4.099  77.437 116.668  0.00  0.00    -0.311 N 
ATOM     14  C   LIG d   1      -4.801  77.617 117.785  0.00  0.00     0.210 C 
ATOM     15  C   LIG d   1      -5.962  78.610 117.667  0.00  0.00     0.109 C 
ATOM     16  O   LIG d   1      -4.552  77.073 118.872  0.00  0.00    -0.276 OA
ATOM     17  H   LIG d   1      -4.350  77.943 115.841  0.00  0.00     0.149 HD
ENDBRANCH   6  13
BRANCH   5  18
ATOM     18  N   LIG d   1      -1.162  78.278 116.733  0.00  0.00     0.381 N 
ATOM     19  H   LIG d   1      -0.642  78.899 116.146  0.00  0.00    -0.090 HD
ATOM     20  H   LIG d   1      -0.539  77.902 117.426  0.00  0.00    -0.090 HD
ATOM     21  H   LIG d   1      -1.905  78.772 117.176  0.00  0.00    -0.090 HD
ENDBRANCH   5  18
BRANCH   3  22
ATOM     22  C   LIG d   1      -0.105  74.232 114.398  0.00  0.00     0.382 C 
ATOM     23  O   LIG d   1      -0.495  73.363 113.581  0.00  0.00    -0.241 OA
ATOM     24  O   LIG d   1       1.116  74.410 114.568  0.00  0.00    -0.241 OA
ENDBRANCH   3  22
TORSDOF 7
ENDMDL
MODEL 6
REMARK VINA RESULT:      -4.8      2.621      5.857
REMARK  7 active torsions:
REMARK  status: ('A' for Active; 'I' for Inactive)
REMARK    1  A    between atoms: C_2  and  C_3 
REMARK    2  A    between atoms: C_3  and  O_6 
REMARK    3  A    between atoms: C_3  and  C_4 
REMARK    4  A    between atoms: C_7  and  O_6 
REMARK    5  A    between atoms: C_9  and  C_10 
REMARK    6  A    between atoms: N_15  and  C_14 
REMARK    7  A    between atoms: N_20  and  C_19 
REMARK       I    between atoms: C_22  and  N_20 
ROOT
ATOM      1  C   LIG d   1      -3.271  74.486 115.664  0.00  0.00     0.161 C 
ATOM      2  C   LIG d   1      -2.726  75.778 115.575  0.00  0.00     0.016 C 
ATOM      3  C   LIG d   1      -3.483  76.956 115.774  0.00  0.00     0.038 C 
ATOM      4  C   LIG d   1      -4.810  76.917 116.227  0.00  0.00     0.028 C 
ATOM      5  C   LIG d   1      -5.544  75.638 115.842  0.00  0.00    -0.047 C 
ATOM      6  C   LIG d   1      -4.690  74.421 116.266  0.00  0.00     0.091 C 
ENDROOT
BRANCH   1   7
ATOM      7  O   LIG d   1      -2.375  73.628 116.398  0.00  0.00    -0.368 OA
BRANCH   7   8
ATOM      8  C   LIG d   1      -1.095  74.202 116.760  0.00  0.00     0.119 C 
BRANCH   8   9
ATOM      9  C   LIG d   1      -0.003  73.393 116.033  0.00  0.00     0.028 C 
ATOM     10  C   LIG d   1       0.712  74.215 114.948  0.00  0.00     0.006 C 
ENDBRANCH   8   9
BRANCH   8  11
ATOM     11  C   LIG d   1      -0.806  74.024 118.253  0.00  0.00     0.028 C 
ATOM     12  C   LIG d   1      -0.266  72.626 118.593  0.00  0.00     0.006 C 
ENDBRANCH   8  11
ENDBRANCH   7   8
ENDBRANCH   1   7
BRANCH   6  13
ATOM     13  N   LIG d   1      -5.296  73.130 115.850  0.00  0.00    -0.311 N 
ATOM     14  C   LIG d   1      -6.144  72.439 116.611  0.00  0.00     0.210 C 
ATOM     15  C   LIG d   1      -6.636  71.123 116.001  0.00  0.00     0.109 C 
ATOM     16  O   LIG d   1      -6.560  72.808 117.720  0.00  0.00    -0.276 OA
ATOM     17  H   LIG d   1      -5.038  72.773 114.951  0.00  0.00     0.149 HD
ENDBRANCH   6  13
BRANCH   5  18
ATOM     18  N   LIG d   1      -6.867  75.670 116.493  0.00  0.00     0.381 N 
ATOM     19  H   LIG d   1      -6.788  76.082 117.402  0.00  0.00    -0.090 HD
ATOM     20  H   LIG d   1      -7.199  74.728 116.602  0.00  0.00    -0.090 HD
ATOM     21  H   LIG d   1      -7.508  76.193 115.938  0.00  0.00    -0.090 HD
ENDBRANCH   5  18
BRANCH   3  22
ATOM     22  C   LIG d   1      -2.922  78.190 115.481  0.00  0.00     0.382 C 
ATOM     23  O   LIG d   1      -3.624  79.228 115.545  0.00  0.00    -0.241 OA
ATOM     24  O   LIG d   1      -1.736  78.273 115.110  0.00  0.00    -0.241 OA
ENDBRANCH   3  22
TORSDOF 7
ENDMDL
MODEL 7
REMARK VINA RESULT:      -4.7      2.550      5.235
REMARK  7 active torsions:
REMARK  status: ('A' for Active; 'I' for Inactive)
REMARK    1  A    between atoms: C_2  and  C_3 
REMARK    2  A    between atoms: C_3  and  O_6 
REMARK    3  A    between atoms: C_3  and  C_4 
REMARK    4  A    between atoms: C_7  and  O_6 
REMARK    5  A    between atoms: C_9  and  C_10 
REMARK    6  A    between atoms: N_15  and  C_14 
REMARK    7  A    between atoms: N_20  and  C_19 
REMARK       I    between atoms: C_22  and  N_20 
ROOT
ATOM      1  C   LIG d   1      -3.874  74.585 116.121  0.00  0.00     0.161 C 
ATOM      2  C   LIG d   1      -4.524  73.340 116.096  0.00  0.00     0.016 C 
ATOM      3  C   LIG d   1      -5.911  73.182 116.320  0.00  0.00     0.038 C 
ATOM      4  C   LIG d   1      -6.774  74.282 116.435  0.00  0.00     0.028 C 
ATOM      5  C   LIG d   1      -6.089  75.535 116.969  0.00  0.00    -0.047 C 
ATOM      6  C   LIG d   1      -4.817  75.807 116.135  0.00  0.00     0.091 C 
ENDROOT
BRANCH   1   7
ATOM      7  O   LIG d   1      -2.951  74.677 115.018  0.00  0.00    -0.368 OA
BRANCH   7   8
ATOM      8  C   LIG d   1      -1.597  74.232 115.281  0.00  0.00     0.119 C 
BRANCH   8   9
ATOM      9  C   LIG d   1      -1.256  74.622 116.732  0.00  0.00     0.028 C 
ATOM     10  C   LIG d   1      -0.423  73.545 117.448  0.00  0.00     0.006 C 
ENDBRANCH   8   9
BRANCH   8  11
ATOM     11  C   LIG d   1      -0.585  74.984 114.411  0.00  0.00     0.028 C 
ATOM     12  C   LIG d   1       0.379  74.043 113.671  0.00  0.00     0.006 C 
ENDBRANCH   8  11
ENDBRANCH   7   8
ENDBRANCH   1   7
BRANCH   6  13
ATOM     13  N   LIG d   1      -4.041  76.968 116.645  0.00  0.00    -0.311 N 
ATOM     14  C   LIG d   1      -3.473  77.875 115.852  0.00  0.00     0.210 C 
ATOM     15  C   LIG d   1      -2.703  78.980 116.583  0.00  0.00     0.109 C 
ATOM     16  O   LIG d   1      -3.561  77.888 114.615  0.00  0.00    -0.276 OA
ATOM     17  H   LIG d   1      -3.946  77.052 117.638  0.00  0.00     0.149 HD
ENDBRANCH   6  13
BRANCH   5  18
ATOM     18  N   LIG d   1      -7.067  76.638 116.908  0.00  0.00     0.381 N 
ATOM     19  H   LIG d   1      -6.619  77.501 117.144  0.00  0.00    -0.090 HD
ATOM     20  H   LIG d   1      -7.794  76.466 117.579  0.00  0.00    -0.090 HD
ATOM     21  H   LIG d   1      -7.457  76.698 115.993  0.00  0.00    -0.090 HD
ENDBRANCH   5  18
BRANCH   3  22
ATOM     22  C   LIG d   1      -6.443  71.910 116.470  0.00  0.00     0.382 C 
ATOM     23  O   LIG d   1      -6.784  71.503 117.607  0.00  0.00    -0.241 OA
ATOM     24  O   LIG d   1      -6.544  71.148 115.490  0.00  0.00    -0.241 OA
ENDBRANCH   3  22
TORSDOF 7
ENDMDL
MODEL 8
REMARK VINA RESULT:      -4.7     16.056     18.861
REMARK  7 active torsions:
REMARK  status: ('A' for Active; 'I' for Inactive)
REMARK    1  A    between atoms: C_2  and  C_3 
REMARK    2  A    between atoms: C_3  and  O_6 
REMARK    3  A    between atoms: C_3  and  C_4 
REMARK    4  A    between atoms: C_7  and  O_6 
REMARK    5  A    between atoms: C_9  and  C_10 
REMARK    6  A    between atoms: N_15  and  C_14 
REMARK    7  A    between atoms: N_20  and  C_19 
REMARK       I    between atoms: C_22  and  N_20 
ROOT
ATOM      1  C   LIG d   1      -5.078  93.008 118.311  0.00  0.00     0.161 C 
ATOM      2  C   LIG d   1      -5.561  94.141 118.986  0.00  0.00     0.016 C 
ATOM      3  C   LIG d   1      -6.843  94.694 118.760  0.00  0.00     0.038 C 
ATOM      4  C   LIG d   1      -7.792  94.056 117.947  0.00  0.00     0.028 C 
ATOM      5  C   LIG d   1      -7.172  93.188 116.858  0.00  0.00    -0.047 C 
ATOM      6  C   LIG d   1      -6.141  92.234 117.503  0.00  0.00     0.091 C 
ENDROOT
BRANCH   1   7
ATOM      7  O   LIG d   1      -4.419  92.128 119.243  0.00  0.00    -0.368 OA
BRANCH   7   8
ATOM      8  C   LIG d   1      -2.978  92.256 119.331  0.00  0.00     0.119 C 
BRANCH   8   9
ATOM      9  C   LIG d   1      -2.485  92.865 118.004  0.00  0.00     0.028 C 
ATOM     10  C   LIG d   1      -1.386  93.920 118.215  0.00  0.00     0.006 C 
ENDBRANCH   8   9
BRANCH   8  11
ATOM     11  C   LIG d   1      -2.301  90.886 119.425  0.00  0.00     0.028 C 
ATOM     12  C   LIG d   1      -2.607  89.987 118.217  0.00  0.00     0.006 C 
ENDBRANCH   8  11
ENDBRANCH   7   8
ENDBRANCH   1   7
BRANCH   6  13
ATOM     13  N   LIG d   1      -5.426  91.408 116.495  0.00  0.00    -0.311 N 
ATOM     14  C   LIG d   1      -5.861  90.219 116.080  0.00  0.00     0.210 C 
ATOM     15  C   LIG d   1      -4.963  89.525 115.052  0.00  0.00     0.109 C 
ATOM     16  O   LIG d   1      -6.922  89.688 116.443  0.00  0.00    -0.276 OA
ATOM     17  H   LIG d   1      -4.572  91.777 116.125  0.00  0.00     0.149 HD
ENDBRANCH   6  13
BRANCH   5  18
ATOM     18  N   LIG d   1      -8.270  92.477 116.176  0.00  0.00     0.381 N 
ATOM     19  H   LIG d   1      -9.098  93.039 116.190  0.00  0.00    -0.090 HD
ATOM     20  H   LIG d   1      -8.460  91.623 116.669  0.00  0.00    -0.090 HD
ATOM     21  H   LIG d   1      -8.013  92.276 115.235  0.00  0.00    -0.090 HD
ENDBRANCH   5  18
BRANCH   3  22
ATOM     22  C   LIG d   1      -7.171  95.919 119.320  0.00  0.00     0.382 C 
ATOM     23  O   LIG d   1      -8.372  96.201 119.552  0.00  0.00    -0.241 OA
ATOM     24  O   LIG d   1      -6.286  96.764 119.555  0.00  0.00    -0.241 OA
ENDBRANCH   3  22
TORSDOF 7
ENDMDL
MODEL 9
REMARK VINA RESULT:      -4.6      2.530      5.048
REMARK  7 active torsions:
REMARK  status: ('A' for Active; 'I' for Inactive)
REMARK    1  A    between atoms: C_2  and  C_3 
REMARK    2  A    between atoms: C_3  and  O_6 
REMARK    3  A    between atoms: C_3  and  C_4 
REMARK    4  A    between atoms: C_7  and  O_6 
REMARK    5  A    between atoms: C_9  and  C_10 
REMARK    6  A    between atoms: N_15  and  C_14 
REMARK    7  A    between atoms: N_20  and  C_19 
REMARK       I    between atoms: C_22  and  N_20 
ROOT
ATOM      1  C   LIG d   1      -2.790  75.316 115.933  0.00  0.00     0.161 C 
ATOM      2  C   LIG d   1      -3.938  74.508 115.974  0.00  0.00     0.016 C 
ATOM      3  C   LIG d   1      -5.216  74.989 116.342  0.00  0.00     0.038 C 
ATOM      4  C   LIG d   1      -5.463  76.354 116.550  0.00  0.00     0.028 C 
ATOM      5  C   LIG d   1      -4.233  77.129 117.012  0.00  0.00    -0.047 C 
ATOM      6  C   LIG d   1      -3.061  76.831 116.048  0.00  0.00     0.091 C 
ENDROOT
BRANCH   1   7
ATOM      7  O   LIG d   1      -2.035  75.032 114.739  0.00  0.00    -0.368 OA
BRANCH   7   8
ATOM      8  C   LIG d   1      -1.011  74.014 114.860  0.00  0.00     0.119 C 
BRANCH   8   9
ATOM      9  C   LIG d   1      -0.205  74.317 116.138  0.00  0.00     0.028 C 
ATOM     10  C   LIG d   1       0.990  75.247 115.872  0.00  0.00     0.006 C 
ENDBRANCH   8   9
BRANCH   8  11
ATOM     11  C   LIG d   1       0.000  74.102 113.713  0.00  0.00     0.028 C 
ATOM     12  C   LIG d   1       0.213  72.756 113.002  0.00  0.00     0.006 C 
ENDBRANCH   8  11
ENDBRANCH   7   8
ENDBRANCH   1   7
BRANCH   6  13
ATOM     13  N   LIG d   1      -1.796  77.483 116.476  0.00  0.00    -0.311 N 
ATOM     14  C   LIG d   1      -1.386  78.662 116.012  0.00  0.00     0.210 C 
ATOM     15  C   LIG d   1      -0.043  79.145 116.570  0.00  0.00     0.109 C 
ATOM     16  O   LIG d   1      -2.022  79.369 115.216  0.00  0.00    -0.276 OA
ATOM     17  H   LIG d   1      -1.234  76.993 117.144  0.00  0.00     0.149 HD
ENDBRANCH   6  13
BRANCH   5  18
ATOM     18  N   LIG d   1      -4.597  78.557 117.056  0.00  0.00     0.381 N 
ATOM     19  H   LIG d   1      -5.225  78.724 117.817  0.00  0.00    -0.090 HD
ATOM     20  H   LIG d   1      -5.067  78.799 116.201  0.00  0.00    -0.090 HD
ATOM     21  H   LIG d   1      -3.778  79.115 117.162  0.00  0.00    -0.090 HD
ENDBRANCH   5  18
BRANCH   3  22
ATOM     22  C   LIG d   1      -6.255  74.093 116.545  0.00  0.00     0.382 C 
ATOM     23  O   LIG d   1      -7.438  74.508 116.602  0.00  0.00    -0.241 OA
ATOM     24  O   LIG d   1      -6.020  72.882 116.716  0.00  0.00    -0.241 OA
ENDBRANCH   3  22
TORSDOF 7
ENDMDL
