MODEL 1
REMARK VINA RESULT:      -5.7      0.000      0.000
REMARK  7 active torsions:
REMARK  status: ('A' for Active; 'I' for Inactive)
REMARK    1  A    between atoms: C_2  and  C_3 
REMARK    2  A    between atoms: C_3  and  O_6 
REMARK    3  A    between atoms: C_3  and  C_4 
REMARK    4  A    between atoms: C_7  and  O_6 
REMARK    5  A    between atoms: C_9  and  C_10 
REMARK    6  A    between atoms: N_15  and  C_14 
REMARK    7  A    between atoms: N_20  and  C_19 
REMARK       I    between atoms: C_22  and  N_20 
ROOT
ATOM      1  C   LIG d   1      -7.820  76.075 117.679  0.00  0.00     0.161 C 
ATOM      2  C   LIG d   1      -8.842  76.893 118.187  0.00  0.00     0.016 C 
ATOM      3  C   LIG d   1      -8.717  78.294 118.335  0.00  0.00     0.038 C 
ATOM      4  C   LIG d   1      -7.607  78.995 117.840  0.00  0.00     0.028 C 
ATOM      5  C   LIG d   1      -6.337  78.153 117.778  0.00  0.00    -0.047 C 
ATOM      6  C   LIG d   1      -6.644  76.835 117.031  0.00  0.00     0.091 C 
ENDROOT
BRANCH   1   7
ATOM      7  O   LIG d   1      -8.373  75.122 116.750  0.00  0.00    -0.368 OA
BRANCH   7   8
ATOM      8  C   LIG d   1      -8.351  73.735 117.171  0.00  0.00     0.119 C 
BRANCH   8   9
ATOM      9  C   LIG d   1      -7.510  72.953 116.142  0.00  0.00     0.028 C 
ATOM     10  C   LIG d   1      -8.035  71.525 115.920  0.00  0.00     0.006 C 
ENDBRANCH   8   9
BRANCH   8  11
ATOM     11  C   LIG d   1      -9.748  73.112 117.110  0.00  0.00     0.028 C 
ATOM     12  C   LIG d   1     -10.866  74.163 117.029  0.00  0.00     0.006 C 
ENDBRANCH   8  11
ENDBRANCH   7   8
ENDBRANCH   1   7
BRANCH   6  13
ATOM     13  N   LIG d   1      -5.477  75.916 116.999  0.00  0.00    -0.311 N 
ATOM     14  C   LIG d   1      -4.621  75.852 115.980  0.00  0.00     0.210 C 
ATOM     15  C   LIG d   1      -3.499  74.823 116.142  0.00  0.00     0.109 C 
ATOM     16  O   LIG d   1      -4.667  76.573 114.972  0.00  0.00    -0.276 OA
ATOM     17  H   LIG d   1      -5.346  75.318 117.791  0.00  0.00     0.149 HD
ENDBRANCH   6  13
BRANCH   5  18
ATOM     18  N   LIG d   1      -5.297  78.964 117.117  0.00  0.00     0.381 N 
ATOM     19  H   LIG d   1      -4.563  79.168 117.765  0.00  0.00    -0.090 HD
ATOM     20  H   LIG d   1      -5.703  79.833 116.817  0.00  0.00    -0.090 HD
ATOM     21  H   LIG d   1      -4.930  78.473 116.331  0.00  0.00    -0.090 HD
ENDBRANCH   5  18
BRANCH   3  22
ATOM     22  C   LIG d   1      -9.692  79.003 119.020  0.00  0.00     0.382 C 
ATOM     23  O   LIG d   1      -9.578  80.244 119.166  0.00  0.00    -0.241 OA
ATOM     24  O   LIG d   1     -10.661  78.411 119.532  0.00  0.00    -0.241 OA
ENDBRANCH   3  22
TORSDOF 7
ENDMDL
MODEL 2
REMARK VINA RESULT:      -5.2      1.903      5.102
REMARK  7 active torsions:
REMARK  status: ('A' for Active; 'I' for Inactive)
REMARK    1  A    between atoms: C_2  and  C_3 
REMARK    2  A    between atoms: C_3  and  O_6 
REMARK    3  A    between atoms: C_3  and  C_4 
REMARK    4  A    between atoms: C_7  and  O_6 
REMARK    5  A    between atoms: C_9  and  C_10 
REMARK    6  A    between atoms: N_15  and  C_14 
REMARK    7  A    between atoms: N_20  and  C_19 
REMARK       I    between atoms: C_22  and  N_20 
ROOT
ATOM      1  C   LIG d   1      -5.838  76.167 116.076  0.00  0.00     0.161 C 
ATOM      2  C   LIG d   1      -4.779  75.283 115.816  0.00  0.00     0.016 C 
ATOM      3  C   LIG d   1      -3.591  75.244 116.582  0.00  0.00     0.038 C 
ATOM      4  C   LIG d   1      -3.444  75.990 117.761  0.00  0.00     0.028 C 
ATOM      5  C   LIG d   1      -4.281  77.265 117.779  0.00  0.00    -0.047 C 
ATOM      6  C   LIG d   1      -5.743  76.911 117.425  0.00  0.00     0.091 C 
ENDROOT
BRANCH   1   7
ATOM      7  O   LIG d   1      -7.094  75.468 115.977  0.00  0.00    -0.368 OA
BRANCH   7   8
ATOM      8  C   LIG d   1      -7.281  74.360 116.892  0.00  0.00     0.119 C 
BRANCH   8   9
ATOM      9  C   LIG d   1      -7.539  73.099 116.045  0.00  0.00     0.028 C 
ATOM     10  C   LIG d   1      -8.561  72.152 116.698  0.00  0.00     0.006 C 
ENDBRANCH   8   9
BRANCH   8  11
ATOM     11  C   LIG d   1      -8.542  74.544 117.741  0.00  0.00     0.028 C 
ATOM     12  C   LIG d   1      -9.392  75.744 117.293  0.00  0.00     0.006 C 
ENDBRANCH   8  11
ENDBRANCH   7   8
ENDBRANCH   1   7
BRANCH   6  13
ATOM     13  N   LIG d   1      -6.612  78.113 117.338  0.00  0.00    -0.311 N 
ATOM     14  C   LIG d   1      -7.347  78.562 118.354  0.00  0.00     0.210 C 
ATOM     15  C   LIG d   1      -8.187  79.805 118.045  0.00  0.00     0.109 C 
ATOM     16  O   LIG d   1      -7.359  78.067 119.491  0.00  0.00    -0.276 OA
ATOM     17  H   LIG d   1      -6.639  78.594 116.460  0.00  0.00     0.149 HD
ENDBRANCH   6  13
BRANCH   5  18
ATOM     18  N   LIG d   1      -4.140  77.872 119.116  0.00  0.00     0.381 N 
ATOM     19  H   LIG d   1      -4.262  78.863 119.053  0.00  0.00    -0.090 HD
ATOM     20  H   LIG d   1      -3.214  77.689 119.460  0.00  0.00    -0.090 HD
ATOM     21  H   LIG d   1      -4.815  77.486 119.738  0.00  0.00    -0.090 HD
ENDBRANCH   5  18
BRANCH   3  22
ATOM     22  C   LIG d   1      -2.517  74.482 116.147  0.00  0.00     0.382 C 
ATOM     23  O   LIG d   1      -2.194  74.489 114.935  0.00  0.00    -0.241 OA
ATOM     24  O   LIG d   1      -1.896  73.754 116.944  0.00  0.00    -0.241 OA
ENDBRANCH   3  22
TORSDOF 7
ENDMDL
MODEL 3
REMARK VINA RESULT:      -5.2      1.055      1.941
REMARK  7 active torsions:
REMARK  status: ('A' for Active; 'I' for Inactive)
REMARK    1  A    between atoms: C_2  and  C_3 
REMARK    2  A    between atoms: C_3  and  O_6 
REMARK    3  A    between atoms: C_3  and  C_4 
REMARK    4  A    between atoms: C_7  and  O_6 
REMARK    5  A    between atoms: C_9  and  C_10 
REMARK    6  A    between atoms: N_15  and  C_14 
REMARK    7  A    between atoms: N_20  and  C_19 
REMARK       I    between atoms: C_22  and  N_20 
ROOT
ATOM      1  C   LIG d   1      -7.310  75.849 118.775  0.00  0.00     0.161 C 
ATOM      2  C   LIG d   1      -8.474  76.634 118.841  0.00  0.00     0.016 C 
ATOM      3  C   LIG d   1      -8.555  77.949 118.329  0.00  0.00     0.038 C 
ATOM      4  C   LIG d   1      -7.516  78.518 117.577  0.00  0.00     0.028 C 
ATOM      5  C   LIG d   1      -6.141  77.954 117.921  0.00  0.00    -0.047 C 
ATOM      6  C   LIG d   1      -6.202  76.411 117.860  0.00  0.00     0.091 C 
ENDROOT
BRANCH   1   7
ATOM      7  O   LIG d   1      -7.649  74.504 118.383  0.00  0.00    -0.368 OA
BRANCH   7   8
ATOM      8  C   LIG d   1      -8.259  74.355 117.077  0.00  0.00     0.119 C 
BRANCH   8   9
ATOM      9  C   LIG d   1      -9.558  73.547 117.262  0.00  0.00     0.028 C 
ATOM     10  C   LIG d   1     -10.817  74.403 117.043  0.00  0.00     0.006 C 
ENDBRANCH   8   9
BRANCH   8  11
ATOM     11  C   LIG d   1      -7.384  73.509 116.148  0.00  0.00     0.028 C 
ATOM     12  C   LIG d   1      -7.904  72.072 115.984  0.00  0.00     0.006 C 
ENDBRANCH   8  11
ENDBRANCH   7   8
ENDBRANCH   1   7
BRANCH   6  13
ATOM     13  N   LIG d   1      -4.920  75.777 118.265  0.00  0.00    -0.311 N 
ATOM     14  C   LIG d   1      -4.117  75.139 117.416  0.00  0.00     0.210 C 
ATOM     15  C   LIG d   1      -2.855  74.541 118.044  0.00  0.00     0.109 C 
ATOM     16  O   LIG d   1      -4.315  75.039 116.195  0.00  0.00    -0.276 OA
ATOM     17  H   LIG d   1      -4.667  75.838 119.232  0.00  0.00     0.149 HD
ENDBRANCH   6  13
BRANCH   5  18
ATOM     18  N   LIG d   1      -5.173  78.533 116.970  0.00  0.00     0.381 N 
ATOM     19  H   LIG d   1      -4.987  79.485 117.213  0.00  0.00    -0.090 HD
ATOM     20  H   LIG d   1      -5.571  78.514 116.048  0.00  0.00    -0.090 HD
ATOM     21  H   LIG d   1      -4.326  78.008 116.985  0.00  0.00    -0.090 HD
ENDBRANCH   5  18
BRANCH   3  22
ATOM     22  C   LIG d   1      -9.671  78.725 118.603  0.00  0.00     0.382 C 
ATOM     23  O   LIG d   1     -10.778  78.176 118.822  0.00  0.00    -0.241 OA
ATOM     24  O   LIG d   1      -9.595  79.968 118.589  0.00  0.00    -0.241 OA
ENDBRANCH   3  22
TORSDOF 7
ENDMDL
MODEL 4
REMARK VINA RESULT:      -5.0      2.496      5.409
REMARK  7 active torsions:
REMARK  status: ('A' for Active; 'I' for Inactive)
REMARK    1  A    between atoms: C_2  and  C_3 
REMARK    2  A    between atoms: C_3  and  O_6 
REMARK    3  A    between atoms: C_3  and  C_4 
REMARK    4  A    between atoms: C_7  and  O_6 
REMARK    5  A    between atoms: C_9  and  C_10 
REMARK    6  A    between atoms: N_15  and  C_14 
REMARK    7  A    between atoms: N_20  and  C_19 
REMARK       I    between atoms: C_22  and  N_20 
ROOT
ATOM      1  C   LIG d   1      -5.793  74.794 116.706  0.00  0.00     0.161 C 
ATOM      2  C   LIG d   1      -6.541  73.673 116.307  0.00  0.00     0.016 C 
ATOM      3  C   LIG d   1      -7.926  73.534 116.555  0.00  0.00     0.038 C 
ATOM      4  C   LIG d   1      -8.693  74.580 117.089  0.00  0.00     0.028 C 
ATOM      5  C   LIG d   1      -7.889  75.533 117.967  0.00  0.00    -0.047 C 
ATOM      6  C   LIG d   1      -6.634  75.993 117.190  0.00  0.00     0.091 C 
ENDROOT
BRANCH   1   7
ATOM      7  O   LIG d   1      -4.912  75.198 115.639  0.00  0.00    -0.368 OA
BRANCH   7   8
ATOM      8  C   LIG d   1      -3.501  74.948 115.849  0.00  0.00     0.119 C 
BRANCH   8   9
ATOM      9  C   LIG d   1      -3.338  74.382 117.273  0.00  0.00     0.028 C 
ATOM     10  C   LIG d   1      -2.446  75.269 118.158  0.00  0.00     0.006 C 
ENDBRANCH   8   9
BRANCH   8  11
ATOM     11  C   LIG d   1      -2.696  76.251 115.836  0.00  0.00     0.028 C 
ATOM     12  C   LIG d   1      -3.143  77.216 114.726  0.00  0.00     0.006 C 
ENDBRANCH   8  11
ENDBRANCH   7   8
ENDBRANCH   1   7
BRANCH   6  13
ATOM     13  N   LIG d   1      -5.749  76.862 118.008  0.00  0.00    -0.311 N 
ATOM     14  C   LIG d   1      -5.376  78.086 117.636  0.00  0.00     0.210 C 
ATOM     15  C   LIG d   1      -4.444  78.804 118.617  0.00  0.00     0.109 C 
ATOM     16  O   LIG d   1      -5.755  78.657 116.603  0.00  0.00    -0.276 OA
ATOM     17  H   LIG d   1      -5.420  76.489 118.877  0.00  0.00     0.149 HD
ENDBRANCH   6  13
BRANCH   5  18
ATOM     18  N   LIG d   1      -8.778  76.649 118.343  0.00  0.00     0.381 N 
ATOM     19  H   LIG d   1      -8.343  77.203 119.054  0.00  0.00    -0.090 HD
ATOM     20  H   LIG d   1      -9.632  76.273 118.715  0.00  0.00    -0.090 HD
ATOM     21  H   LIG d   1      -8.973  77.213 117.546  0.00  0.00    -0.090 HD
ENDBRANCH   5  18
BRANCH   3  22
ATOM     22  C   LIG d   1      -8.550  72.321 116.304  0.00  0.00     0.382 C 
ATOM     23  O   LIG d   1      -7.906  71.380 115.781  0.00  0.00    -0.241 OA
ATOM     24  O   LIG d   1      -9.761  72.171 116.553  0.00  0.00    -0.241 OA
ENDBRANCH   3  22
TORSDOF 7
ENDMDL
MODEL 5
REMARK VINA RESULT:      -4.9      1.652      2.645
REMARK  7 active torsions:
REMARK  status: ('A' for Active; 'I' for Inactive)
REMARK    1  A    between atoms: C_2  and  C_3 
REMARK    2  A    between atoms: C_3  and  O_6 
REMARK    3  A    between atoms: C_3  and  C_4 
REMARK    4  A    between atoms: C_7  and  O_6 
REMARK    5  A    between atoms: C_9  and  C_10 
REMARK    6  A    between atoms: N_15  and  C_14 
REMARK    7  A    between atoms: N_20  and  C_19 
REMARK       I    between atoms: C_22  and  N_20 
ROOT
ATOM      1  C   LIG d   1      -6.548  77.291 117.481  0.00  0.00     0.161 C 
ATOM      2  C   LIG d   1      -7.905  77.464 117.803  0.00  0.00     0.016 C 
ATOM      3  C   LIG d   1      -8.472  78.715 118.138  0.00  0.00     0.038 C 
ATOM      4  C   LIG d   1      -7.747  79.911 118.025  0.00  0.00     0.028 C 
ATOM      5  C   LIG d   1      -6.243  79.727 118.192  0.00  0.00    -0.047 C 
ATOM      6  C   LIG d   1      -5.768  78.601 117.245  0.00  0.00     0.091 C 
ENDROOT
BRANCH   1   7
ATOM      7  O   LIG d   1      -6.425  76.421 116.339  0.00  0.00    -0.368 OA
BRANCH   7   8
ATOM      8  C   LIG d   1      -6.006  75.062 116.615  0.00  0.00     0.119 C 
BRANCH   8   9
ATOM      9  C   LIG d   1      -4.541  74.926 116.157  0.00  0.00     0.028 C 
ATOM     10  C   LIG d   1      -3.590  74.597 117.320  0.00  0.00     0.006 C 
ENDBRANCH   8   9
BRANCH   8  11
ATOM     11  C   LIG d   1      -6.790  74.054 115.770  0.00  0.00     0.028 C 
ATOM     12  C   LIG d   1      -7.897  73.342 116.564  0.00  0.00     0.006 C 
ENDBRANCH   8  11
ENDBRANCH   7   8
ENDBRANCH   1   7
BRANCH   6  13
ATOM     13  N   LIG d   1      -4.322  78.298 117.405  0.00  0.00    -0.311 N 
ATOM     14  C   LIG d   1      -3.432  78.427 116.422  0.00  0.00     0.210 C 
ATOM     15  C   LIG d   1      -1.997  78.042 116.795  0.00  0.00     0.109 C 
ATOM     16  O   LIG d   1      -3.690  78.854 115.287  0.00  0.00    -0.276 OA
ATOM     17  H   LIG d   1      -4.020  77.975 118.304  0.00  0.00     0.149 HD
ENDBRANCH   6  13
BRANCH   5  18
ATOM     18  N   LIG d   1      -5.601  81.025 117.914  0.00  0.00     0.381 N 
ATOM     19  H   LIG d   1      -5.150  80.996 117.021  0.00  0.00    -0.090 HD
ATOM     20  H   LIG d   1      -4.902  81.199 118.615  0.00  0.00    -0.090 HD
ATOM     21  H   LIG d   1      -6.282  81.752 117.927  0.00  0.00    -0.090 HD
ENDBRANCH   5  18
BRANCH   3  22
ATOM     22  C   LIG d   1      -9.767  78.774 118.630  0.00  0.00     0.382 C 
ATOM     23  O   LIG d   1     -10.567  77.835 118.400  0.00  0.00    -0.241 OA
ATOM     24  O   LIG d   1     -10.158  79.773 119.262  0.00  0.00    -0.241 OA
ENDBRANCH   3  22
TORSDOF 7
ENDMDL
MODEL 6
REMARK VINA RESULT:      -4.8      2.119      2.982
REMARK  7 active torsions:
REMARK  status: ('A' for Active; 'I' for Inactive)
REMARK    1  A    between atoms: C_2  and  C_3 
REMARK    2  A    between atoms: C_3  and  O_6 
REMARK    3  A    between atoms: C_3  and  C_4 
REMARK    4  A    between atoms: C_7  and  O_6 
REMARK    5  A    between atoms: C_9  and  C_10 
REMARK    6  A    between atoms: N_15  and  C_14 
REMARK    7  A    between atoms: N_20  and  C_19 
REMARK       I    between atoms: C_22  and  N_20 
ROOT
ATOM      1  C   LIG d   1      -5.157  76.165 117.863  0.00  0.00     0.161 C 
ATOM      2  C   LIG d   1      -6.154  77.141 118.028  0.00  0.00     0.016 C 
ATOM      3  C   LIG d   1      -6.016  78.477 117.586  0.00  0.00     0.038 C 
ATOM      4  C   LIG d   1      -4.924  78.892 116.809  0.00  0.00     0.028 C 
ATOM      5  C   LIG d   1      -3.662  78.072 117.051  0.00  0.00    -0.047 C 
ATOM      6  C   LIG d   1      -4.005  76.571 116.919  0.00  0.00     0.091 C 
ENDROOT
BRANCH   1   7
ATOM      7  O   LIG d   1      -5.752  74.928 117.424  0.00  0.00    -0.368 OA
BRANCH   7   8
ATOM      8  C   LIG d   1      -6.808  75.042 116.439  0.00  0.00     0.119 C 
BRANCH   8   9
ATOM      9  C   LIG d   1      -8.005  74.215 116.945  0.00  0.00     0.028 C 
ATOM     10  C   LIG d   1      -8.007  72.782 116.388  0.00  0.00     0.006 C 
ENDBRANCH   8   9
BRANCH   8  11
ATOM     11  C   LIG d   1      -6.402  74.397 115.110  0.00  0.00     0.028 C 
ATOM     12  C   LIG d   1      -5.976  75.428 114.053  0.00  0.00     0.006 C 
ENDBRANCH   8  11
ENDBRANCH   7   8
ENDBRANCH   1   7
BRANCH   6  13
ATOM     13  N   LIG d   1      -2.844  75.695 117.225  0.00  0.00    -0.311 N 
ATOM     14  C   LIG d   1      -2.325  74.834 116.351  0.00  0.00     0.210 C 
ATOM     15  C   LIG d   1      -1.143  74.013 116.875  0.00  0.00     0.109 C 
ATOM     16  O   LIG d   1      -2.711  74.695 115.180  0.00  0.00    -0.276 OA
ATOM     17  H   LIG d   1      -2.449  75.764 118.142  0.00  0.00     0.149 HD
ENDBRANCH   6  13
BRANCH   5  18
ATOM     18  N   LIG d   1      -2.646  78.520 116.081  0.00  0.00     0.381 N 
ATOM     19  H   LIG d   1      -2.292  77.734 115.573  0.00  0.00    -0.090 HD
ATOM     20  H   LIG d   1      -1.883  78.943 116.580  0.00  0.00    -0.090 HD
ATOM     21  H   LIG d   1      -3.045  79.180 115.449  0.00  0.00    -0.090 HD
ENDBRANCH   5  18
BRANCH   3  22
ATOM     22  C   LIG d   1      -6.959  79.423 117.955  0.00  0.00     0.382 C 
ATOM     23  O   LIG d   1      -7.187  80.406 117.209  0.00  0.00    -0.241 OA
ATOM     24  O   LIG d   1      -7.553  79.331 119.046  0.00  0.00    -0.241 OA
ENDBRANCH   3  22
TORSDOF 7
ENDMDL
MODEL 7
REMARK VINA RESULT:      -4.7      2.156      5.679
REMARK  7 active torsions:
REMARK  status: ('A' for Active; 'I' for Inactive)
REMARK    1  A    between atoms: C_2  and  C_3 
REMARK    2  A    between atoms: C_3  and  O_6 
REMARK    3  A    between atoms: C_3  and  C_4 
REMARK    4  A    between atoms: C_7  and  O_6 
REMARK    5  A    between atoms: C_9  and  C_10 
REMARK    6  A    between atoms: N_15  and  C_14 
REMARK    7  A    between atoms: N_20  and  C_19 
REMARK       I    between atoms: C_22  and  N_20 
ROOT
ATOM      1  C   LIG d   1      -6.160  76.812 117.084  0.00  0.00     0.161 C 
ATOM      2  C   LIG d   1      -6.600  75.515 116.771  0.00  0.00     0.016 C 
ATOM      3  C   LIG d   1      -7.924  75.069 116.989  0.00  0.00     0.038 C 
ATOM      4  C   LIG d   1      -8.943  75.943 117.396  0.00  0.00     0.028 C 
ATOM      5  C   LIG d   1      -8.434  77.132 118.203  0.00  0.00    -0.047 C 
ATOM      6  C   LIG d   1      -7.284  77.812 117.425  0.00  0.00     0.091 C 
ENDROOT
BRANCH   1   7
ATOM      7  O   LIG d   1      -5.344  77.323 116.011  0.00  0.00    -0.368 OA
BRANCH   7   8
ATOM      8  C   LIG d   1      -3.929  77.454 116.293  0.00  0.00     0.119 C 
BRANCH   8   9
ATOM      9  C   LIG d   1      -3.552  78.935 116.092  0.00  0.00     0.028 C 
ATOM     10  C   LIG d   1      -2.666  79.152 114.854  0.00  0.00     0.006 C 
ENDBRANCH   8   9
BRANCH   8  11
ATOM     11  C   LIG d   1      -3.084  76.679 115.278  0.00  0.00     0.028 C 
ATOM     12  C   LIG d   1      -2.807  75.232 115.715  0.00  0.00     0.006 C 
ENDBRANCH   8  11
ENDBRANCH   7   8
ENDBRANCH   1   7
BRANCH   6  13
ATOM     13  N   LIG d   1      -6.673  78.935 118.183  0.00  0.00    -0.311 N 
ATOM     14  C   LIG d   1      -7.038  80.206 118.031  0.00  0.00     0.210 C 
ATOM     15  C   LIG d   1      -6.266  81.208 118.895  0.00  0.00     0.109 C 
ATOM     16  O   LIG d   1      -7.950  80.596 117.287  0.00  0.00    -0.276 OA
ATOM     17  H   LIG d   1      -5.946  78.705 118.832  0.00  0.00     0.149 HD
ENDBRANCH   6  13
BRANCH   5  18
ATOM     18  N   LIG d   1      -9.579  78.030 118.444  0.00  0.00     0.381 N 
ATOM     19  H   LIG d   1      -9.703  78.639 117.659  0.00  0.00    -0.090 HD
ATOM     20  H   LIG d   1      -9.386  78.594 119.253  0.00  0.00    -0.090 HD
ATOM     21  H   LIG d   1     -10.407  77.496 118.592  0.00  0.00    -0.090 HD
ENDBRANCH   5  18
BRANCH   3  22
ATOM     22  C   LIG d   1      -8.230  73.725 116.836  0.00  0.00     0.382 C 
ATOM     23  O   LIG d   1      -7.491  72.989 116.139  0.00  0.00    -0.241 OA
ATOM     24  O   LIG d   1      -9.261  73.250 117.349  0.00  0.00    -0.241 OA
ENDBRANCH   3  22
TORSDOF 7
ENDMDL
MODEL 8
REMARK VINA RESULT:      -4.7     16.526     18.814
REMARK  7 active torsions:
REMARK  status: ('A' for Active; 'I' for Inactive)
REMARK    1  A    between atoms: C_2  and  C_3 
REMARK    2  A    between atoms: C_3  and  O_6 
REMARK    3  A    between atoms: C_3  and  C_4 
REMARK    4  A    between atoms: C_7  and  O_6 
REMARK    5  A    between atoms: C_9  and  C_10 
REMARK    6  A    between atoms: N_15  and  C_14 
REMARK    7  A    between atoms: N_20  and  C_19 
REMARK       I    between atoms: C_22  and  N_20 
ROOT
ATOM      1  C   LIG d   1     -23.524  83.773 114.963  0.00  0.00     0.161 C 
ATOM      2  C   LIG d   1     -22.679  84.891 114.870  0.00  0.00     0.016 C 
ATOM      3  C   LIG d   1     -23.014  86.062 114.152  0.00  0.00     0.038 C 
ATOM      4  C   LIG d   1     -24.290  86.254 113.600  0.00  0.00     0.028 C 
ATOM      5  C   LIG d   1     -24.995  84.951 113.238  0.00  0.00    -0.047 C 
ATOM      6  C   LIG d   1     -24.964  84.007 114.462  0.00  0.00     0.091 C 
ENDROOT
BRANCH   1   7
ATOM      7  O   LIG d   1     -23.539  83.284 116.319  0.00  0.00    -0.368 OA
BRANCH   7   8
ATOM      8  C   LIG d   1     -22.664  82.164 116.602  0.00  0.00     0.119 C 
BRANCH   8   9
ATOM      9  C   LIG d   1     -23.527  81.049 117.226  0.00  0.00     0.028 C 
ATOM     10  C   LIG d   1     -24.129  80.111 116.166  0.00  0.00     0.006 C 
ENDBRANCH   8   9
BRANCH   8  11
ATOM     11  C   LIG d   1     -21.629  82.522 117.672  0.00  0.00     0.028 C 
ATOM     12  C   LIG d   1     -21.999  83.789 118.460  0.00  0.00     0.006 C 
ENDBRANCH   8  11
ENDBRANCH   7   8
ENDBRANCH   1   7
BRANCH   6  13
ATOM     13  N   LIG d   1     -25.559  82.677 114.167  0.00  0.00    -0.311 N 
ATOM     14  C   LIG d   1     -26.836  82.378 114.399  0.00  0.00     0.210 C 
ATOM     15  C   LIG d   1     -27.240  80.944 114.041  0.00  0.00     0.109 C 
ATOM     16  O   LIG d   1     -27.681  83.173 114.837  0.00  0.00    -0.276 OA
ATOM     17  H   LIG d   1     -24.952  81.981 113.780  0.00  0.00     0.149 HD
ENDBRANCH   6  13
BRANCH   5  18
ATOM     18  N   LIG d   1     -26.364  85.291 112.805  0.00  0.00     0.381 N 
ATOM     19  H   LIG d   1     -26.620  84.728 112.018  0.00  0.00    -0.090 HD
ATOM     20  H   LIG d   1     -26.386  86.255 112.524  0.00  0.00    -0.090 HD
ATOM     21  H   LIG d   1     -27.005  85.141 113.552  0.00  0.00    -0.090 HD
ENDBRANCH   5  18
BRANCH   3  22
ATOM     22  C   LIG d   1     -22.054  87.041 113.945  0.00  0.00     0.382 C 
ATOM     23  O   LIG d   1     -21.074  86.809 113.197  0.00  0.00    -0.241 OA
ATOM     24  O   LIG d   1     -22.132  88.136 114.533  0.00  0.00    -0.241 OA
ENDBRANCH   3  22
TORSDOF 7
ENDMDL
MODEL 9
REMARK VINA RESULT:      -4.7      2.527      3.850
REMARK  7 active torsions:
REMARK  status: ('A' for Active; 'I' for Inactive)
REMARK    1  A    between atoms: C_2  and  C_3 
REMARK    2  A    between atoms: C_3  and  O_6 
REMARK    3  A    between atoms: C_3  and  C_4 
REMARK    4  A    between atoms: C_7  and  O_6 
REMARK    5  A    between atoms: C_9  and  C_10 
REMARK    6  A    between atoms: N_15  and  C_14 
REMARK    7  A    between atoms: N_20  and  C_19 
REMARK       I    between atoms: C_22  and  N_20 
ROOT
ATOM      1  C   LIG d   1      -5.767  78.034 117.271  0.00  0.00     0.161 C 
ATOM      2  C   LIG d   1      -7.107  77.787 117.612  0.00  0.00     0.016 C 
ATOM      3  C   LIG d   1      -8.004  78.800 118.024  0.00  0.00     0.038 C 
ATOM      4  C   LIG d   1      -7.661  80.159 117.976  0.00  0.00     0.028 C 
ATOM      5  C   LIG d   1      -6.164  80.411 118.121  0.00  0.00    -0.047 C 
ATOM      6  C   LIG d   1      -5.405  79.525 117.106  0.00  0.00     0.091 C 
ENDROOT
BRANCH   1   7
ATOM      7  O   LIG d   1      -5.423  77.301 116.079  0.00  0.00    -0.368 OA
BRANCH   7   8
ATOM      8  C   LIG d   1      -4.526  76.177 116.258  0.00  0.00     0.119 C 
BRANCH   8   9
ATOM      9  C   LIG d   1      -5.350  74.891 116.061  0.00  0.00     0.028 C 
ATOM     10  C   LIG d   1      -6.318  74.990 114.870  0.00  0.00     0.006 C 
ENDBRANCH   8   9
BRANCH   8  11
ATOM     11  C   LIG d   1      -4.001  76.107 117.695  0.00  0.00     0.028 C 
ATOM     12  C   LIG d   1      -2.476  76.277 117.782  0.00  0.00     0.006 C 
ENDBRANCH   8  11
ENDBRANCH   7   8
ENDBRANCH   1   7
BRANCH   6  13
ATOM     13  N   LIG d   1      -3.930  79.648 117.239  0.00  0.00    -0.311 N 
ATOM     14  C   LIG d   1      -3.109  79.773 116.198  0.00  0.00     0.210 C 
ATOM     15  C   LIG d   1      -1.622  79.865 116.555  0.00  0.00     0.109 C 
ATOM     16  O   LIG d   1      -3.473  79.849 115.015  0.00  0.00    -0.276 OA
ATOM     17  H   LIG d   1      -3.552  79.627 118.165  0.00  0.00     0.149 HD
ENDBRANCH   6  13
BRANCH   5  18
ATOM     18  N   LIG d   1      -5.933  81.853 117.916  0.00  0.00     0.381 N 
ATOM     19  H   LIG d   1      -5.895  82.320 118.800  0.00  0.00    -0.090 HD
ATOM     20  H   LIG d   1      -6.701  82.234 117.392  0.00  0.00    -0.090 HD
ATOM     21  H   LIG d   1      -5.080  81.995 117.420  0.00  0.00    -0.090 HD
ENDBRANCH   5  18
BRANCH   3  22
ATOM     22  C   LIG d   1      -9.248  78.452 118.527  0.00  0.00     0.382 C 
ATOM     23  O   LIG d   1     -10.222  79.230 118.385  0.00  0.00    -0.241 OA
ATOM     24  O   LIG d   1      -9.400  77.389 119.160  0.00  0.00    -0.241 OA
ENDBRANCH   3  22
TORSDOF 7
ENDMDL
