MODEL 1
REMARK VINA RESULT:      -5.7      0.000      0.000
REMARK  7 active torsions:
REMARK  status: ('A' for Active; 'I' for Inactive)
REMARK    1  A    between atoms: C_2  and  C_3 
REMARK    2  A    between atoms: C_3  and  O_6 
REMARK    3  A    between atoms: C_3  and  C_4 
REMARK    4  A    between atoms: C_7  and  O_6 
REMARK    5  A    between atoms: C_9  and  C_10 
REMARK    6  A    between atoms: N_15  and  C_14 
REMARK    7  A    between atoms: N_20  and  C_19 
REMARK       I    between atoms: C_22  and  N_20 
ROOT
ATOM      1  C   LIG d   1      -7.064  76.643 117.040  0.00  0.00     0.161 C 
ATOM      2  C   LIG d   1      -6.910  78.034 117.156  0.00  0.00     0.016 C 
ATOM      3  C   LIG d   1      -7.910  78.887 117.678  0.00  0.00     0.038 C 
ATOM      4  C   LIG d   1      -9.082  78.384 118.264  0.00  0.00     0.028 C 
ATOM      5  C   LIG d   1      -9.500  77.025 117.711  0.00  0.00    -0.047 C 
ATOM      6  C   LIG d   1      -8.291  76.064 117.776  0.00  0.00     0.091 C 
ENDROOT
BRANCH   1   7
ATOM      7  O   LIG d   1      -5.860  75.980 117.475  0.00  0.00    -0.368 OA
BRANCH   7   8
ATOM      8  C   LIG d   1      -4.818  75.833 116.480  0.00  0.00     0.119 C 
BRANCH   8   9
ATOM      9  C   LIG d   1      -5.391  74.979 115.332  0.00  0.00     0.028 C 
ATOM     10  C   LIG d   1      -5.206  75.644 113.958  0.00  0.00     0.006 C 
ENDBRANCH   8   9
BRANCH   8  11
ATOM     11  C   LIG d   1      -3.632  75.033 117.028  0.00  0.00     0.028 C 
ATOM     12  C   LIG d   1      -2.333  75.284 116.247  0.00  0.00     0.006 C 
ENDBRANCH   8  11
ENDBRANCH   7   8
ENDBRANCH   1   7
BRANCH   6  13
ATOM     13  N   LIG d   1      -8.589  74.737 117.177  0.00  0.00    -0.311 N 
ATOM     14  C   LIG d   1      -9.060  73.706 117.877  0.00  0.00     0.210 C 
ATOM     15  C   LIG d   1      -9.280  72.423 117.069  0.00  0.00     0.109 C 
ATOM     16  O   LIG d   1      -9.347  73.742 119.083  0.00  0.00    -0.276 OA
ATOM     17  H   LIG d   1      -8.415  74.629 116.197  0.00  0.00     0.149 HD
ENDBRANCH   6  13
BRANCH   5  18
ATOM     18  N   LIG d   1     -10.653  76.557 118.503  0.00  0.00     0.381 N 
ATOM     19  H   LIG d   1     -10.594  75.567 118.635  0.00  0.00    -0.090 HD
ATOM     20  H   LIG d   1     -11.497  76.759 117.998  0.00  0.00    -0.090 HD
ATOM     21  H   LIG d   1     -10.668  77.017 119.387  0.00  0.00    -0.090 HD
ENDBRANCH   5  18
BRANCH   3  22
ATOM     22  C   LIG d   1      -7.761  80.262 117.582  0.00  0.00     0.382 C 
ATOM     23  O   LIG d   1      -8.542  81.023 118.201  0.00  0.00    -0.241 OA
ATOM     24  O   LIG d   1      -6.881  80.751 116.848  0.00  0.00    -0.241 OA
ENDBRANCH   3  22
TORSDOF 7
ENDMDL
MODEL 2
REMARK VINA RESULT:      -5.4      2.473      5.595
REMARK  7 active torsions:
REMARK  status: ('A' for Active; 'I' for Inactive)
REMARK    1  A    between atoms: C_2  and  C_3 
REMARK    2  A    between atoms: C_3  and  O_6 
REMARK    3  A    between atoms: C_3  and  C_4 
REMARK    4  A    between atoms: C_7  and  O_6 
REMARK    5  A    between atoms: C_9  and  C_10 
REMARK    6  A    between atoms: N_15  and  C_14 
REMARK    7  A    between atoms: N_20  and  C_19 
REMARK       I    between atoms: C_22  and  N_20 
ROOT
ATOM      1  C   LIG d   1      -7.062  76.596 116.818  0.00  0.00     0.161 C 
ATOM      2  C   LIG d   1      -6.435  76.067 115.678  0.00  0.00     0.016 C 
ATOM      3  C   LIG d   1      -5.086  76.326 115.341  0.00  0.00     0.038 C 
ATOM      4  C   LIG d   1      -4.224  77.015 116.208  0.00  0.00     0.028 C 
ATOM      5  C   LIG d   1      -4.946  77.995 117.126  0.00  0.00    -0.047 C 
ATOM      6  C   LIG d   1      -6.107  77.259 117.833  0.00  0.00     0.091 C 
ENDROOT
BRANCH   1   7
ATOM      7  O   LIG d   1      -7.848  75.574 117.462  0.00  0.00    -0.368 OA
BRANCH   7   8
ATOM      8  C   LIG d   1      -9.169  75.346 116.915  0.00  0.00     0.119 C 
BRANCH   8   9
ATOM      9  C   LIG d   1     -10.182  76.047 117.841  0.00  0.00     0.028 C 
ATOM     10  C   LIG d   1      -9.784  75.953 119.323  0.00  0.00     0.006 C 
ENDBRANCH   8   9
BRANCH   8  11
ATOM     11  C   LIG d   1      -9.541  73.861 116.958  0.00  0.00     0.028 C 
ATOM     12  C   LIG d   1      -8.339  72.954 117.267  0.00  0.00     0.006 C 
ENDBRANCH   8  11
ENDBRANCH   7   8
ENDBRANCH   1   7
BRANCH   6  13
ATOM     13  N   LIG d   1      -6.917  78.166 118.687  0.00  0.00    -0.311 N 
ATOM     14  C   LIG d   1      -7.520  79.261 118.227  0.00  0.00     0.210 C 
ATOM     15  C   LIG d   1      -8.288  80.067 119.280  0.00  0.00     0.109 C 
ATOM     16  O   LIG d   1      -7.518  79.625 117.042  0.00  0.00    -0.276 OA
ATOM     17  H   LIG d   1      -6.998  77.929 119.656  0.00  0.00     0.149 HD
ENDBRANCH   6  13
BRANCH   5  18
ATOM     18  N   LIG d   1      -3.949  78.540 118.067  0.00  0.00     0.381 N 
ATOM     19  H   LIG d   1      -3.596  77.807 118.649  0.00  0.00    -0.090 HD
ATOM     20  H   LIG d   1      -4.396  79.222 118.655  0.00  0.00    -0.090 HD
ATOM     21  H   LIG d   1      -3.201  78.964 117.564  0.00  0.00    -0.090 HD
ENDBRANCH   5  18
BRANCH   3  22
ATOM     22  C   LIG d   1      -4.598  75.928 114.106  0.00  0.00     0.382 C 
ATOM     23  O   LIG d   1      -3.825  76.680 113.465  0.00  0.00    -0.241 OA
ATOM     24  O   LIG d   1      -4.955  74.845 113.604  0.00  0.00    -0.241 OA
ENDBRANCH   3  22
TORSDOF 7
ENDMDL
MODEL 3
REMARK VINA RESULT:      -4.9     12.941     14.992
REMARK  7 active torsions:
REMARK  status: ('A' for Active; 'I' for Inactive)
REMARK    1  A    between atoms: C_2  and  C_3 
REMARK    2  A    between atoms: C_3  and  O_6 
REMARK    3  A    between atoms: C_3  and  C_4 
REMARK    4  A    between atoms: C_7  and  O_6 
REMARK    5  A    between atoms: C_9  and  C_10 
REMARK    6  A    between atoms: N_15  and  C_14 
REMARK    7  A    between atoms: N_20  and  C_19 
REMARK       I    between atoms: C_22  and  N_20 
ROOT
ATOM      1  C   LIG d   1       1.237  87.402 116.550  0.00  0.00     0.161 C 
ATOM      2  C   LIG d   1      -0.125  87.403 116.894  0.00  0.00     0.016 C 
ATOM      3  C   LIG d   1      -0.744  88.451 117.614  0.00  0.00     0.038 C 
ATOM      4  C   LIG d   1      -0.072  89.646 117.909  0.00  0.00     0.028 C 
ATOM      5  C   LIG d   1       1.439  89.479 118.025  0.00  0.00    -0.047 C 
ATOM      6  C   LIG d   1       1.961  88.747 116.767  0.00  0.00     0.091 C 
ENDROOT
BRANCH   1   7
ATOM      7  O   LIG d   1       1.396  86.961 115.187  0.00  0.00    -0.368 OA
BRANCH   7   8
ATOM      8  C   LIG d   1       1.968  85.643 115.006  0.00  0.00     0.119 C 
BRANCH   8   9
ATOM      9  C   LIG d   1       3.347  85.823 114.342  0.00  0.00     0.028 C 
ATOM     10  C   LIG d   1       3.336  86.905 113.250  0.00  0.00     0.006 C 
ENDBRANCH   8   9
BRANCH   8  11
ATOM     11  C   LIG d   1       1.147  84.811 114.015  0.00  0.00     0.028 C 
ATOM     12  C   LIG d   1      -0.005  85.606 113.381  0.00  0.00     0.006 C 
ENDBRANCH   8  11
ENDBRANCH   7   8
ENDBRANCH   1   7
BRANCH   6  13
ATOM     13  N   LIG d   1       3.419  88.468 116.837  0.00  0.00    -0.311 N 
ATOM     14  C   LIG d   1       4.311  89.022 116.019  0.00  0.00     0.210 C 
ATOM     15  C   LIG d   1       5.761  88.582 116.249  0.00  0.00     0.109 C 
ATOM     16  O   LIG d   1       4.045  89.861 115.145  0.00  0.00    -0.276 OA
ATOM     17  H   LIG d   1       3.726  87.823 117.538  0.00  0.00     0.149 HD
ENDBRANCH   6  13
BRANCH   5  18
ATOM     18  N   LIG d   1       2.024  90.821 118.198  0.00  0.00     0.381 N 
ATOM     19  H   LIG d   1       2.072  91.286 117.313  0.00  0.00    -0.090 HD
ATOM     20  H   LIG d   1       2.959  90.725 118.554  0.00  0.00    -0.090 HD
ATOM     21  H   LIG d   1       1.472  91.355 118.832  0.00  0.00    -0.090 HD
ENDBRANCH   5  18
BRANCH   3  22
ATOM     22  C   LIG d   1      -2.040  88.291 118.081  0.00  0.00     0.382 C 
ATOM     23  O   LIG d   1      -2.265  87.540 119.061  0.00  0.00    -0.241 OA
ATOM     24  O   LIG d   1      -2.992  88.853 117.507  0.00  0.00    -0.241 OA
ENDBRANCH   3  22
TORSDOF 7
ENDMDL
MODEL 4
REMARK VINA RESULT:      -4.5      2.545      6.009
REMARK  7 active torsions:
REMARK  status: ('A' for Active; 'I' for Inactive)
REMARK    1  A    between atoms: C_2  and  C_3 
REMARK    2  A    between atoms: C_3  and  O_6 
REMARK    3  A    between atoms: C_3  and  C_4 
REMARK    4  A    between atoms: C_7  and  O_6 
REMARK    5  A    between atoms: C_9  and  C_10 
REMARK    6  A    between atoms: N_15  and  C_14 
REMARK    7  A    between atoms: N_20  and  C_19 
REMARK       I    between atoms: C_22  and  N_20 
ROOT
ATOM      1  C   LIG d   1      -7.052  77.885 117.326  0.00  0.00     0.161 C 
ATOM      2  C   LIG d   1      -8.278  77.200 117.325  0.00  0.00     0.016 C 
ATOM      3  C   LIG d   1      -8.391  75.805 117.127  0.00  0.00     0.038 C 
ATOM      4  C   LIG d   1      -7.264  74.972 117.066  0.00  0.00     0.028 C 
ATOM      5  C   LIG d   1      -6.013  75.680 116.557  0.00  0.00    -0.047 C 
ATOM      6  C   LIG d   1      -5.805  76.977 117.372  0.00  0.00     0.091 C 
ENDROOT
BRANCH   1   7
ATOM      7  O   LIG d   1      -7.022  78.833 118.411  0.00  0.00    -0.368 OA
BRANCH   7   8
ATOM      8  C   LIG d   1      -7.069  80.232 118.037  0.00  0.00     0.119 C 
BRANCH   8   9
ATOM      9  C   LIG d   1      -6.856  81.061 119.318  0.00  0.00     0.028 C 
ATOM     10  C   LIG d   1      -7.101  82.562 119.094  0.00  0.00     0.006 C 
ENDBRANCH   8   9
BRANCH   8  11
ATOM     11  C   LIG d   1      -8.458  80.625 117.526  0.00  0.00     0.028 C 
ATOM     12  C   LIG d   1      -9.582  80.246 118.504  0.00  0.00     0.006 C 
ENDBRANCH   8  11
ENDBRANCH   7   8
ENDBRANCH   1   7
BRANCH   6  13
ATOM     13  N   LIG d   1      -4.650  77.774 116.883  0.00  0.00    -0.311 N 
ATOM     14  C   LIG d   1      -3.419  77.664 117.381  0.00  0.00     0.210 C 
ATOM     15  C   LIG d   1      -2.379  78.593 116.747  0.00  0.00     0.109 C 
ATOM     16  O   LIG d   1      -3.084  76.862 118.266  0.00  0.00    -0.276 OA
ATOM     17  H   LIG d   1      -4.826  78.428 116.145  0.00  0.00     0.149 HD
ENDBRANCH   6  13
BRANCH   5  18
ATOM     18  N   LIG d   1      -4.887  74.736 116.675  0.00  0.00     0.381 N 
ATOM     19  H   LIG d   1      -4.893  74.102 115.901  0.00  0.00    -0.090 HD
ATOM     20  H   LIG d   1      -4.997  74.202 117.520  0.00  0.00    -0.090 HD
ATOM     21  H   LIG d   1      -4.024  75.234 116.699  0.00  0.00    -0.090 HD
ENDBRANCH   5  18
BRANCH   3  22
ATOM     22  C   LIG d   1      -9.642  75.235 116.947  0.00  0.00     0.382 C 
ATOM     23  O   LIG d   1     -10.675  75.886 117.235  0.00  0.00    -0.241 OA
ATOM     24  O   LIG d   1      -9.750  74.062 116.542  0.00  0.00    -0.241 OA
ENDBRANCH   3  22
TORSDOF 7
ENDMDL
MODEL 5
REMARK VINA RESULT:      -4.5     16.836     20.350
REMARK  7 active torsions:
REMARK  status: ('A' for Active; 'I' for Inactive)
REMARK    1  A    between atoms: C_2  and  C_3 
REMARK    2  A    between atoms: C_3  and  O_6 
REMARK    3  A    between atoms: C_3  and  C_4 
REMARK    4  A    between atoms: C_7  and  O_6 
REMARK    5  A    between atoms: C_9  and  C_10 
REMARK    6  A    between atoms: N_15  and  C_14 
REMARK    7  A    between atoms: N_20  and  C_19 
REMARK       I    between atoms: C_22  and  N_20 
ROOT
ATOM      1  C   LIG d   1      12.202  78.588 113.630  0.00  0.00     0.161 C 
ATOM      2  C   LIG d   1      10.835  78.770 113.897  0.00  0.00     0.016 C 
ATOM      3  C   LIG d   1       9.965  77.715 114.255  0.00  0.00     0.038 C 
ATOM      4  C   LIG d   1      10.438  76.421 114.519  0.00  0.00     0.028 C 
ATOM      5  C   LIG d   1      11.723  76.082 113.772  0.00  0.00    -0.047 C 
ATOM      6  C   LIG d   1      12.758  77.203 114.020  0.00  0.00     0.091 C 
ENDROOT
BRANCH   1   7
ATOM      7  O   LIG d   1      12.967  79.632 114.263  0.00  0.00    -0.368 OA
BRANCH   7   8
ATOM      8  C   LIG d   1      13.425  79.359 115.610  0.00  0.00     0.119 C 
BRANCH   8   9
ATOM      9  C   LIG d   1      12.680  80.321 116.556  0.00  0.00     0.028 C 
ATOM     10  C   LIG d   1      11.594  79.610 117.381  0.00  0.00     0.006 C 
ENDBRANCH   8   9
BRANCH   8  11
ATOM     11  C   LIG d   1      14.909  79.699 115.774  0.00  0.00     0.028 C 
ATOM     12  C   LIG d   1      15.581  80.090 114.448  0.00  0.00     0.006 C 
ENDBRANCH   8  11
ENDBRANCH   7   8
ENDBRANCH   1   7
BRANCH   6  13
ATOM     13  N   LIG d   1      14.016  76.992 113.257  0.00  0.00    -0.311 N 
ATOM     14  C   LIG d   1      15.101  76.419 113.775  0.00  0.00     0.210 C 
ATOM     15  C   LIG d   1      16.296  76.317 112.823  0.00  0.00     0.109 C 
ATOM     16  O   LIG d   1      15.176  75.955 114.923  0.00  0.00    -0.276 OA
ATOM     17  H   LIG d   1      14.032  77.310 112.308  0.00  0.00     0.149 HD
ENDBRANCH   6  13
BRANCH   5  18
ATOM     18  N   LIG d   1      12.178  74.760 114.243  0.00  0.00     0.381 N 
ATOM     19  H   LIG d   1      12.816  74.874 115.006  0.00  0.00    -0.090 HD
ATOM     20  H   LIG d   1      12.661  74.296 113.494  0.00  0.00    -0.090 HD
ATOM     21  H   LIG d   1      11.396  74.214 114.533  0.00  0.00    -0.090 HD
ENDBRANCH   5  18
BRANCH   3  22
ATOM     22  C   LIG d   1       8.598  77.941 114.314  0.00  0.00     0.382 C 
ATOM     23  O   LIG d   1       8.160  79.012 114.799  0.00  0.00    -0.241 OA
ATOM     24  O   LIG d   1       7.796  77.069 113.930  0.00  0.00    -0.241 OA
ENDBRANCH   3  22
TORSDOF 7
ENDMDL
MODEL 6
REMARK VINA RESULT:      -4.4     16.151     19.669
REMARK  7 active torsions:
REMARK  status: ('A' for Active; 'I' for Inactive)
REMARK    1  A    between atoms: C_2  and  C_3 
REMARK    2  A    between atoms: C_3  and  O_6 
REMARK    3  A    between atoms: C_3  and  C_4 
REMARK    4  A    between atoms: C_7  and  O_6 
REMARK    5  A    between atoms: C_9  and  C_10 
REMARK    6  A    between atoms: N_15  and  C_14 
REMARK    7  A    between atoms: N_20  and  C_19 
REMARK       I    between atoms: C_22  and  N_20 
ROOT
ATOM      1  C   LIG d   1      11.649  78.586 114.645  0.00  0.00     0.161 C 
ATOM      2  C   LIG d   1      10.484  78.025 114.096  0.00  0.00     0.016 C 
ATOM      3  C   LIG d   1       9.191  78.244 114.625  0.00  0.00     0.038 C 
ATOM      4  C   LIG d   1       8.958  79.168 115.655  0.00  0.00     0.028 C 
ATOM      5  C   LIG d   1      10.162  79.373 116.568  0.00  0.00    -0.047 C 
ATOM      6  C   LIG d   1      11.403  79.685 115.700  0.00  0.00     0.091 C 
ENDROOT
BRANCH   1   7
ATOM      7  O   LIG d   1      12.495  79.086 113.590  0.00  0.00    -0.368 OA
BRANCH   7   8
ATOM      8  C   LIG d   1      13.567  78.210 113.164  0.00  0.00     0.119 C 
BRANCH   8   9
ATOM      9  C   LIG d   1      13.964  77.341 114.374  0.00  0.00     0.028 C 
ATOM     10  C   LIG d   1      14.326  75.902 113.969  0.00  0.00     0.006 C 
ENDBRANCH   8   9
BRANCH   8  11
ATOM     11  C   LIG d   1      14.827  79.004 112.806  0.00  0.00     0.028 C 
ATOM     12  C   LIG d   1      14.997  80.269 113.662  0.00  0.00     0.006 C 
ENDBRANCH   8  11
ENDBRANCH   7   8
ENDBRANCH   1   7
BRANCH   6  13
ATOM     13  N   LIG d   1      12.642  79.817 116.510  0.00  0.00    -0.311 N 
ATOM     14  C   LIG d   1      13.091  80.980 116.979  0.00  0.00     0.210 C 
ATOM     15  C   LIG d   1      14.398  80.895 117.773  0.00  0.00     0.109 C 
ATOM     16  O   LIG d   1      12.513  82.068 116.840  0.00  0.00    -0.276 OA
ATOM     17  H   LIG d   1      13.156  78.978 116.697  0.00  0.00     0.149 HD
ENDBRANCH   6  13
BRANCH   5  18
ATOM     18  N   LIG d   1       9.827  80.459 117.509  0.00  0.00     0.381 N 
ATOM     19  H   LIG d   1      10.474  81.215 117.398  0.00  0.00    -0.090 HD
ATOM     20  H   LIG d   1       9.907  80.111 118.448  0.00  0.00    -0.090 HD
ATOM     21  H   LIG d   1       8.899  80.779 117.343  0.00  0.00    -0.090 HD
ENDBRANCH   5  18
BRANCH   3  22
ATOM     22  C   LIG d   1       8.120  77.505 114.148  0.00  0.00     0.382 C 
ATOM     23  O   LIG d   1       8.322  76.418 113.555  0.00  0.00    -0.241 OA
ATOM     24  O   LIG d   1       6.956  77.932 114.265  0.00  0.00    -0.241 OA
ENDBRANCH   3  22
TORSDOF 7
ENDMDL
MODEL 7
REMARK VINA RESULT:      -4.3     16.474     20.065
REMARK  7 active torsions:
REMARK  status: ('A' for Active; 'I' for Inactive)
REMARK    1  A    between atoms: C_2  and  C_3 
REMARK    2  A    between atoms: C_3  and  O_6 
REMARK    3  A    between atoms: C_3  and  C_4 
REMARK    4  A    between atoms: C_7  and  O_6 
REMARK    5  A    between atoms: C_9  and  C_10 
REMARK    6  A    between atoms: N_15  and  C_14 
REMARK    7  A    between atoms: N_20  and  C_19 
REMARK       I    between atoms: C_22  and  N_20 
ROOT
ATOM      1  C   LIG d   1      11.955  77.462 114.640  0.00  0.00     0.161 C 
ATOM      2  C   LIG d   1      10.689  77.068 114.178  0.00  0.00     0.016 C 
ATOM      3  C   LIG d   1       9.527  77.861 114.318  0.00  0.00     0.038 C 
ATOM      4  C   LIG d   1       9.582  79.178 114.799  0.00  0.00     0.028 C 
ATOM      5  C   LIG d   1      10.753  79.430 115.743  0.00  0.00    -0.047 C 
ATOM      6  C   LIG d   1      12.056  78.942 115.068  0.00  0.00     0.091 C 
ENDROOT
BRANCH   1   7
ATOM      7  O   LIG d   1      12.955  77.158 113.647  0.00  0.00    -0.368 OA
BRANCH   7   8
ATOM      8  C   LIG d   1      13.832  76.045 113.946  0.00  0.00     0.119 C 
BRANCH   8   9
ATOM      9  C   LIG d   1      13.570  75.627 115.406  0.00  0.00     0.028 C 
ATOM     10  C   LIG d   1      13.308  74.119 115.547  0.00  0.00     0.006 C 
ENDBRANCH   8   9
BRANCH   8  11
ATOM     11  C   LIG d   1      15.303  76.467 113.902  0.00  0.00     0.028 C 
ATOM     12  C   LIG d   1      16.215  75.388 113.297  0.00  0.00     0.006 C 
ENDBRANCH   8  11
ENDBRANCH   7   8
ENDBRANCH   1   7
BRANCH   6  13
ATOM     13  N   LIG d   1      13.239  79.073 115.957  0.00  0.00    -0.311 N 
ATOM     14  C   LIG d   1      14.378  79.653 115.581  0.00  0.00     0.210 C 
ATOM     15  C   LIG d   1      15.479  79.665 116.646  0.00  0.00     0.109 C 
ATOM     16  O   LIG d   1      14.569  80.186 114.478  0.00  0.00    -0.276 OA
ATOM     17  H   LIG d   1      13.160  78.696 116.881  0.00  0.00     0.149 HD
ENDBRANCH   6  13
BRANCH   5  18
ATOM     18  N   LIG d   1      10.770  80.871 116.058  0.00  0.00     0.381 N 
ATOM     19  H   LIG d   1       9.930  81.122 116.538  0.00  0.00    -0.090 HD
ATOM     20  H   LIG d   1      10.811  81.391 115.199  0.00  0.00    -0.090 HD
ATOM     21  H   LIG d   1      11.562  81.087 116.623  0.00  0.00    -0.090 HD
ENDBRANCH   5  18
BRANCH   3  22
ATOM     22  C   LIG d   1       8.286  77.324 114.011  0.00  0.00     0.382 C 
ATOM     23  O   LIG d   1       7.243  77.978 114.251  0.00  0.00    -0.241 OA
ATOM     24  O   LIG d   1       8.195  76.174 113.540  0.00  0.00    -0.241 OA
ENDBRANCH   3  22
TORSDOF 7
ENDMDL
MODEL 8
REMARK VINA RESULT:      -4.2     13.291     15.236
REMARK  7 active torsions:
REMARK  status: ('A' for Active; 'I' for Inactive)
REMARK    1  A    between atoms: C_2  and  C_3 
REMARK    2  A    between atoms: C_3  and  O_6 
REMARK    3  A    between atoms: C_3  and  C_4 
REMARK    4  A    between atoms: C_7  and  O_6 
REMARK    5  A    between atoms: C_9  and  C_10 
REMARK    6  A    between atoms: N_15  and  C_14 
REMARK    7  A    between atoms: N_20  and  C_19 
REMARK       I    between atoms: C_22  and  N_20 
ROOT
ATOM      1  C   LIG d   1       2.783  87.086 116.297  0.00  0.00     0.161 C 
ATOM      2  C   LIG d   1       3.524  88.278 116.232  0.00  0.00     0.016 C 
ATOM      3  C   LIG d   1       4.929  88.329 116.378  0.00  0.00     0.038 C 
ATOM      4  C   LIG d   1       5.710  87.167 116.449  0.00  0.00     0.028 C 
ATOM      5  C   LIG d   1       4.963  85.969 117.025  0.00  0.00    -0.047 C 
ATOM      6  C   LIG d   1       3.629  85.796 116.263  0.00  0.00     0.091 C 
ENDROOT
BRANCH   1   7
ATOM      7  O   LIG d   1       1.796  87.065 115.247  0.00  0.00    -0.368 OA
BRANCH   7   8
ATOM      8  C   LIG d   1       2.096  86.223 114.107  0.00  0.00     0.119 C 
BRANCH   8   9
ATOM      9  C   LIG d   1       2.460  87.149 112.930  0.00  0.00     0.028 C 
ATOM     10  C   LIG d   1       3.977  87.370 112.805  0.00  0.00     0.006 C 
ENDBRANCH   8   9
BRANCH   8  11
ATOM     11  C   LIG d   1       0.858  85.449 113.645  0.00  0.00     0.028 C 
ATOM     12  C   LIG d   1       1.209  84.128 112.942  0.00  0.00     0.006 C 
ENDBRANCH   8  11
ENDBRANCH   7   8
ENDBRANCH   1   7
BRANCH   6  13
ATOM     13  N   LIG d   1       2.797  84.697 116.820  0.00  0.00    -0.311 N 
ATOM     14  C   LIG d   1       2.840  83.445 116.370  0.00  0.00     0.210 C 
ATOM     15  C   LIG d   1       1.885  82.472 117.070  0.00  0.00     0.109 C 
ATOM     16  O   LIG d   1       3.603  83.039 115.480  0.00  0.00    -0.276 OA
ATOM     17  H   LIG d   1       2.172  84.932 117.566  0.00  0.00     0.149 HD
ENDBRANCH   6  13
BRANCH   5  18
ATOM     18  N   LIG d   1       5.849  84.795 116.914  0.00  0.00     0.381 N 
ATOM     19  H   LIG d   1       5.334  84.014 116.558  0.00  0.00    -0.090 HD
ATOM     20  H   LIG d   1       6.189  84.557 117.829  0.00  0.00    -0.090 HD
ATOM     21  H   LIG d   1       6.614  85.001 116.310  0.00  0.00    -0.090 HD
ENDBRANCH   5  18
BRANCH   3  22
ATOM     22  C   LIG d   1       5.563  89.557 116.494  0.00  0.00     0.382 C 
ATOM     23  O   LIG d   1       4.890  90.616 116.461  0.00  0.00    -0.241 OA
ATOM     24  O   LIG d   1       6.804  89.621 116.586  0.00  0.00    -0.241 OA
ENDBRANCH   3  22
TORSDOF 7
ENDMDL
MODEL 9
REMARK VINA RESULT:      -4.1     13.076     15.375
REMARK  7 active torsions:
REMARK  status: ('A' for Active; 'I' for Inactive)
REMARK    1  A    between atoms: C_2  and  C_3 
REMARK    2  A    between atoms: C_3  and  O_6 
REMARK    3  A    between atoms: C_3  and  C_4 
REMARK    4  A    between atoms: C_7  and  O_6 
REMARK    5  A    between atoms: C_9  and  C_10 
REMARK    6  A    between atoms: N_15  and  C_14 
REMARK    7  A    between atoms: N_20  and  C_19 
REMARK       I    between atoms: C_22  and  N_20 
ROOT
ATOM      1  C   LIG d   1       2.253  87.255 116.314  0.00  0.00     0.161 C 
ATOM      2  C   LIG d   1       1.411  86.368 115.623  0.00  0.00     0.016 C 
ATOM      3  C   LIG d   1       1.568  86.054 114.253  0.00  0.00     0.038 C 
ATOM      4  C   LIG d   1       2.677  86.493 113.514  0.00  0.00     0.028 C 
ATOM      5  C   LIG d   1       3.276  87.795 114.035  0.00  0.00    -0.047 C 
ATOM      6  C   LIG d   1       3.534  87.657 115.553  0.00  0.00     0.091 C 
ENDROOT
BRANCH   1   7
ATOM      7  O   LIG d   1       2.588  86.706 117.604  0.00  0.00    -0.368 OA
BRANCH   7   8
ATOM      8  C   LIG d   1       2.498  85.265 117.725  0.00  0.00     0.119 C 
BRANCH   8   9
ATOM      9  C   LIG d   1       1.873  84.954 119.099  0.00  0.00     0.028 C 
ATOM     10  C   LIG d   1       0.485  84.303 118.977  0.00  0.00     0.006 C 
ENDBRANCH   8   9
BRANCH   8  11
ATOM     11  C   LIG d   1       3.888  84.621 117.758  0.00  0.00     0.028 C 
ATOM     12  C   LIG d   1       4.321  84.070 116.390  0.00  0.00     0.006 C 
ENDBRANCH   8  11
ENDBRANCH   7   8
ENDBRANCH   1   7
BRANCH   6  13
ATOM     13  N   LIG d   1       4.041  88.915 116.159  0.00  0.00    -0.311 N 
ATOM     14  C   LIG d   1       5.336  89.208 116.265  0.00  0.00     0.210 C 
ATOM     15  C   LIG d   1       5.643  90.549 116.940  0.00  0.00     0.109 C 
ATOM     16  O   LIG d   1       6.259  88.500 115.834  0.00  0.00    -0.276 OA
ATOM     17  H   LIG d   1       3.360  89.561 116.506  0.00  0.00     0.149 HD
ENDBRANCH   6  13
BRANCH   5  18
ATOM     18  N   LIG d   1       4.503  88.062 113.262  0.00  0.00     0.381 N 
ATOM     19  H   LIG d   1       4.520  89.020 112.974  0.00  0.00    -0.090 HD
ATOM     20  H   LIG d   1       4.501  87.486 112.439  0.00  0.00    -0.090 HD
ATOM     21  H   LIG d   1       5.306  87.860 113.816  0.00  0.00    -0.090 HD
ENDBRANCH   5  18
BRANCH   3  22
ATOM     22  C   LIG d   1       0.587  85.326 113.598  0.00  0.00     0.382 C 
ATOM     23  O   LIG d   1       0.669  84.075 113.539  0.00  0.00    -0.241 OA
ATOM     24  O   LIG d   1      -0.355  85.906 113.027  0.00  0.00    -0.241 OA
ENDBRANCH   3  22
TORSDOF 7
ENDMDL
