MODEL 1
REMARK VINA RESULT:      -5.5      0.000      0.000
REMARK  7 active torsions:
REMARK  status: ('A' for Active; 'I' for Inactive)
REMARK    1  A    between atoms: C_2  and  C_3 
REMARK    2  A    between atoms: C_3  and  O_6 
REMARK    3  A    between atoms: C_3  and  C_4 
REMARK    4  A    between atoms: C_7  and  O_6 
REMARK    5  A    between atoms: C_9  and  C_10 
REMARK    6  A    between atoms: N_15  and  C_14 
REMARK    7  A    between atoms: N_20  and  C_19 
REMARK       I    between atoms: C_22  and  N_20 
ROOT
ATOM      1  C   LIG d   1      -4.892  75.451 117.441  0.00  0.00     0.161 C 
ATOM      2  C   LIG d   1      -6.048  76.247 117.495  0.00  0.00     0.016 C 
ATOM      3  C   LIG d   1      -6.049  77.636 117.234  0.00  0.00     0.038 C 
ATOM      4  C   LIG d   1      -4.913  78.301 116.749  0.00  0.00     0.028 C 
ATOM      5  C   LIG d   1      -3.602  77.639 117.163  0.00  0.00    -0.047 C 
ATOM      6  C   LIG d   1      -3.664  76.137 116.806  0.00  0.00     0.091 C 
ENDROOT
BRANCH   1   7
ATOM      7  O   LIG d   1      -5.182  74.214 116.761  0.00  0.00    -0.368 OA
BRANCH   7   8
ATOM      8  C   LIG d   1      -6.261  74.255 115.795  0.00  0.00     0.119 C 
BRANCH   8   9
ATOM      9  C   LIG d   1      -6.978  72.891 115.843  0.00  0.00     0.028 C 
ATOM     10  C   LIG d   1      -6.900  72.236 117.232  0.00  0.00     0.006 C 
ENDBRANCH   8   9
BRANCH   8  11
ATOM     11  C   LIG d   1      -5.725  74.381 114.366  0.00  0.00     0.028 C 
ATOM     12  C   LIG d   1      -5.840  75.810 113.810  0.00  0.00     0.006 C 
ENDBRANCH   8  11
ENDBRANCH   7   8
ENDBRANCH   1   7
BRANCH   6  13
ATOM     13  N   LIG d   1      -2.454  75.398 117.253  0.00  0.00    -0.311 N 
ATOM     14  C   LIG d   1      -1.844  74.474 116.513  0.00  0.00     0.210 C 
ATOM     15  C   LIG d   1      -0.626  73.819 117.171  0.00  0.00     0.109 C 
ATOM     16  O   LIG d   1      -2.177  74.157 115.361  0.00  0.00    -0.276 OA
ATOM     17  H   LIG d   1      -2.098  75.615 118.163  0.00  0.00     0.149 HD
ENDBRANCH   6  13
BRANCH   5  18
ATOM     18  N   LIG d   1      -2.508  78.352 116.478  0.00  0.00     0.381 N 
ATOM     19  H   LIG d   1      -1.896  78.764 117.154  0.00  0.00    -0.090 HD
ATOM     20  H   LIG d   1      -2.900  79.089 115.918  0.00  0.00    -0.090 HD
ATOM     21  H   LIG d   1      -1.998  77.720 115.900  0.00  0.00    -0.090 HD
ENDBRANCH   5  18
BRANCH   3  22
ATOM     22  C   LIG d   1      -7.187  78.384 117.495  0.00  0.00     0.382 C 
ATOM     23  O   LIG d   1      -8.294  77.810 117.642  0.00  0.00    -0.241 OA
ATOM     24  O   LIG d   1      -7.130  79.627 117.542  0.00  0.00    -0.241 OA
ENDBRANCH   3  22
TORSDOF 7
ENDMDL
MODEL 2
REMARK VINA RESULT:      -5.4      2.071      3.129
REMARK  7 active torsions:
REMARK  status: ('A' for Active; 'I' for Inactive)
REMARK    1  A    between atoms: C_2  and  C_3 
REMARK    2  A    between atoms: C_3  and  O_6 
REMARK    3  A    between atoms: C_3  and  C_4 
REMARK    4  A    between atoms: C_7  and  O_6 
REMARK    5  A    between atoms: C_9  and  C_10 
REMARK    6  A    between atoms: N_15  and  C_14 
REMARK    7  A    between atoms: N_20  and  C_19 
REMARK       I    between atoms: C_22  and  N_20 
ROOT
ATOM      1  C   LIG d   1      -6.721  77.111 117.295  0.00  0.00     0.161 C 
ATOM      2  C   LIG d   1      -7.982  77.587 117.692  0.00  0.00     0.016 C 
ATOM      3  C   LIG d   1      -8.231  78.934 118.041  0.00  0.00     0.038 C 
ATOM      4  C   LIG d   1      -7.263  79.935 117.870  0.00  0.00     0.028 C 
ATOM      5  C   LIG d   1      -5.832  79.414 117.953  0.00  0.00    -0.047 C 
ATOM      6  C   LIG d   1      -5.680  78.210 116.996  0.00  0.00     0.091 C 
ENDROOT
BRANCH   1   7
ATOM      7  O   LIG d   1      -6.865  76.235 116.160  0.00  0.00    -0.368 OA
BRANCH   7   8
ATOM      8  C   LIG d   1      -6.378  74.881 116.334  0.00  0.00     0.119 C 
BRANCH   8   9
ATOM      9  C   LIG d   1      -5.824  74.410 114.975  0.00  0.00     0.028 C 
ATOM     10  C   LIG d   1      -5.749  75.550 113.946  0.00  0.00     0.006 C 
ENDBRANCH   8   9
BRANCH   8  11
ATOM     11  C   LIG d   1      -7.521  73.916 116.662  0.00  0.00     0.028 C 
ATOM     12  C   LIG d   1      -7.128  72.442 116.476  0.00  0.00     0.006 C 
ENDBRANCH   8  11
ENDBRANCH   7   8
ENDBRANCH   1   7
BRANCH   6  13
ATOM     13  N   LIG d   1      -4.333  77.587 117.077  0.00  0.00    -0.311 N 
ATOM     14  C   LIG d   1      -3.452  77.613 116.079  0.00  0.00     0.210 C 
ATOM     15  C   LIG d   1      -2.130  76.893 116.364  0.00  0.00     0.109 C 
ATOM     16  O   LIG d   1      -3.627  78.191 114.996  0.00  0.00    -0.276 OA
ATOM     17  H   LIG d   1      -4.096  77.123 117.932  0.00  0.00     0.149 HD
ENDBRANCH   6  13
BRANCH   5  18
ATOM     18  N   LIG d   1      -4.930  80.534 117.621  0.00  0.00     0.381 N 
ATOM     19  H   LIG d   1      -4.459  80.846 118.446  0.00  0.00    -0.090 HD
ATOM     20  H   LIG d   1      -5.477  81.296 117.262  0.00  0.00    -0.090 HD
ATOM     21  H   LIG d   1      -4.264  80.244 116.939  0.00  0.00    -0.090 HD
ENDBRANCH   5  18
BRANCH   3  22
ATOM     22  C   LIG d   1      -9.448  79.285 118.606  0.00  0.00     0.382 C 
ATOM     23  O   LIG d   1     -10.449  78.547 118.444  0.00  0.00    -0.241 OA
ATOM     24  O   LIG d   1      -9.567  80.352 119.237  0.00  0.00    -0.241 OA
ENDBRANCH   3  22
TORSDOF 7
ENDMDL
MODEL 3
REMARK VINA RESULT:      -5.2      2.457      3.306
REMARK  7 active torsions:
REMARK  status: ('A' for Active; 'I' for Inactive)
REMARK    1  A    between atoms: C_2  and  C_3 
REMARK    2  A    between atoms: C_3  and  O_6 
REMARK    3  A    between atoms: C_3  and  C_4 
REMARK    4  A    between atoms: C_7  and  O_6 
REMARK    5  A    between atoms: C_9  and  C_10 
REMARK    6  A    between atoms: N_15  and  C_14 
REMARK    7  A    between atoms: N_20  and  C_19 
REMARK       I    between atoms: C_22  and  N_20 
ROOT
ATOM      1  C   LIG d   1      -3.090  76.535 116.868  0.00  0.00     0.161 C 
ATOM      2  C   LIG d   1      -3.425  77.718 116.188  0.00  0.00     0.016 C 
ATOM      3  C   LIG d   1      -2.561  78.359 115.270  0.00  0.00     0.038 C 
ATOM      4  C   LIG d   1      -1.355  77.774 114.854  0.00  0.00     0.028 C 
ATOM      5  C   LIG d   1      -0.748  76.835 115.891  0.00  0.00    -0.047 C 
ATOM      6  C   LIG d   1      -1.826  75.823 116.343  0.00  0.00     0.091 C 
ENDROOT
BRANCH   1   7
ATOM      7  O   LIG d   1      -4.213  75.632 116.859  0.00  0.00    -0.368 OA
BRANCH   7   8
ATOM      8  C   LIG d   1      -5.309  75.987 115.980  0.00  0.00     0.119 C 
BRANCH   8   9
ATOM      9  C   LIG d   1      -6.620  75.636 116.711  0.00  0.00     0.028 C 
ATOM     10  C   LIG d   1      -6.407  75.389 118.214  0.00  0.00     0.006 C 
ENDBRANCH   8   9
BRANCH   8  11
ATOM     11  C   LIG d   1      -5.308  75.126 114.713  0.00  0.00     0.028 C 
ATOM     12  C   LIG d   1      -6.007  73.772 114.912  0.00  0.00     0.006 C 
ENDBRANCH   8  11
ENDBRANCH   7   8
ENDBRANCH   1   7
BRANCH   6  13
ATOM     13  N   LIG d   1      -1.339  74.920 117.419  0.00  0.00    -0.311 N 
ATOM     14  C   LIG d   1      -0.851  73.702 117.189  0.00  0.00     0.210 C 
ATOM     15  C   LIG d   1      -0.424  72.930 118.441  0.00  0.00     0.109 C 
ATOM     16  O   LIG d   1      -0.701  73.201 116.065  0.00  0.00    -0.276 OA
ATOM     17  H   LIG d   1      -1.395  75.260 118.359  0.00  0.00     0.149 HD
ENDBRANCH   6  13
BRANCH   5  18
ATOM     18  N   LIG d   1       0.427  76.191 115.275  0.00  0.00     0.381 N 
ATOM     19  H   LIG d   1       0.498  76.463 114.315  0.00  0.00    -0.090 HD
ATOM     20  H   LIG d   1       0.308  75.194 115.311  0.00  0.00    -0.090 HD
ATOM     21  H   LIG d   1       1.255  76.452 115.764  0.00  0.00    -0.090 HD
ENDBRANCH   5  18
BRANCH   3  22
ATOM     22  C   LIG d   1      -2.882  79.619 114.789  0.00  0.00     0.382 C 
ATOM     23  O   LIG d   1      -2.674  79.901 113.584  0.00  0.00    -0.241 OA
ATOM     24  O   LIG d   1      -3.336  80.490 115.554  0.00  0.00    -0.241 OA
ENDBRANCH   3  22
TORSDOF 7
ENDMDL
MODEL 4
REMARK VINA RESULT:      -5.1      2.886      6.060
REMARK  7 active torsions:
REMARK  status: ('A' for Active; 'I' for Inactive)
REMARK    1  A    between atoms: C_2  and  C_3 
REMARK    2  A    between atoms: C_3  and  O_6 
REMARK    3  A    between atoms: C_3  and  C_4 
REMARK    4  A    between atoms: C_7  and  O_6 
REMARK    5  A    between atoms: C_9  and  C_10 
REMARK    6  A    between atoms: N_15  and  C_14 
REMARK    7  A    between atoms: N_20  and  C_19 
REMARK       I    between atoms: C_22  and  N_20 
ROOT
ATOM      1  C   LIG d   1      -4.516  77.916 116.446  0.00  0.00     0.161 C 
ATOM      2  C   LIG d   1      -4.668  76.718 115.727  0.00  0.00     0.016 C 
ATOM      3  C   LIG d   1      -5.878  75.989 115.677  0.00  0.00     0.038 C 
ATOM      4  C   LIG d   1      -7.069  76.491 116.222  0.00  0.00     0.028 C 
ATOM      5  C   LIG d   1      -6.846  77.450 117.387  0.00  0.00    -0.047 C 
ATOM      6  C   LIG d   1      -5.834  78.536 116.955  0.00  0.00     0.091 C 
ENDROOT
BRANCH   1   7
ATOM      7  O   LIG d   1      -3.786  78.873 115.652  0.00  0.00    -0.368 OA
BRANCH   7   8
ATOM      8  C   LIG d   1      -2.487  79.263 116.160  0.00  0.00     0.119 C 
BRANCH   8   9
ATOM      9  C   LIG d   1      -2.549  80.770 116.480  0.00  0.00     0.028 C 
ATOM     10  C   LIG d   1      -2.087  81.085 117.913  0.00  0.00     0.006 C 
ENDBRANCH   8   9
BRANCH   8  11
ATOM     11  C   LIG d   1      -1.403  79.120 115.088  0.00  0.00     0.028 C 
ATOM     12  C   LIG d   1      -1.963  78.658 113.733  0.00  0.00     0.006 C 
ENDBRANCH   8  11
ENDBRANCH   7   8
ENDBRANCH   1   7
BRANCH   6  13
ATOM     13  N   LIG d   1      -5.495  79.467 118.063  0.00  0.00    -0.311 N 
ATOM     14  C   LIG d   1      -6.063  80.662 118.216  0.00  0.00     0.210 C 
ATOM     15  C   LIG d   1      -5.554  81.471 119.413  0.00  0.00     0.109 C 
ATOM     16  O   LIG d   1      -6.963  81.115 117.493  0.00  0.00    -0.276 OA
ATOM     17  H   LIG d   1      -4.796  79.166 118.714  0.00  0.00     0.149 HD
ENDBRANCH   6  13
BRANCH   5  18
ATOM     18  N   LIG d   1      -8.159  78.002 117.768  0.00  0.00     0.381 N 
ATOM     19  H   LIG d   1      -8.877  77.587 117.207  0.00  0.00    -0.090 HD
ATOM     20  H   LIG d   1      -8.158  78.992 117.597  0.00  0.00    -0.090 HD
ATOM     21  H   LIG d   1      -8.337  77.824 118.732  0.00  0.00    -0.090 HD
ENDBRANCH   5  18
BRANCH   3  22
ATOM     22  C   LIG d   1      -5.895  74.724 115.110  0.00  0.00     0.382 C 
ATOM     23  O   LIG d   1      -5.393  74.539 113.975  0.00  0.00    -0.241 OA
ATOM     24  O   LIG d   1      -6.445  73.774 115.699  0.00  0.00    -0.241 OA
ENDBRANCH   3  22
TORSDOF 7
ENDMDL
MODEL 5
REMARK VINA RESULT:      -4.9      2.222      5.082
REMARK  7 active torsions:
REMARK  status: ('A' for Active; 'I' for Inactive)
REMARK    1  A    between atoms: C_2  and  C_3 
REMARK    2  A    between atoms: C_3  and  O_6 
REMARK    3  A    between atoms: C_3  and  C_4 
REMARK    4  A    between atoms: C_7  and  O_6 
REMARK    5  A    between atoms: C_9  and  C_10 
REMARK    6  A    between atoms: N_15  and  C_14 
REMARK    7  A    between atoms: N_20  and  C_19 
REMARK       I    between atoms: C_22  and  N_20 
ROOT
ATOM      1  C   LIG d   1      -4.619  75.073 116.724  0.00  0.00     0.161 C 
ATOM      2  C   LIG d   1      -5.398  73.923 116.514  0.00  0.00     0.016 C 
ATOM      3  C   LIG d   1      -6.803  73.896 116.673  0.00  0.00     0.038 C 
ATOM      4  C   LIG d   1      -7.545  75.062 116.907  0.00  0.00     0.028 C 
ATOM      5  C   LIG d   1      -6.754  76.151 117.624  0.00  0.00    -0.047 C 
ATOM      6  C   LIG d   1      -5.423  76.382 116.872  0.00  0.00     0.091 C 
ENDROOT
BRANCH   1   7
ATOM      7  O   LIG d   1      -3.643  75.202 115.671  0.00  0.00    -0.368 OA
BRANCH   7   8
ATOM      8  C   LIG d   1      -2.270  75.392 116.094  0.00  0.00     0.119 C 
BRANCH   8   9
ATOM      9  C   LIG d   1      -1.638  76.438 115.156  0.00  0.00     0.028 C 
ATOM     10  C   LIG d   1      -0.698  77.401 115.900  0.00  0.00     0.006 C 
ENDBRANCH   8   9
BRANCH   8  11
ATOM     11  C   LIG d   1      -1.444  74.118 115.895  0.00  0.00     0.028 C 
ATOM     12  C   LIG d   1      -0.650  73.720 117.150  0.00  0.00     0.006 C 
ENDBRANCH   8  11
ENDBRANCH   7   8
ENDBRANCH   1   7
BRANCH   6  13
ATOM     13  N   LIG d   1      -4.550  77.372 117.555  0.00  0.00    -0.311 N 
ATOM     14  C   LIG d   1      -4.571  78.676 117.286  0.00  0.00     0.210 C 
ATOM     15  C   LIG d   1      -3.576  79.518 118.090  0.00  0.00     0.109 C 
ATOM     16  O   LIG d   1      -5.341  79.220 116.481  0.00  0.00    -0.276 OA
ATOM     17  H   LIG d   1      -3.916  77.021 118.246  0.00  0.00     0.149 HD
ENDBRANCH   6  13
BRANCH   5  18
ATOM     18  N   LIG d   1      -7.603  77.355 117.681  0.00  0.00     0.381 N 
ATOM     19  H   LIG d   1      -7.391  77.881 118.505  0.00  0.00    -0.090 HD
ATOM     20  H   LIG d   1      -8.566  77.072 117.727  0.00  0.00    -0.090 HD
ATOM     21  H   LIG d   1      -7.452  77.917 116.872  0.00  0.00    -0.090 HD
ENDBRANCH   5  18
BRANCH   3  22
ATOM     22  C   LIG d   1      -7.474  72.683 116.636  0.00  0.00     0.382 C 
ATOM     23  O   LIG d   1      -8.727  72.662 116.563  0.00  0.00    -0.241 OA
ATOM     24  O   LIG d   1      -6.847  71.610 116.720  0.00  0.00    -0.241 OA
ENDBRANCH   3  22
TORSDOF 7
ENDMDL
MODEL 6
REMARK VINA RESULT:      -4.7     11.981     14.035
REMARK  7 active torsions:
REMARK  status: ('A' for Active; 'I' for Inactive)
REMARK    1  A    between atoms: C_2  and  C_3 
REMARK    2  A    between atoms: C_3  and  O_6 
REMARK    3  A    between atoms: C_3  and  C_4 
REMARK    4  A    between atoms: C_7  and  O_6 
REMARK    5  A    between atoms: C_9  and  C_10 
REMARK    6  A    between atoms: N_15  and  C_14 
REMARK    7  A    between atoms: N_20  and  C_19 
REMARK       I    between atoms: C_22  and  N_20 
ROOT
ATOM      1  C   LIG d   1       1.144  87.881 115.200  0.00  0.00     0.161 C 
ATOM      2  C   LIG d   1       0.011  87.870 116.032  0.00  0.00     0.016 C 
ATOM      3  C   LIG d   1      -0.234  88.846 117.025  0.00  0.00     0.038 C 
ATOM      4  C   LIG d   1       0.565  89.991 117.153  0.00  0.00     0.028 C 
ATOM      5  C   LIG d   1       1.998  89.786 116.674  0.00  0.00    -0.047 C 
ATOM      6  C   LIG d   1       1.970  89.183 115.250  0.00  0.00     0.091 C 
ENDROOT
BRANCH   1   7
ATOM      7  O   LIG d   1       0.757  87.585 113.844  0.00  0.00    -0.368 OA
BRANCH   7   8
ATOM      8  C   LIG d   1       1.212  86.316 113.314  0.00  0.00     0.119 C 
BRANCH   8   9
ATOM      9  C   LIG d   1      -0.009  85.379 113.241  0.00  0.00     0.028 C 
ATOM     10  C   LIG d   1      -0.013  84.332 114.367  0.00  0.00     0.006 C 
ENDBRANCH   8   9
BRANCH   8  11
ATOM     11  C   LIG d   1       2.192  85.632 114.271  0.00  0.00     0.028 C 
ATOM     12  C   LIG d   1       3.571  85.388 113.639  0.00  0.00     0.006 C 
ENDBRANCH   8  11
ENDBRANCH   7   8
ENDBRANCH   1   7
BRANCH   6  13
ATOM     13  N   LIG d   1       3.330  88.873 114.739  0.00  0.00    -0.311 N 
ATOM     14  C   LIG d   1       3.794  89.317 113.572  0.00  0.00     0.210 C 
ATOM     15  C   LIG d   1       5.216  88.863 113.226  0.00  0.00     0.109 C 
ATOM     16  O   LIG d   1       3.175  90.071 112.806  0.00  0.00    -0.276 OA
ATOM     17  H   LIG d   1       3.912  88.293 115.312  0.00  0.00     0.149 HD
ENDBRANCH   6  13
BRANCH   5  18
ATOM     18  N   LIG d   1       2.680  91.092 116.735  0.00  0.00     0.381 N 
ATOM     19  H   LIG d   1       3.511  91.067 116.178  0.00  0.00    -0.090 HD
ATOM     20  H   LIG d   1       2.944  91.277 117.686  0.00  0.00    -0.090 HD
ATOM     21  H   LIG d   1       2.072  91.810 116.406  0.00  0.00    -0.090 HD
ENDBRANCH   5  18
BRANCH   3  22
ATOM     22  C   LIG d   1      -1.268  88.660 117.930  0.00  0.00     0.382 C 
ATOM     23  O   LIG d   1      -2.443  88.506 117.517  0.00  0.00    -0.241 OA
ATOM     24  O   LIG d   1      -1.048  88.689 119.156  0.00  0.00    -0.241 OA
ENDBRANCH   3  22
TORSDOF 7
ENDMDL
MODEL 7
REMARK VINA RESULT:      -4.6      1.960      4.913
REMARK  7 active torsions:
REMARK  status: ('A' for Active; 'I' for Inactive)
REMARK    1  A    between atoms: C_2  and  C_3 
REMARK    2  A    between atoms: C_3  and  O_6 
REMARK    3  A    between atoms: C_3  and  C_4 
REMARK    4  A    between atoms: C_7  and  O_6 
REMARK    5  A    between atoms: C_9  and  C_10 
REMARK    6  A    between atoms: N_15  and  C_14 
REMARK    7  A    between atoms: N_20  and  C_19 
REMARK       I    between atoms: C_22  and  N_20 
ROOT
ATOM      1  C   LIG d   1      -4.193  75.848 116.747  0.00  0.00     0.161 C 
ATOM      2  C   LIG d   1      -3.261  75.003 116.121  0.00  0.00     0.016 C 
ATOM      3  C   LIG d   1      -1.874  75.038 116.392  0.00  0.00     0.038 C 
ATOM      4  C   LIG d   1      -1.340  75.822 117.425  0.00  0.00     0.028 C 
ATOM      5  C   LIG d   1      -2.174  77.060 117.740  0.00  0.00    -0.047 C 
ATOM      6  C   LIG d   1      -3.644  76.632 117.958  0.00  0.00     0.091 C 
ENDROOT
BRANCH   1   7
ATOM      7  O   LIG d   1      -5.359  75.091 117.128  0.00  0.00    -0.368 OA
BRANCH   7   8
ATOM      8  C   LIG d   1      -6.352  74.886 116.093  0.00  0.00     0.119 C 
BRANCH   8   9
ATOM      9  C   LIG d   1      -7.033  76.243 115.828  0.00  0.00     0.028 C 
ATOM     10  C   LIG d   1      -7.918  76.694 117.002  0.00  0.00     0.006 C 
ENDBRANCH   8   9
BRANCH   8  11
ATOM     11  C   LIG d   1      -7.472  73.957 116.571  0.00  0.00     0.028 C 
ATOM     12  C   LIG d   1      -6.943  72.639 117.159  0.00  0.00     0.006 C 
ENDBRANCH   8  11
ENDBRANCH   7   8
ENDBRANCH   1   7
BRANCH   6  13
ATOM     13  N   LIG d   1      -4.544  77.792 118.188  0.00  0.00    -0.311 N 
ATOM     14  C   LIG d   1      -4.742  78.755 117.289  0.00  0.00     0.210 C 
ATOM     15  C   LIG d   1      -5.693  79.870 117.736  0.00  0.00     0.109 C 
ATOM     16  O   LIG d   1      -4.246  78.776 116.153  0.00  0.00    -0.276 OA
ATOM     17  H   LIG d   1      -5.011  77.839 119.072  0.00  0.00     0.149 HD
ENDBRANCH   6  13
BRANCH   5  18
ATOM     18  N   LIG d   1      -1.580  77.709 118.924  0.00  0.00     0.381 N 
ATOM     19  H   LIG d   1      -1.857  77.221 119.752  0.00  0.00    -0.090 HD
ATOM     20  H   LIG d   1      -1.922  78.651 118.984  0.00  0.00    -0.090 HD
ATOM     21  H   LIG d   1      -0.587  77.712 118.848  0.00  0.00    -0.090 HD
ENDBRANCH   5  18
BRANCH   3  22
ATOM     22  C   LIG d   1      -1.000  74.312 115.597  0.00  0.00     0.382 C 
ATOM     23  O   LIG d   1      -0.550  74.815 114.539  0.00  0.00    -0.241 OA
ATOM     24  O   LIG d   1      -0.691  73.145 115.902  0.00  0.00    -0.241 OA
ENDBRANCH   3  22
TORSDOF 7
ENDMDL
MODEL 8
REMARK VINA RESULT:      -4.5     18.921     21.471
REMARK  7 active torsions:
REMARK  status: ('A' for Active; 'I' for Inactive)
REMARK    1  A    between atoms: C_2  and  C_3 
REMARK    2  A    between atoms: C_3  and  O_6 
REMARK    3  A    between atoms: C_3  and  C_4 
REMARK    4  A    between atoms: C_7  and  O_6 
REMARK    5  A    between atoms: C_9  and  C_10 
REMARK    6  A    between atoms: N_15  and  C_14 
REMARK    7  A    between atoms: N_20  and  C_19 
REMARK       I    between atoms: C_22  and  N_20 
ROOT
ATOM      1  C   LIG d   1     -23.592  83.857 114.906  0.00  0.00     0.161 C 
ATOM      2  C   LIG d   1     -22.608  84.860 114.867  0.00  0.00     0.016 C 
ATOM      3  C   LIG d   1     -22.791  86.104 114.220  0.00  0.00     0.038 C 
ATOM      4  C   LIG d   1     -24.033  86.491 113.695  0.00  0.00     0.028 C 
ATOM      5  C   LIG d   1     -24.903  85.314 113.268  0.00  0.00    -0.047 C 
ATOM      6  C   LIG d   1     -24.991  84.305 114.435  0.00  0.00     0.091 C 
ENDROOT
BRANCH   1   7
ATOM      7  O   LIG d   1     -23.665  83.296 116.232  0.00  0.00    -0.368 OA
BRANCH   7   8
ATOM      8  C   LIG d   1     -22.537  83.565 117.101  0.00  0.00     0.119 C 
BRANCH   8   9
ATOM      9  C   LIG d   1     -21.914  82.208 117.483  0.00  0.00     0.028 C 
ATOM     10  C   LIG d   1     -21.399  82.185 118.932  0.00  0.00     0.006 C 
ENDBRANCH   8   9
BRANCH   8  11
ATOM     11  C   LIG d   1     -22.989  84.190 118.424  0.00  0.00     0.028 C 
ATOM     12  C   LIG d   1     -23.271  85.696 118.306  0.00  0.00     0.006 C 
ENDBRANCH   8  11
ENDBRANCH   7   8
ENDBRANCH   1   7
BRANCH   6  13
ATOM     13  N   LIG d   1     -25.755  83.083 114.072  0.00  0.00    -0.311 N 
ATOM     14  C   LIG d   1     -27.059  82.939 114.302  0.00  0.00     0.210 C 
ATOM     15  C   LIG d   1     -27.648  81.593 113.867  0.00  0.00     0.109 C 
ATOM     16  O   LIG d   1     -27.791  83.810 114.796  0.00  0.00    -0.276 OA
ATOM     17  H   LIG d   1     -25.246  82.338 113.638  0.00  0.00     0.149 HD
ENDBRANCH   6  13
BRANCH   5  18
ATOM     18  N   LIG d   1     -26.217  85.853 112.869  0.00  0.00     0.381 N 
ATOM     19  H   LIG d   1     -26.296  85.850 111.872  0.00  0.00    -0.090 HD
ATOM     20  H   LIG d   1     -26.289  86.804 113.188  0.00  0.00    -0.090 HD
ATOM     21  H   LIG d   1     -26.946  85.305 113.270  0.00  0.00    -0.090 HD
ENDBRANCH   5  18
BRANCH   3  22
ATOM     22  C   LIG d   1     -21.712  86.959 114.059  0.00  0.00     0.382 C 
ATOM     23  O   LIG d   1     -20.741  86.616 113.342  0.00  0.00    -0.241 OA
ATOM     24  O   LIG d   1     -21.676  88.051 114.658  0.00  0.00    -0.241 OA
ENDBRANCH   3  22
TORSDOF 7
ENDMDL
MODEL 9
REMARK VINA RESULT:      -4.4      2.479      5.324
REMARK  7 active torsions:
REMARK  status: ('A' for Active; 'I' for Inactive)
REMARK    1  A    between atoms: C_2  and  C_3 
REMARK    2  A    between atoms: C_3  and  O_6 
REMARK    3  A    between atoms: C_3  and  C_4 
REMARK    4  A    between atoms: C_7  and  O_6 
REMARK    5  A    between atoms: C_9  and  C_10 
REMARK    6  A    between atoms: N_15  and  C_14 
REMARK    7  A    between atoms: N_20  and  C_19 
REMARK       I    between atoms: C_22  and  N_20 
ROOT
ATOM      1  C   LIG d   1      -4.556  76.670 117.671  0.00  0.00     0.161 C 
ATOM      2  C   LIG d   1      -4.887  75.401 117.167  0.00  0.00     0.016 C 
ATOM      3  C   LIG d   1      -6.211  75.002 116.871  0.00  0.00     0.038 C 
ATOM      4  C   LIG d   1      -7.284  75.905 116.916  0.00  0.00     0.028 C 
ATOM      5  C   LIG d   1      -7.072  77.050 117.900  0.00  0.00    -0.047 C 
ATOM      6  C   LIG d   1      -5.700  77.704 117.621  0.00  0.00     0.091 C 
ENDROOT
BRANCH   1   7
ATOM      7  O   LIG d   1      -3.392  77.177 116.989  0.00  0.00    -0.368 OA
BRANCH   7   8
ATOM      8  C   LIG d   1      -3.635  77.863 115.736  0.00  0.00     0.119 C 
BRANCH   8   9
ATOM      9  C   LIG d   1      -2.898  77.083 114.630  0.00  0.00     0.028 C 
ATOM     10  C   LIG d   1      -1.776  76.192 115.188  0.00  0.00     0.006 C 
ENDBRANCH   8   9
BRANCH   8  11
ATOM     11  C   LIG d   1      -3.007  79.260 115.735  0.00  0.00     0.028 C 
ATOM     12  C   LIG d   1      -2.158  79.533 116.987  0.00  0.00     0.006 C 
ENDBRANCH   8  11
ENDBRANCH   7   8
ENDBRANCH   1   7
BRANCH   6  13
ATOM     13  N   LIG d   1      -5.376  78.780 118.594  0.00  0.00    -0.311 N 
ATOM     14  C   LIG d   1      -5.634  80.068 118.375  0.00  0.00     0.210 C 
ATOM     15  C   LIG d   1      -5.201  81.014 119.500  0.00  0.00     0.109 C 
ATOM     16  O   LIG d   1      -6.209  80.513 117.371  0.00  0.00    -0.276 OA
ATOM     17  H   LIG d   1      -4.936  78.503 119.450  0.00  0.00     0.149 HD
ENDBRANCH   6  13
BRANCH   5  18
ATOM     18  N   LIG d   1      -8.201  77.986 117.745  0.00  0.00     0.381 N 
ATOM     19  H   LIG d   1      -7.907  78.788 117.225  0.00  0.00    -0.090 HD
ATOM     20  H   LIG d   1      -8.498  78.291 118.655  0.00  0.00    -0.090 HD
ATOM     21  H   LIG d   1      -8.956  77.535 117.275  0.00  0.00    -0.090 HD
ENDBRANCH   5  18
BRANCH   3  22
ATOM     22  C   LIG d   1      -6.477  73.677 116.563  0.00  0.00     0.382 C 
ATOM     23  O   LIG d   1      -6.586  72.829 117.482  0.00  0.00    -0.241 OA
ATOM     24  O   LIG d   1      -6.566  73.310 115.376  0.00  0.00    -0.241 OA
ENDBRANCH   3  22
TORSDOF 7
ENDMDL
