MODEL 1
REMARK VINA RESULT:      -4.6      0.000      0.000
REMARK  7 active torsions:
REMARK  status: ('A' for Active; 'I' for Inactive)
REMARK    1  A    between atoms: C_2  and  C_3 
REMARK    2  A    between atoms: C_3  and  O_6 
REMARK    3  A    between atoms: C_3  and  C_4 
REMARK    4  A    between atoms: C_7  and  O_6 
REMARK    5  A    between atoms: C_9  and  C_10 
REMARK    6  A    between atoms: N_15  and  C_14 
REMARK    7  A    between atoms: N_20  and  C_19 
REMARK       I    between atoms: C_22  and  N_20 
ROOT
ATOM      1  C   LIG d   1      11.255  78.362 114.308  0.00  0.00     0.161 C 
ATOM      2  C   LIG d   1      10.001  77.821 114.636  0.00  0.00     0.016 C 
ATOM      3  C   LIG d   1       9.784  76.443 114.866  0.00  0.00     0.038 C 
ATOM      4  C   LIG d   1      10.844  75.526 114.931  0.00  0.00     0.028 C 
ATOM      5  C   LIG d   1      12.058  75.945 114.108  0.00  0.00    -0.047 C 
ATOM      6  C   LIG d   1      12.443  77.394 114.483  0.00  0.00     0.091 C 
ENDROOT
BRANCH   1   7
ATOM      7  O   LIG d   1      11.477  79.571 115.061  0.00  0.00    -0.368 OA
BRANCH   7   8
ATOM      8  C   LIG d   1      10.804  80.758 114.575  0.00  0.00     0.119 C 
BRANCH   8   9
ATOM      9  C   LIG d   1      11.296  81.014 113.137  0.00  0.00     0.028 C 
ATOM     10  C   LIG d   1      12.784  81.396 113.085  0.00  0.00     0.006 C 
ENDBRANCH   8   9
BRANCH   8  11
ATOM     11  C   LIG d   1      11.217  81.999 115.371  0.00  0.00     0.028 C 
ATOM     12  C   LIG d   1      10.126  83.081 115.398  0.00  0.00     0.006 C 
ENDBRANCH   8  11
ENDBRANCH   7   8
ENDBRANCH   1   7
BRANCH   6  13
ATOM     13  N   LIG d   1      13.570  77.912 113.664  0.00  0.00    -0.311 N 
ATOM     14  C   LIG d   1      14.698  78.390 114.187  0.00  0.00     0.210 C 
ATOM     15  C   LIG d   1      15.722  78.891 113.164  0.00  0.00     0.109 C 
ATOM     16  O   LIG d   1      14.960  78.416 115.399  0.00  0.00    -0.276 OA
ATOM     17  H   LIG d   1      13.454  77.898 112.669  0.00  0.00     0.149 HD
ENDBRANCH   6  13
BRANCH   5  18
ATOM     18  N   LIG d   1      13.134  74.973 114.376  0.00  0.00     0.381 N 
ATOM     19  H   LIG d   1      13.526  74.655 113.512  0.00  0.00    -0.090 HD
ATOM     20  H   LIG d   1      12.745  74.181 114.856  0.00  0.00    -0.090 HD
ATOM     21  H   LIG d   1      13.843  75.394 114.935  0.00  0.00    -0.090 HD
ENDBRANCH   5  18
BRANCH   3  22
ATOM     22  C   LIG d   1       8.489  75.963 114.993  0.00  0.00     0.382 C 
ATOM     23  O   LIG d   1       7.744  76.403 115.901  0.00  0.00    -0.241 OA
ATOM     24  O   LIG d   1       8.072  75.063 114.240  0.00  0.00    -0.241 OA
ENDBRANCH   3  22
TORSDOF 7
ENDMDL
MODEL 2
REMARK VINA RESULT:      -4.5      3.030      5.508
REMARK  7 active torsions:
REMARK  status: ('A' for Active; 'I' for Inactive)
REMARK    1  A    between atoms: C_2  and  C_3 
REMARK    2  A    between atoms: C_3  and  O_6 
REMARK    3  A    between atoms: C_3  and  C_4 
REMARK    4  A    between atoms: C_7  and  O_6 
REMARK    5  A    between atoms: C_9  and  C_10 
REMARK    6  A    between atoms: N_15  and  C_14 
REMARK    7  A    between atoms: N_20  and  C_19 
REMARK       I    between atoms: C_22  and  N_20 
ROOT
ATOM      1  C   LIG d   1      12.323  75.335 114.802  0.00  0.00     0.161 C 
ATOM      2  C   LIG d   1      13.481  74.660 114.380  0.00  0.00     0.016 C 
ATOM      3  C   LIG d   1      13.556  73.255 114.242  0.00  0.00     0.038 C 
ATOM      4  C   LIG d   1      12.425  72.436 114.372  0.00  0.00     0.028 C 
ATOM      5  C   LIG d   1      11.356  73.020 115.288  0.00  0.00    -0.047 C 
ATOM      6  C   LIG d   1      11.048  74.468 114.841  0.00  0.00     0.091 C 
ENDROOT
BRANCH   1   7
ATOM      7  O   LIG d   1      12.111  76.501 113.982  0.00  0.00    -0.368 OA
BRANCH   7   8
ATOM      8  C   LIG d   1      12.124  77.776 114.671  0.00  0.00     0.119 C 
BRANCH   8   9
ATOM      9  C   LIG d   1      10.794  78.486 114.355  0.00  0.00     0.028 C 
ATOM     10  C   LIG d   1      10.188  79.175 115.589  0.00  0.00     0.006 C 
ENDBRANCH   8   9
BRANCH   8  11
ATOM     11  C   LIG d   1      13.217  78.696 114.120  0.00  0.00     0.028 C 
ATOM     12  C   LIG d   1      13.823  78.181 112.805  0.00  0.00     0.006 C 
ENDBRANCH   8  11
ENDBRANCH   7   8
ENDBRANCH   1   7
BRANCH   6  13
ATOM     13  N   LIG d   1      10.072  75.142 115.737  0.00  0.00    -0.311 N 
ATOM     14  C   LIG d   1       8.848  75.498 115.352  0.00  0.00     0.210 C 
ATOM     15  C   LIG d   1       8.011  76.200 116.426  0.00  0.00     0.109 C 
ATOM     16  O   LIG d   1       8.364  75.271 114.233  0.00  0.00    -0.276 OA
ATOM     17  H   LIG d   1      10.371  75.337 116.672  0.00  0.00     0.149 HD
ENDBRANCH   6  13
BRANCH   5  18
ATOM     18  N   LIG d   1      10.180  72.133 115.224  0.00  0.00     0.381 N 
ATOM     19  H   LIG d   1      10.022  71.847 114.278  0.00  0.00    -0.090 HD
ATOM     20  H   LIG d   1       9.372  72.640 115.539  0.00  0.00    -0.090 HD
ATOM     21  H   LIG d   1      10.324  71.333 115.800  0.00  0.00    -0.090 HD
ENDBRANCH   5  18
BRANCH   3  22
ATOM     22  C   LIG d   1      14.783  72.652 114.009  0.00  0.00     0.382 C 
ATOM     23  O   LIG d   1      15.816  73.356 113.894  0.00  0.00    -0.241 OA
ATOM     24  O   LIG d   1      14.863  71.417 113.868  0.00  0.00    -0.241 OA
ENDBRANCH   3  22
TORSDOF 7
ENDMDL
MODEL 3
REMARK VINA RESULT:      -4.5     12.857     15.854
REMARK  7 active torsions:
REMARK  status: ('A' for Active; 'I' for Inactive)
REMARK    1  A    between atoms: C_2  and  C_3 
REMARK    2  A    between atoms: C_3  and  O_6 
REMARK    3  A    between atoms: C_3  and  C_4 
REMARK    4  A    between atoms: C_7  and  O_6 
REMARK    5  A    between atoms: C_9  and  C_10 
REMARK    6  A    between atoms: N_15  and  C_14 
REMARK    7  A    between atoms: N_20  and  C_19 
REMARK       I    between atoms: C_22  and  N_20 
ROOT
ATOM      1  C   LIG d   1       0.731  88.473 117.322  0.00  0.00     0.161 C 
ATOM      2  C   LIG d   1      -0.567  88.114 117.721  0.00  0.00     0.016 C 
ATOM      3  C   LIG d   1      -1.570  89.056 118.046  0.00  0.00     0.038 C 
ATOM      4  C   LIG d   1      -1.387  90.432 117.846  0.00  0.00     0.028 C 
ATOM      5  C   LIG d   1       0.073  90.867 117.926  0.00  0.00    -0.047 C 
ATOM      6  C   LIG d   1       0.915  89.969 116.992  0.00  0.00     0.091 C 
ENDROOT
BRANCH   1   7
ATOM      7  O   LIG d   1       1.141  87.659 116.205  0.00  0.00    -0.368 OA
BRANCH   7   8
ATOM      8  C   LIG d   1       1.781  86.401 116.534  0.00  0.00     0.119 C 
BRANCH   8   9
ATOM      9  C   LIG d   1       3.260  86.702 116.845  0.00  0.00     0.028 C 
ATOM     10  C   LIG d   1       4.125  86.769 115.575  0.00  0.00     0.006 C 
ENDBRANCH   8   9
BRANCH   8  11
ATOM     11  C   LIG d   1       1.804  85.456 115.330  0.00  0.00     0.028 C 
ATOM     12  C   LIG d   1       0.782  85.843 114.249  0.00  0.00     0.006 C 
ENDBRANCH   8  11
ENDBRANCH   7   8
ENDBRANCH   1   7
BRANCH   6  13
ATOM     13  N   LIG d   1       2.368  90.271 117.073  0.00  0.00    -0.311 N 
ATOM     14  C   LIG d   1       3.166  90.326 116.008  0.00  0.00     0.210 C 
ATOM     15  C   LIG d   1       4.635  90.634 116.316  0.00  0.00     0.109 C 
ATOM     16  O   LIG d   1       2.791  90.181 114.835  0.00  0.00    -0.276 OA
ATOM     17  H   LIG d   1       2.750  90.433 117.984  0.00  0.00     0.149 HD
ENDBRANCH   6  13
BRANCH   5  18
ATOM     18  N   LIG d   1       0.133  92.295 117.564  0.00  0.00     0.381 N 
ATOM     19  H   LIG d   1       0.708  92.416 116.754  0.00  0.00    -0.090 HD
ATOM     20  H   LIG d   1       0.547  92.806 118.324  0.00  0.00    -0.090 HD
ATOM     21  H   LIG d   1      -0.784  92.640 117.383  0.00  0.00    -0.090 HD
ENDBRANCH   5  18
BRANCH   3  22
ATOM     22  C   LIG d   1      -2.759  88.625 118.614  0.00  0.00     0.382 C 
ATOM     23  O   LIG d   1      -2.794  87.547 119.254  0.00  0.00    -0.241 OA
ATOM     24  O   LIG d   1      -3.808  89.280 118.458  0.00  0.00    -0.241 OA
ENDBRANCH   3  22
TORSDOF 7
ENDMDL
MODEL 4
REMARK VINA RESULT:      -4.4      1.819      2.543
REMARK  7 active torsions:
REMARK  status: ('A' for Active; 'I' for Inactive)
REMARK    1  A    between atoms: C_2  and  C_3 
REMARK    2  A    between atoms: C_3  and  O_6 
REMARK    3  A    between atoms: C_3  and  C_4 
REMARK    4  A    between atoms: C_7  and  O_6 
REMARK    5  A    between atoms: C_9  and  C_10 
REMARK    6  A    between atoms: N_15  and  C_14 
REMARK    7  A    between atoms: N_20  and  C_19 
REMARK       I    between atoms: C_22  and  N_20 
ROOT
ATOM      1  C   LIG d   1      10.369  78.764 114.515  0.00  0.00     0.161 C 
ATOM      2  C   LIG d   1       9.579  77.620 114.719  0.00  0.00     0.016 C 
ATOM      3  C   LIG d   1      10.110  76.313 114.812  0.00  0.00     0.038 C 
ATOM      4  C   LIG d   1      11.491  76.076 114.859  0.00  0.00     0.028 C 
ATOM      5  C   LIG d   1      12.315  77.147 114.152  0.00  0.00    -0.047 C 
ATOM      6  C   LIG d   1      11.887  78.537 114.676  0.00  0.00     0.091 C 
ENDROOT
BRANCH   1   7
ATOM      7  O   LIG d   1       9.926  79.825 115.384  0.00  0.00    -0.368 OA
BRANCH   7   8
ATOM      8  C   LIG d   1      10.503  79.843 116.713  0.00  0.00     0.119 C 
BRANCH   8   9
ATOM      9  C   LIG d   1       9.357  79.620 117.719  0.00  0.00     0.028 C 
ATOM     10  C   LIG d   1       9.695  78.545 118.766  0.00  0.00     0.006 C 
ENDBRANCH   8   9
BRANCH   8  11
ATOM     11  C   LIG d   1      11.078  81.222 117.053  0.00  0.00     0.028 C 
ATOM     12  C   LIG d   1      10.876  82.245 115.924  0.00  0.00     0.006 C 
ENDBRANCH   8  11
ENDBRANCH   7   8
ENDBRANCH   1   7
BRANCH   6  13
ATOM     13  N   LIG d   1      12.584  79.646 113.975  0.00  0.00    -0.311 N 
ATOM     14  C   LIG d   1      13.675  80.244 114.452  0.00  0.00     0.210 C 
ATOM     15  C   LIG d   1      14.224  81.378 113.581  0.00  0.00     0.109 C 
ATOM     16  O   LIG d   1      14.260  79.920 115.496  0.00  0.00    -0.276 OA
ATOM     17  H   LIG d   1      12.196  79.951 113.104  0.00  0.00     0.149 HD
ENDBRANCH   6  13
BRANCH   5  18
ATOM     18  N   LIG d   1      13.738  76.849 114.397  0.00  0.00     0.381 N 
ATOM     19  H   LIG d   1      14.119  77.518 115.036  0.00  0.00    -0.090 HD
ATOM     20  H   LIG d   1      14.240  76.922 113.529  0.00  0.00    -0.090 HD
ATOM     21  H   LIG d   1      13.835  75.930 114.769  0.00  0.00    -0.090 HD
ENDBRANCH   5  18
BRANCH   3  22
ATOM     22  C   LIG d   1       9.253  75.223 114.818  0.00  0.00     0.382 C 
ATOM     23  O   LIG d   1       9.648  74.118 115.264  0.00  0.00    -0.241 OA
ATOM     24  O   LIG d   1       8.106  75.318 114.343  0.00  0.00    -0.241 OA
ENDBRANCH   3  22
TORSDOF 7
ENDMDL
MODEL 5
REMARK VINA RESULT:      -4.4      2.384      4.436
REMARK  7 active torsions:
REMARK  status: ('A' for Active; 'I' for Inactive)
REMARK    1  A    between atoms: C_2  and  C_3 
REMARK    2  A    between atoms: C_3  and  O_6 
REMARK    3  A    between atoms: C_3  and  C_4 
REMARK    4  A    between atoms: C_7  and  O_6 
REMARK    5  A    between atoms: C_9  and  C_10 
REMARK    6  A    between atoms: N_15  and  C_14 
REMARK    7  A    between atoms: N_20  and  C_19 
REMARK       I    between atoms: C_22  and  N_20 
ROOT
ATOM      1  C   LIG d   1       9.991  76.237 114.924  0.00  0.00     0.161 C 
ATOM      2  C   LIG d   1       9.962  74.891 115.325  0.00  0.00     0.016 C 
ATOM      3  C   LIG d   1      11.068  74.019 115.202  0.00  0.00     0.038 C 
ATOM      4  C   LIG d   1      12.333  74.477 114.806  0.00  0.00     0.028 C 
ATOM      5  C   LIG d   1      12.278  75.712 113.914  0.00  0.00    -0.047 C 
ATOM      6  C   LIG d   1      11.395  76.784 114.593  0.00  0.00     0.091 C 
ENDROOT
BRANCH   1   7
ATOM      7  O   LIG d   1       9.356  77.059 115.925  0.00  0.00    -0.368 OA
BRANCH   7   8
ATOM      8  C   LIG d   1       8.062  76.607 116.393  0.00  0.00     0.119 C 
BRANCH   8   9
ATOM      9  C   LIG d   1       7.002  77.571 115.825  0.00  0.00     0.028 C 
ATOM     10  C   LIG d   1       5.832  77.797 116.798  0.00  0.00     0.006 C 
ENDBRANCH   8   9
BRANCH   8  11
ATOM     11  C   LIG d   1       7.946  76.729 117.915  0.00  0.00     0.028 C 
ATOM     12  C   LIG d   1       9.290  76.527 118.633  0.00  0.00     0.006 C 
ENDBRANCH   8  11
ENDBRANCH   7   8
ENDBRANCH   1   7
BRANCH   6  13
ATOM     13  N   LIG d   1      11.219  77.993 113.748  0.00  0.00    -0.311 N 
ATOM     14  C   LIG d   1      11.569  79.218 114.139  0.00  0.00     0.210 C 
ATOM     15  C   LIG d   1      11.283  80.327 113.122  0.00  0.00     0.109 C 
ATOM     16  O   LIG d   1      12.117  79.486 115.218  0.00  0.00    -0.276 OA
ATOM     17  H   LIG d   1      10.810  77.862 112.844  0.00  0.00     0.149 HD
ENDBRANCH   6  13
BRANCH   5  18
ATOM     18  N   LIG d   1      13.665  76.163 113.690  0.00  0.00     0.381 N 
ATOM     19  H   LIG d   1      13.915  76.844 114.378  0.00  0.00    -0.090 HD
ATOM     20  H   LIG d   1      13.724  76.593 112.784  0.00  0.00    -0.090 HD
ATOM     21  H   LIG d   1      14.287  75.386 113.738  0.00  0.00    -0.090 HD
ENDBRANCH   5  18
BRANCH   3  22
ATOM     22  C   LIG d   1      10.903  72.662 115.439  0.00  0.00     0.382 C 
ATOM     23  O   LIG d   1      11.719  72.050 116.169  0.00  0.00    -0.241 OA
ATOM     24  O   LIG d   1       9.974  72.035 114.896  0.00  0.00    -0.241 OA
ENDBRANCH   3  22
TORSDOF 7
ENDMDL
MODEL 6
REMARK VINA RESULT:      -4.3     28.728     31.953
REMARK  7 active torsions:
REMARK  status: ('A' for Active; 'I' for Inactive)
REMARK    1  A    between atoms: C_2  and  C_3 
REMARK    2  A    between atoms: C_3  and  O_6 
REMARK    3  A    between atoms: C_3  and  C_4 
REMARK    4  A    between atoms: C_7  and  O_6 
REMARK    5  A    between atoms: C_9  and  C_10 
REMARK    6  A    between atoms: N_15  and  C_14 
REMARK    7  A    between atoms: N_20  and  C_19 
REMARK       I    between atoms: C_22  and  N_20 
ROOT
ATOM      1  C   LIG d   1     -16.061  63.727 117.158  0.00  0.00     0.161 C 
ATOM      2  C   LIG d   1     -15.420  64.855 117.697  0.00  0.00     0.016 C 
ATOM      3  C   LIG d   1     -15.287  66.080 117.004  0.00  0.00     0.038 C 
ATOM      4  C   LIG d   1     -15.923  66.309 115.774  0.00  0.00     0.028 C 
ATOM      5  C   LIG d   1     -16.155  65.037 114.966  0.00  0.00    -0.047 C 
ATOM      6  C   LIG d   1     -16.858  63.993 115.864  0.00  0.00     0.091 C 
ENDROOT
BRANCH   1   7
ATOM      7  O   LIG d   1     -16.911  63.125 118.155  0.00  0.00    -0.368 OA
BRANCH   7   8
ATOM      8  C   LIG d   1     -16.348  62.004 118.879  0.00  0.00     0.119 C 
BRANCH   8   9
ATOM      9  C   LIG d   1     -15.175  61.455 118.044  0.00  0.00     0.028 C 
ATOM     10  C   LIG d   1     -13.865  61.385 118.847  0.00  0.00     0.006 C 
ENDBRANCH   8   9
BRANCH   8  11
ATOM     11  C   LIG d   1     -17.348  60.848 118.980  0.00  0.00     0.028 C 
ATOM     12  C   LIG d   1     -17.564  60.127 117.640  0.00  0.00     0.006 C 
ENDBRANCH   8  11
ENDBRANCH   7   8
ENDBRANCH   1   7
BRANCH   6  13
ATOM     13  N   LIG d   1     -17.046  62.689 115.176  0.00  0.00    -0.311 N 
ATOM     14  C   LIG d   1     -18.153  62.364 114.510  0.00  0.00     0.210 C 
ATOM     15  C   LIG d   1     -18.148  60.963 113.892  0.00  0.00     0.109 C 
ATOM     16  O   LIG d   1     -19.125  63.116 114.345  0.00  0.00    -0.276 OA
ATOM     17  H   LIG d   1     -16.294  62.031 115.233  0.00  0.00     0.149 HD
ENDBRANCH   6  13
BRANCH   5  18
ATOM     18  N   LIG d   1     -16.946  65.403 113.776  0.00  0.00     0.381 N 
ATOM     19  H   LIG d   1     -17.890  65.090 113.888  0.00  0.00    -0.090 HD
ATOM     20  H   LIG d   1     -16.555  64.944 112.972  0.00  0.00    -0.090 HD
ATOM     21  H   LIG d   1     -16.929  66.390 113.646  0.00  0.00    -0.090 HD
ENDBRANCH   5  18
BRANCH   3  22
ATOM     22  C   LIG d   1     -14.477  67.079 117.522  0.00  0.00     0.382 C 
ATOM     23  O   LIG d   1     -13.322  67.251 117.063  0.00  0.00    -0.241 OA
ATOM     24  O   LIG d   1     -14.871  67.782 118.473  0.00  0.00    -0.241 OA
ENDBRANCH   3  22
TORSDOF 7
ENDMDL
MODEL 7
REMARK VINA RESULT:      -4.3      8.674     11.837
REMARK  7 active torsions:
REMARK  status: ('A' for Active; 'I' for Inactive)
REMARK    1  A    between atoms: C_2  and  C_3 
REMARK    2  A    between atoms: C_3  and  O_6 
REMARK    3  A    between atoms: C_3  and  C_4 
REMARK    4  A    between atoms: C_7  and  O_6 
REMARK    5  A    between atoms: C_9  and  C_10 
REMARK    6  A    between atoms: N_15  and  C_14 
REMARK    7  A    between atoms: N_20  and  C_19 
REMARK       I    between atoms: C_22  and  N_20 
ROOT
ATOM      1  C   LIG d   1       3.988  86.021 115.705  0.00  0.00     0.161 C 
ATOM      2  C   LIG d   1       3.542  87.101 114.926  0.00  0.00     0.016 C 
ATOM      3  C   LIG d   1       4.370  88.184 114.550  0.00  0.00     0.038 C 
ATOM      4  C   LIG d   1       5.750  88.185 114.803  0.00  0.00     0.028 C 
ATOM      5  C   LIG d   1       6.142  87.359 116.023  0.00  0.00    -0.047 C 
ATOM      6  C   LIG d   1       5.518  85.950 115.897  0.00  0.00     0.091 C 
ENDROOT
BRANCH   1   7
ATOM      7  O   LIG d   1       3.494  84.784 115.154  0.00  0.00    -0.368 OA
BRANCH   7   8
ATOM      8  C   LIG d   1       2.071  84.551 115.286  0.00  0.00     0.119 C 
BRANCH   8   9
ATOM      9  C   LIG d   1       1.886  83.317 116.191  0.00  0.00     0.028 C 
ATOM     10  C   LIG d   1       1.614  83.698 117.655  0.00  0.00     0.006 C 
ENDBRANCH   8   9
BRANCH   8  11
ATOM     11  C   LIG d   1       1.442  84.168 113.944  0.00  0.00     0.028 C 
ATOM     12  C   LIG d   1       0.591  85.297 113.340  0.00  0.00     0.006 C 
ENDBRANCH   8  11
ENDBRANCH   7   8
ENDBRANCH   1   7
BRANCH   6  13
ATOM     13  N   LIG d   1       5.783  85.104 117.089  0.00  0.00    -0.311 N 
ATOM     14  C   LIG d   1       6.759  84.199 117.144  0.00  0.00     0.210 C 
ATOM     15  C   LIG d   1       6.845  83.420 118.460  0.00  0.00     0.109 C 
ATOM     16  O   LIG d   1       7.581  83.990 116.239  0.00  0.00    -0.276 OA
ATOM     17  H   LIG d   1       5.182  85.230 117.881  0.00  0.00     0.149 HD
ENDBRANCH   6  13
BRANCH   5  18
ATOM     18  N   LIG d   1       7.616  87.334 116.090  0.00  0.00     0.381 N 
ATOM     19  H   LIG d   1       7.999  87.630 115.214  0.00  0.00    -0.090 HD
ATOM     20  H   LIG d   1       7.917  86.391 116.263  0.00  0.00    -0.090 HD
ATOM     21  H   LIG d   1       7.934  87.932 116.820  0.00  0.00    -0.090 HD
ENDBRANCH   5  18
BRANCH   3  22
ATOM     22  C   LIG d   1       3.810  89.301 113.947  0.00  0.00     0.382 C 
ATOM     23  O   LIG d   1       3.209  89.187 112.852  0.00  0.00    -0.241 OA
ATOM     24  O   LIG d   1       3.937  90.427 114.464  0.00  0.00    -0.241 OA
ENDBRANCH   3  22
TORSDOF 7
ENDMDL
MODEL 8
REMARK VINA RESULT:      -4.3      9.870     12.658
REMARK  7 active torsions:
REMARK  status: ('A' for Active; 'I' for Inactive)
REMARK    1  A    between atoms: C_2  and  C_3 
REMARK    2  A    between atoms: C_3  and  O_6 
REMARK    3  A    between atoms: C_3  and  C_4 
REMARK    4  A    between atoms: C_7  and  O_6 
REMARK    5  A    between atoms: C_9  and  C_10 
REMARK    6  A    between atoms: N_15  and  C_14 
REMARK    7  A    between atoms: N_20  and  C_19 
REMARK       I    between atoms: C_22  and  N_20 
ROOT
ATOM      1  C   LIG d   1       3.967  87.523 116.898  0.00  0.00     0.161 C 
ATOM      2  C   LIG d   1       4.722  86.353 116.717  0.00  0.00     0.016 C 
ATOM      3  C   LIG d   1       4.366  85.330 115.808  0.00  0.00     0.038 C 
ATOM      4  C   LIG d   1       3.303  85.478 114.904  0.00  0.00     0.028 C 
ATOM      5  C   LIG d   1       2.214  86.423 115.399  0.00  0.00    -0.047 C 
ATOM      6  C   LIG d   1       2.866  87.753 115.841  0.00  0.00     0.091 C 
ENDROOT
BRANCH   1   7
ATOM      7  O   LIG d   1       4.844  88.665 116.965  0.00  0.00    -0.368 OA
BRANCH   7   8
ATOM      8  C   LIG d   1       6.010  88.624 116.106  0.00  0.00     0.119 C 
BRANCH   8   9
ATOM      9  C   LIG d   1       7.214  89.107 116.938  0.00  0.00     0.028 C 
ATOM     10  C   LIG d   1       8.195  87.969 117.265  0.00  0.00     0.006 C 
ENDBRANCH   8   9
BRANCH   8  11
ATOM     11  C   LIG d   1       5.887  89.624 114.952  0.00  0.00     0.028 C 
ATOM     12  C   LIG d   1       5.640  88.942 113.597  0.00  0.00     0.006 C 
ENDBRANCH   8  11
ENDBRANCH   7   8
ENDBRANCH   1   7
BRANCH   6  13
ATOM     13  N   LIG d   1       1.880  88.704 116.418  0.00  0.00    -0.311 N 
ATOM     14  C   LIG d   1       1.871  90.007 116.145  0.00  0.00     0.210 C 
ATOM     15  C   LIG d   1       0.782  90.811 116.861  0.00  0.00     0.109 C 
ATOM     16  O   LIG d   1       2.642  90.568 115.352  0.00  0.00    -0.276 OA
ATOM     17  H   LIG d   1       1.199  88.328 117.048  0.00  0.00     0.149 HD
ENDBRANCH   6  13
BRANCH   5  18
ATOM     18  N   LIG d   1       1.240  86.593 114.305  0.00  0.00     0.381 N 
ATOM     19  H   LIG d   1       1.113  85.724 113.826  0.00  0.00    -0.090 HD
ATOM     20  H   LIG d   1       1.600  87.264 113.650  0.00  0.00    -0.090 HD
ATOM     21  H   LIG d   1       0.368  86.909 114.670  0.00  0.00    -0.090 HD
ENDBRANCH   5  18
BRANCH   3  22
ATOM     22  C   LIG d   1       5.052  84.125 115.826  0.00  0.00     0.382 C 
ATOM     23  O   LIG d   1       4.420  83.043 115.769  0.00  0.00    -0.241 OA
ATOM     24  O   LIG d   1       6.292  84.106 115.942  0.00  0.00    -0.241 OA
ENDBRANCH   3  22
TORSDOF 7
ENDMDL
MODEL 9
REMARK VINA RESULT:      -4.3     11.693     15.020
REMARK  7 active torsions:
REMARK  status: ('A' for Active; 'I' for Inactive)
REMARK    1  A    between atoms: C_2  and  C_3 
REMARK    2  A    between atoms: C_3  and  O_6 
REMARK    3  A    between atoms: C_3  and  C_4 
REMARK    4  A    between atoms: C_7  and  O_6 
REMARK    5  A    between atoms: C_9  and  C_10 
REMARK    6  A    between atoms: N_15  and  C_14 
REMARK    7  A    between atoms: N_20  and  C_19 
REMARK       I    between atoms: C_22  and  N_20 
ROOT
ATOM      1  C   LIG d   1       3.510  89.417 116.239  0.00  0.00     0.161 C 
ATOM      2  C   LIG d   1       3.842  90.638 116.849  0.00  0.00     0.016 C 
ATOM      3  C   LIG d   1       2.913  91.427 117.566  0.00  0.00     0.038 C 
ATOM      4  C   LIG d   1       1.618  90.971 117.853  0.00  0.00     0.028 C 
ATOM      5  C   LIG d   1       1.087  89.973 116.830  0.00  0.00    -0.047 C 
ATOM      6  C   LIG d   1       2.131  88.850 116.636  0.00  0.00     0.091 C 
ENDROOT
BRANCH   1   7
ATOM      7  O   LIG d   1       4.544  88.446 116.496  0.00  0.00    -0.368 OA
BRANCH   7   8
ATOM      8  C   LIG d   1       5.712  88.518 115.642  0.00  0.00     0.119 C 
BRANCH   8   9
ATOM      9  C   LIG d   1       5.236  88.316 114.190  0.00  0.00     0.028 C 
ATOM     10  C   LIG d   1       5.770  89.403 113.242  0.00  0.00     0.006 C 
ENDBRANCH   8   9
BRANCH   8  11
ATOM     11  C   LIG d   1       6.675  87.359 115.917  0.00  0.00     0.028 C 
ATOM     12  C   LIG d   1       7.787  87.732 116.911  0.00  0.00     0.006 C 
ENDBRANCH   8  11
ENDBRANCH   7   8
ENDBRANCH   1   7
BRANCH   6  13
ATOM     13  N   LIG d   1       1.727  87.876 115.588  0.00  0.00    -0.311 N 
ATOM     14  C   LIG d   1       1.077  86.744 115.852  0.00  0.00     0.210 C 
ATOM     15  C   LIG d   1       0.774  85.872 114.629  0.00  0.00     0.109 C 
ATOM     16  O   LIG d   1       0.693  86.394 116.978  0.00  0.00    -0.276 OA
ATOM     17  H   LIG d   1       1.971  88.096 114.642  0.00  0.00     0.149 HD
ENDBRANCH   6  13
BRANCH   5  18
ATOM     18  N   LIG d   1      -0.211  89.477 117.323  0.00  0.00     0.381 N 
ATOM     19  H   LIG d   1      -0.825  90.248 117.496  0.00  0.00    -0.090 HD
ATOM     20  H   LIG d   1      -0.065  88.990 118.190  0.00  0.00    -0.090 HD
ATOM     21  H   LIG d   1      -0.619  88.862 116.654  0.00  0.00    -0.090 HD
ENDBRANCH   5  18
BRANCH   3  22
ATOM     22  C   LIG d   1       3.266  92.706 117.971  0.00  0.00     0.382 C 
ATOM     23  O   LIG d   1       3.892  93.461 117.189  0.00  0.00    -0.241 OA
ATOM     24  O   LIG d   1       3.005  93.098 119.124  0.00  0.00    -0.241 OA
ENDBRANCH   3  22
TORSDOF 7
ENDMDL
