MODEL 1
REMARK VINA RESULT:      -5.4      0.000      0.000
REMARK  7 active torsions:
REMARK  status: ('A' for Active; 'I' for Inactive)
REMARK    1  A    between atoms: C_2  and  C_3 
REMARK    2  A    between atoms: C_3  and  O_6 
REMARK    3  A    between atoms: C_3  and  C_4 
REMARK    4  A    between atoms: C_7  and  O_6 
REMARK    5  A    between atoms: C_9  and  C_10 
REMARK    6  A    between atoms: N_15  and  C_14 
REMARK    7  A    between atoms: N_20  and  C_19 
REMARK       I    between atoms: C_22  and  N_20 
ROOT
ATOM      1  C   LIG d   1      -7.427  75.354 117.878  0.00  0.00     0.161 C 
ATOM      2  C   LIG d   1      -8.697  75.927 118.056  0.00  0.00     0.016 C 
ATOM      3  C   LIG d   1      -8.914  77.321 118.162  0.00  0.00     0.038 C 
ATOM      4  C   LIG d   1      -7.886  78.250 117.944  0.00  0.00     0.028 C 
ATOM      5  C   LIG d   1      -6.498  77.704 118.262  0.00  0.00    -0.047 C 
ATOM      6  C   LIG d   1      -6.308  76.357 117.526  0.00  0.00     0.091 C 
ENDROOT
BRANCH   1   7
ATOM      7  O   LIG d   1      -7.496  74.313 116.884  0.00  0.00    -0.368 OA
BRANCH   7   8
ATOM      8  C   LIG d   1      -7.483  72.953 117.384  0.00  0.00     0.119 C 
BRANCH   8   9
ATOM      9  C   LIG d   1      -6.573  72.127 116.454  0.00  0.00     0.028 C 
ATOM     10  C   LIG d   1      -5.646  73.011 115.603  0.00  0.00     0.006 C 
ENDBRANCH   8   9
BRANCH   8  11
ATOM     11  C   LIG d   1      -8.867  72.306 117.275  0.00  0.00     0.028 C 
ATOM     12  C   LIG d   1      -8.826  70.779 117.442  0.00  0.00     0.006 C 
ENDBRANCH   8  11
ENDBRANCH   7   8
ENDBRANCH   1   7
BRANCH   6  13
ATOM     13  N   LIG d   1      -5.009  75.713 117.850  0.00  0.00    -0.311 N 
ATOM     14  C   LIG d   1      -3.905  75.883 117.124  0.00  0.00     0.210 C 
ATOM     15  C   LIG d   1      -2.679  75.112 117.621  0.00  0.00     0.109 C 
ATOM     16  O   LIG d   1      -3.817  76.625 116.134  0.00  0.00    -0.276 OA
ATOM     17  H   LIG d   1      -4.982  75.119 118.655  0.00  0.00     0.149 HD
ENDBRANCH   6  13
BRANCH   5  18
ATOM     18  N   LIG d   1      -5.514  78.726 117.860  0.00  0.00     0.381 N 
ATOM     19  H   LIG d   1      -5.979  79.595 117.688  0.00  0.00    -0.090 HD
ATOM     20  H   LIG d   1      -5.070  78.432 117.008  0.00  0.00    -0.090 HD
ATOM     21  H   LIG d   1      -4.831  78.843 118.576  0.00  0.00    -0.090 HD
ENDBRANCH   5  18
BRANCH   3  22
ATOM     22  C   LIG d   1     -10.164  77.795 118.529  0.00  0.00     0.382 C 
ATOM     23  O   LIG d   1     -11.125  76.998 118.656  0.00  0.00    -0.241 OA
ATOM     24  O   LIG d   1     -10.354  79.016 118.692  0.00  0.00    -0.241 OA
ENDBRANCH   3  22
TORSDOF 7
ENDMDL
MODEL 2
REMARK VINA RESULT:      -5.3      2.189      4.291
REMARK  7 active torsions:
REMARK  status: ('A' for Active; 'I' for Inactive)
REMARK    1  A    between atoms: C_2  and  C_3 
REMARK    2  A    between atoms: C_3  and  O_6 
REMARK    3  A    between atoms: C_3  and  C_4 
REMARK    4  A    between atoms: C_7  and  O_6 
REMARK    5  A    between atoms: C_9  and  C_10 
REMARK    6  A    between atoms: N_15  and  C_14 
REMARK    7  A    between atoms: N_20  and  C_19 
REMARK       I    between atoms: C_22  and  N_20 
ROOT
ATOM      1  C   LIG d   1      -6.555  76.166 116.822  0.00  0.00     0.161 C 
ATOM      2  C   LIG d   1      -6.305  77.541 116.962  0.00  0.00     0.016 C 
ATOM      3  C   LIG d   1      -7.100  78.399 117.757  0.00  0.00     0.038 C 
ATOM      4  C   LIG d   1      -8.115  77.908 118.591  0.00  0.00     0.028 C 
ATOM      5  C   LIG d   1      -8.726  76.601 118.097  0.00  0.00    -0.047 C 
ATOM      6  C   LIG d   1      -7.590  75.592 117.812  0.00  0.00     0.091 C 
ENDROOT
BRANCH   1   7
ATOM      7  O   LIG d   1      -5.317  75.433 116.912  0.00  0.00    -0.368 OA
BRANCH   7   8
ATOM      8  C   LIG d   1      -4.541  75.342 115.692  0.00  0.00     0.119 C 
BRANCH   8   9
ATOM      9  C   LIG d   1      -5.264  74.354 114.756  0.00  0.00     0.028 C 
ATOM     10  C   LIG d   1      -5.421  72.959 115.384  0.00  0.00     0.006 C 
ENDBRANCH   8   9
BRANCH   8  11
ATOM     11  C   LIG d   1      -3.165  74.721 115.952  0.00  0.00     0.028 C 
ATOM     12  C   LIG d   1      -2.818  74.645 117.447  0.00  0.00     0.006 C 
ENDBRANCH   8  11
ENDBRANCH   7   8
ENDBRANCH   1   7
BRANCH   6  13
ATOM     13  N   LIG d   1      -8.096  74.315 117.244  0.00  0.00    -0.311 N 
ATOM     14  C   LIG d   1      -8.407  73.255 117.988  0.00  0.00     0.210 C 
ATOM     15  C   LIG d   1      -8.891  72.033 117.201  0.00  0.00     0.109 C 
ATOM     16  O   LIG d   1      -8.360  73.221 119.227  0.00  0.00    -0.276 OA
ATOM     17  H   LIG d   1      -8.194  74.266 116.249  0.00  0.00     0.149 HD
ENDBRANCH   6  13
BRANCH   5  18
ATOM     18  N   LIG d   1      -9.671  76.133 119.129  0.00  0.00     0.381 N 
ATOM     19  H   LIG d   1     -10.407  75.608 118.700  0.00  0.00    -0.090 HD
ATOM     20  H   LIG d   1     -10.076  76.931 119.585  0.00  0.00    -0.090 HD
ATOM     21  H   LIG d   1      -9.194  75.566 119.795  0.00  0.00    -0.090 HD
ENDBRANCH   5  18
BRANCH   3  22
ATOM     22  C   LIG d   1      -6.907  79.771 117.691  0.00  0.00     0.382 C 
ATOM     23  O   LIG d   1      -7.896  80.540 117.631  0.00  0.00    -0.241 OA
ATOM     24  O   LIG d   1      -5.757  80.246 117.648  0.00  0.00    -0.241 OA
ENDBRANCH   3  22
TORSDOF 7
ENDMDL
MODEL 3
REMARK VINA RESULT:      -4.9      2.325      4.994
REMARK  7 active torsions:
REMARK  status: ('A' for Active; 'I' for Inactive)
REMARK    1  A    between atoms: C_2  and  C_3 
REMARK    2  A    between atoms: C_3  and  O_6 
REMARK    3  A    between atoms: C_3  and  C_4 
REMARK    4  A    between atoms: C_7  and  O_6 
REMARK    5  A    between atoms: C_9  and  C_10 
REMARK    6  A    between atoms: N_15  and  C_14 
REMARK    7  A    between atoms: N_20  and  C_19 
REMARK       I    between atoms: C_22  and  N_20 
ROOT
ATOM      1  C   LIG d   1      -5.816  74.525 116.526  0.00  0.00     0.161 C 
ATOM      2  C   LIG d   1      -6.410  73.252 116.506  0.00  0.00     0.016 C 
ATOM      3  C   LIG d   1      -7.580  72.928 117.231  0.00  0.00     0.038 C 
ATOM      4  C   LIG d   1      -8.325  73.903 117.910  0.00  0.00     0.028 C 
ATOM      5  C   LIG d   1      -7.488  75.092 118.372  0.00  0.00    -0.047 C 
ATOM      6  C   LIG d   1      -6.676  75.630 117.173  0.00  0.00     0.091 C 
ENDROOT
BRANCH   1   7
ATOM      7  O   LIG d   1      -5.432  74.906 115.190  0.00  0.00    -0.368 OA
BRANCH   7   8
ATOM      8  C   LIG d   1      -4.008  74.992 114.936  0.00  0.00     0.119 C 
BRANCH   8   9
ATOM      9  C   LIG d   1      -3.281  74.590 116.234  0.00  0.00     0.028 C 
ATOM     10  C   LIG d   1      -1.807  74.223 115.991  0.00  0.00     0.006 C 
ENDBRANCH   8   9
BRANCH   8  11
ATOM     11  C   LIG d   1      -3.577  76.436 114.661  0.00  0.00     0.028 C 
ATOM     12  C   LIG d   1      -3.083  76.646 113.220  0.00  0.00     0.006 C 
ENDBRANCH   8  11
ENDBRANCH   7   8
ENDBRANCH   1   7
BRANCH   6  13
ATOM     13  N   LIG d   1      -5.767  76.741 117.557  0.00  0.00    -0.311 N 
ATOM     14  C   LIG d   1      -6.110  78.027 117.488  0.00  0.00     0.210 C 
ATOM     15  C   LIG d   1      -5.016  79.011 117.913  0.00  0.00     0.109 C 
ATOM     16  O   LIG d   1      -7.227  78.443 117.146  0.00  0.00    -0.276 OA
ATOM     17  H   LIG d   1      -4.851  76.492 117.875  0.00  0.00     0.149 HD
ENDBRANCH   6  13
BRANCH   5  18
ATOM     18  N   LIG d   1      -8.411  76.092 118.942  0.00  0.00     0.381 N 
ATOM     19  H   LIG d   1      -8.391  76.041 119.941  0.00  0.00    -0.090 HD
ATOM     20  H   LIG d   1      -9.345  75.885 118.634  0.00  0.00    -0.090 HD
ATOM     21  H   LIG d   1      -8.150  77.006 118.643  0.00  0.00    -0.090 HD
ENDBRANCH   5  18
BRANCH   3  22
ATOM     22  C   LIG d   1      -7.993  71.607 117.313  0.00  0.00     0.382 C 
ATOM     23  O   LIG d   1      -7.220  70.737 117.782  0.00  0.00    -0.241 OA
ATOM     24  O   LIG d   1      -9.112  71.267 116.884  0.00  0.00    -0.241 OA
ENDBRANCH   3  22
TORSDOF 7
ENDMDL
MODEL 4
REMARK VINA RESULT:      -4.8      4.093      6.124
REMARK  7 active torsions:
REMARK  status: ('A' for Active; 'I' for Inactive)
REMARK    1  A    between atoms: C_2  and  C_3 
REMARK    2  A    between atoms: C_3  and  O_6 
REMARK    3  A    between atoms: C_3  and  C_4 
REMARK    4  A    between atoms: C_7  and  O_6 
REMARK    5  A    between atoms: C_9  and  C_10 
REMARK    6  A    between atoms: N_15  and  C_14 
REMARK    7  A    between atoms: N_20  and  C_19 
REMARK       I    between atoms: C_22  and  N_20 
ROOT
ATOM      1  C   LIG d   1      -2.724  75.452 116.855  0.00  0.00     0.161 C 
ATOM      2  C   LIG d   1      -3.726  74.473 116.954  0.00  0.00     0.016 C 
ATOM      3  C   LIG d   1      -4.635  74.182 115.911  0.00  0.00     0.038 C 
ATOM      4  C   LIG d   1      -4.505  74.749 114.634  0.00  0.00     0.028 C 
ATOM      5  C   LIG d   1      -3.821  76.112 114.643  0.00  0.00    -0.047 C 
ATOM      6  C   LIG d   1      -2.496  76.003 115.431  0.00  0.00     0.091 C 
ENDROOT
BRANCH   1   7
ATOM      7  O   LIG d   1      -1.489  74.944 117.399  0.00  0.00    -0.368 OA
BRANCH   7   8
ATOM      8  C   LIG d   1      -1.273  73.518 117.265  0.00  0.00     0.119 C 
BRANCH   8   9
ATOM      9  C   LIG d   1      -1.055  72.948 118.680  0.00  0.00     0.028 C 
ATOM     10  C   LIG d   1       0.285  72.205 118.813  0.00  0.00     0.006 C 
ENDBRANCH   8   9
BRANCH   8  11
ATOM     11  C   LIG d   1       0.022  73.219 116.504  0.00  0.00     0.028 C 
ATOM     12  C   LIG d   1      -0.153  73.296 114.979  0.00  0.00     0.006 C 
ENDBRANCH   8  11
ENDBRANCH   7   8
ENDBRANCH   1   7
BRANCH   6  13
ATOM     13  N   LIG d   1      -1.804  77.312 115.561  0.00  0.00    -0.311 N 
ATOM     14  C   LIG d   1      -0.849  77.721 114.728  0.00  0.00     0.210 C 
ATOM     15  C   LIG d   1      -0.253  79.095 115.053  0.00  0.00     0.109 C 
ATOM     16  O   LIG d   1      -0.460  77.092 113.733  0.00  0.00    -0.276 OA
ATOM     17  H   LIG d   1      -2.080  77.900 116.323  0.00  0.00     0.149 HD
ENDBRANCH   6  13
BRANCH   5  18
ATOM     18  N   LIG d   1      -3.628  76.523 113.240  0.00  0.00     0.381 N 
ATOM     19  H   LIG d   1      -2.686  76.337 112.960  0.00  0.00    -0.090 HD
ATOM     20  H   LIG d   1      -3.790  77.512 113.166  0.00  0.00    -0.090 HD
ATOM     21  H   LIG d   1      -4.261  76.030 112.650  0.00  0.00    -0.090 HD
ENDBRANCH   5  18
BRANCH   3  22
ATOM     22  C   LIG d   1      -5.713  73.343 116.152  0.00  0.00     0.382 C 
ATOM     23  O   LIG d   1      -5.769  72.219 115.597  0.00  0.00    -0.241 OA
ATOM     24  O   LIG d   1      -6.650  73.714 116.883  0.00  0.00    -0.241 OA
ENDBRANCH   3  22
TORSDOF 7
ENDMDL
MODEL 5
REMARK VINA RESULT:      -4.7      4.026      6.469
REMARK  7 active torsions:
REMARK  status: ('A' for Active; 'I' for Inactive)
REMARK    1  A    between atoms: C_2  and  C_3 
REMARK    2  A    between atoms: C_3  and  O_6 
REMARK    3  A    between atoms: C_3  and  C_4 
REMARK    4  A    between atoms: C_7  and  O_6 
REMARK    5  A    between atoms: C_9  and  C_10 
REMARK    6  A    between atoms: N_15  and  C_14 
REMARK    7  A    between atoms: N_20  and  C_19 
REMARK       I    between atoms: C_22  and  N_20 
ROOT
ATOM      1  C   LIG d   1      -2.423  76.041 116.391  0.00  0.00     0.161 C 
ATOM      2  C   LIG d   1      -2.706  77.125 115.542  0.00  0.00     0.016 C 
ATOM      3  C   LIG d   1      -1.830  77.563 114.522  0.00  0.00     0.038 C 
ATOM      4  C   LIG d   1      -0.672  76.849 114.181  0.00  0.00     0.028 C 
ATOM      5  C   LIG d   1      -0.094  76.043 115.340  0.00  0.00    -0.047 C 
ATOM      6  C   LIG d   1      -1.217  75.181 115.961  0.00  0.00     0.091 C 
ENDROOT
BRANCH   1   7
ATOM      7  O   LIG d   1      -3.597  75.219 116.540  0.00  0.00    -0.368 OA
BRANCH   7   8
ATOM      8  C   LIG d   1      -4.716  75.542 115.677  0.00  0.00     0.119 C 
BRANCH   8   9
ATOM      9  C   LIG d   1      -5.973  75.630 116.564  0.00  0.00     0.028 C 
ATOM     10  C   LIG d   1      -7.199  76.150 115.793  0.00  0.00     0.006 C 
ENDBRANCH   8   9
BRANCH   8  11
ATOM     11  C   LIG d   1      -4.998  74.411 114.684  0.00  0.00     0.028 C 
ATOM     12  C   LIG d   1      -5.329  73.079 115.375  0.00  0.00     0.006 C 
ENDBRANCH   8  11
ENDBRANCH   7   8
ENDBRANCH   1   7
BRANCH   6  13
ATOM     13  N   LIG d   1      -0.756  74.425 117.155  0.00  0.00    -0.311 N 
ATOM     14  C   LIG d   1      -0.258  73.191 117.094  0.00  0.00     0.210 C 
ATOM     15  C   LIG d   1       0.138  72.586 118.444  0.00  0.00     0.109 C 
ATOM     16  O   LIG d   1      -0.077  72.552 116.046  0.00  0.00    -0.276 OA
ATOM     17  H   LIG d   1      -0.838  74.880 118.043  0.00  0.00     0.149 HD
ENDBRANCH   6  13
BRANCH   5  18
ATOM     18  N   LIG d   1       1.026  75.241 114.811  0.00  0.00     0.381 N 
ATOM     19  H   LIG d   1       0.677  74.387 114.424  0.00  0.00    -0.090 HD
ATOM     20  H   LIG d   1       1.648  75.015 115.567  0.00  0.00    -0.090 HD
ATOM     21  H   LIG d   1       1.513  75.757 114.112  0.00  0.00    -0.090 HD
ENDBRANCH   5  18
BRANCH   3  22
ATOM     22  C   LIG d   1      -2.089  78.752 113.858  0.00  0.00     0.382 C 
ATOM     23  O   LIG d   1      -1.301  79.160 112.971  0.00  0.00    -0.241 OA
ATOM     24  O   LIG d   1      -3.078  79.445 114.165  0.00  0.00    -0.241 OA
ENDBRANCH   3  22
TORSDOF 7
ENDMDL
MODEL 6
REMARK VINA RESULT:      -4.7      2.137      4.704
REMARK  7 active torsions:
REMARK  status: ('A' for Active; 'I' for Inactive)
REMARK    1  A    between atoms: C_2  and  C_3 
REMARK    2  A    between atoms: C_3  and  O_6 
REMARK    3  A    between atoms: C_3  and  C_4 
REMARK    4  A    between atoms: C_7  and  O_6 
REMARK    5  A    between atoms: C_9  and  C_10 
REMARK    6  A    between atoms: N_15  and  C_14 
REMARK    7  A    between atoms: N_20  and  C_19 
REMARK       I    between atoms: C_22  and  N_20 
ROOT
ATOM      1  C   LIG d   1      -7.437  76.653 116.663  0.00  0.00     0.161 C 
ATOM      2  C   LIG d   1      -6.760  76.037 115.598  0.00  0.00     0.016 C 
ATOM      3  C   LIG d   1      -5.359  76.109 115.421  0.00  0.00     0.038 C 
ATOM      4  C   LIG d   1      -4.518  76.680 116.388  0.00  0.00     0.028 C 
ATOM      5  C   LIG d   1      -5.202  77.754 117.227  0.00  0.00    -0.047 C 
ATOM      6  C   LIG d   1      -6.525  77.186 117.788  0.00  0.00     0.091 C 
ENDROOT
BRANCH   1   7
ATOM      7  O   LIG d   1      -8.423  75.750 117.203  0.00  0.00    -0.368 OA
BRANCH   7   8
ATOM      8  C   LIG d   1      -7.916  74.674 118.031  0.00  0.00     0.119 C 
BRANCH   8   9
ATOM      9  C   LIG d   1      -8.276  73.347 117.337  0.00  0.00     0.028 C 
ATOM     10  C   LIG d   1      -8.565  72.219 118.342  0.00  0.00     0.006 C 
ENDBRANCH   8   9
BRANCH   8  11
ATOM     11  C   LIG d   1      -8.629  74.631 119.386  0.00  0.00     0.028 C 
ATOM     12  C   LIG d   1      -9.657  75.761 119.555  0.00  0.00     0.006 C 
ENDBRANCH   8  11
ENDBRANCH   7   8
ENDBRANCH   1   7
BRANCH   6  13
ATOM     13  N   LIG d   1      -7.299  78.199 118.552  0.00  0.00    -0.311 N 
ATOM     14  C   LIG d   1      -7.334  79.491 118.229  0.00  0.00     0.210 C 
ATOM     15  C   LIG d   1      -8.177  80.368 119.161  0.00  0.00     0.109 C 
ATOM     16  O   LIG d   1      -6.774  79.988 117.241  0.00  0.00    -0.276 OA
ATOM     17  H   LIG d   1      -7.808  77.877 119.351  0.00  0.00     0.149 HD
ENDBRANCH   6  13
BRANCH   5  18
ATOM     18  N   LIG d   1      -4.256  78.165 118.282  0.00  0.00     0.381 N 
ATOM     19  H   LIG d   1      -3.475  77.540 118.299  0.00  0.00    -0.090 HD
ATOM     20  H   LIG d   1      -4.720  78.115 119.172  0.00  0.00    -0.090 HD
ATOM     21  H   LIG d   1      -3.942  79.096 118.115  0.00  0.00    -0.090 HD
ENDBRANCH   5  18
BRANCH   3  22
ATOM     22  C   LIG d   1      -4.789  75.642 114.247  0.00  0.00     0.382 C 
ATOM     23  O   LIG d   1      -5.023  76.226 113.161  0.00  0.00    -0.241 OA
ATOM     24  O   LIG d   1      -4.081  74.617 114.252  0.00  0.00    -0.241 OA
ENDBRANCH   3  22
TORSDOF 7
ENDMDL
MODEL 7
REMARK VINA RESULT:      -4.6      3.029      4.488
REMARK  7 active torsions:
REMARK  status: ('A' for Active; 'I' for Inactive)
REMARK    1  A    between atoms: C_2  and  C_3 
REMARK    2  A    between atoms: C_3  and  O_6 
REMARK    3  A    between atoms: C_3  and  C_4 
REMARK    4  A    between atoms: C_7  and  O_6 
REMARK    5  A    between atoms: C_9  and  C_10 
REMARK    6  A    between atoms: N_15  and  C_14 
REMARK    7  A    between atoms: N_20  and  C_19 
REMARK       I    between atoms: C_22  and  N_20 
ROOT
ATOM      1  C   LIG d   1      -3.716  75.534 117.338  0.00  0.00     0.161 C 
ATOM      2  C   LIG d   1      -4.574  76.637 117.483  0.00  0.00     0.016 C 
ATOM      3  C   LIG d   1      -4.301  77.911 116.935  0.00  0.00     0.038 C 
ATOM      4  C   LIG d   1      -3.218  78.131 116.071  0.00  0.00     0.028 C 
ATOM      5  C   LIG d   1      -2.052  77.177 116.307  0.00  0.00    -0.047 C 
ATOM      6  C   LIG d   1      -2.584  75.725 116.306  0.00  0.00     0.091 C 
ENDROOT
BRANCH   1   7
ATOM      7  O   LIG d   1      -4.484  74.355 117.026  0.00  0.00    -0.368 OA
BRANCH   7   8
ATOM      8  C   LIG d   1      -5.715  74.572 116.293  0.00  0.00     0.119 C 
BRANCH   8   9
ATOM      9  C   LIG d   1      -6.730  73.514 116.770  0.00  0.00     0.028 C 
ATOM     10  C   LIG d   1      -8.036  74.144 117.282  0.00  0.00     0.006 C 
ENDBRANCH   8   9
BRANCH   8  11
ATOM     11  C   LIG d   1      -5.527  74.307 114.796  0.00  0.00     0.028 C 
ATOM     12  C   LIG d   1      -5.690  75.574 113.942  0.00  0.00     0.006 C 
ENDBRANCH   8  11
ENDBRANCH   7   8
ENDBRANCH   1   7
BRANCH   6  13
ATOM     13  N   LIG d   1      -1.522  74.732 116.613  0.00  0.00    -0.311 N 
ATOM     14  C   LIG d   1      -0.861  74.053 115.678  0.00  0.00     0.210 C 
ATOM     15  C   LIG d   1       0.180  73.064 116.211  0.00  0.00     0.109 C 
ATOM     16  O   LIG d   1      -1.015  74.199 114.456  0.00  0.00    -0.276 OA
ATOM     17  H   LIG d   1      -1.311  74.574 117.579  0.00  0.00     0.149 HD
ENDBRANCH   6  13
BRANCH   5  18
ATOM     18  N   LIG d   1      -1.052  77.426 115.252  0.00  0.00     0.381 N 
ATOM     19  H   LIG d   1      -1.104  78.380 114.955  0.00  0.00    -0.090 HD
ATOM     20  H   LIG d   1      -1.258  76.839 114.463  0.00  0.00    -0.090 HD
ATOM     21  H   LIG d   1      -0.138  77.227 115.594  0.00  0.00    -0.090 HD
ENDBRANCH   5  18
BRANCH   3  22
ATOM     22  C   LIG d   1      -5.097  78.993 117.283  0.00  0.00     0.382 C 
ATOM     23  O   LIG d   1      -4.580  80.006 117.813  0.00  0.00    -0.241 OA
ATOM     24  O   LIG d   1      -6.330  78.950 117.114  0.00  0.00    -0.241 OA
ENDBRANCH   3  22
TORSDOF 7
ENDMDL
MODEL 8
REMARK VINA RESULT:      -4.5     16.665     19.575
REMARK  7 active torsions:
REMARK  status: ('A' for Active; 'I' for Inactive)
REMARK    1  A    between atoms: C_2  and  C_3 
REMARK    2  A    between atoms: C_3  and  O_6 
REMARK    3  A    between atoms: C_3  and  C_4 
REMARK    4  A    between atoms: C_7  and  O_6 
REMARK    5  A    between atoms: C_9  and  C_10 
REMARK    6  A    between atoms: N_15  and  C_14 
REMARK    7  A    between atoms: N_20  and  C_19 
REMARK       I    between atoms: C_22  and  N_20 
ROOT
ATOM      1  C   LIG d   1      11.152  75.851 114.863  0.00  0.00     0.161 C 
ATOM      2  C   LIG d   1      10.972  74.555 115.373  0.00  0.00     0.016 C 
ATOM      3  C   LIG d   1      12.027  73.626 115.529  0.00  0.00     0.038 C 
ATOM      4  C   LIG d   1      13.368  73.986 115.325  0.00  0.00     0.028 C 
ATOM      5  C   LIG d   1      13.544  75.127 114.328  0.00  0.00    -0.047 C 
ATOM      6  C   LIG d   1      12.624  76.299 114.740  0.00  0.00     0.091 C 
ENDROOT
BRANCH   1   7
ATOM      7  O   LIG d   1      10.406  76.796 115.656  0.00  0.00    -0.368 OA
BRANCH   7   8
ATOM      8  C   LIG d   1       9.041  77.040 115.237  0.00  0.00     0.119 C 
BRANCH   8   9
ATOM      9  C   LIG d   1       8.904  78.551 114.964  0.00  0.00     0.028 C 
ATOM     10  C   LIG d   1      10.121  79.350 115.458  0.00  0.00     0.006 C 
ENDBRANCH   8   9
BRANCH   8  11
ATOM     11  C   LIG d   1       8.050  76.742 116.367  0.00  0.00     0.028 C 
ATOM     12  C   LIG d   1       8.744  76.454 117.707  0.00  0.00     0.006 C 
ENDBRANCH   8  11
ENDBRANCH   7   8
ENDBRANCH   1   7
BRANCH   6  13
ATOM     13  N   LIG d   1      12.672  77.425 113.770  0.00  0.00    -0.311 N 
ATOM     14  C   LIG d   1      13.477  78.476 113.907  0.00  0.00     0.210 C 
ATOM     15  C   LIG d   1      13.353  79.533 112.805  0.00  0.00     0.109 C 
ATOM     16  O   LIG d   1      14.305  78.619 114.819  0.00  0.00    -0.276 OA
ATOM     17  H   LIG d   1      12.055  77.375 112.983  0.00  0.00     0.149 HD
ENDBRANCH   6  13
BRANCH   5  18
ATOM     18  N   LIG d   1      14.973  75.491 114.315  0.00  0.00     0.381 N 
ATOM     19  H   LIG d   1      15.289  75.589 113.371  0.00  0.00    -0.090 HD
ATOM     20  H   LIG d   1      15.500  74.753 114.749  0.00  0.00    -0.090 HD
ATOM     21  H   LIG d   1      15.112  76.344 114.810  0.00  0.00    -0.090 HD
ENDBRANCH   5  18
BRANCH   3  22
ATOM     22  C   LIG d   1      11.741  72.309 115.855  0.00  0.00     0.382 C 
ATOM     23  O   LIG d   1      11.500  71.996 117.045  0.00  0.00    -0.241 OA
ATOM     24  O   LIG d   1      11.765  71.423 114.980  0.00  0.00    -0.241 OA
ENDBRANCH   3  22
TORSDOF 7
ENDMDL
MODEL 9
REMARK VINA RESULT:      -4.4      5.180      6.853
REMARK  7 active torsions:
REMARK  status: ('A' for Active; 'I' for Inactive)
REMARK    1  A    between atoms: C_2  and  C_3 
REMARK    2  A    between atoms: C_3  and  O_6 
REMARK    3  A    between atoms: C_3  and  C_4 
REMARK    4  A    between atoms: C_7  and  O_6 
REMARK    5  A    between atoms: C_9  and  C_10 
REMARK    6  A    between atoms: N_15  and  C_14 
REMARK    7  A    between atoms: N_20  and  C_19 
REMARK       I    between atoms: C_22  and  N_20 
ROOT
ATOM      1  C   LIG d   1      -1.418  76.540 116.388  0.00  0.00     0.161 C 
ATOM      2  C   LIG d   1      -2.689  76.044 116.052  0.00  0.00     0.016 C 
ATOM      3  C   LIG d   1      -3.223  76.096 114.744  0.00  0.00     0.038 C 
ATOM      4  C   LIG d   1      -2.457  76.514 113.646  0.00  0.00     0.028 C 
ATOM      5  C   LIG d   1      -1.348  77.492 114.018  0.00  0.00    -0.047 C 
ATOM      6  C   LIG d   1      -0.524  76.897 115.182  0.00  0.00     0.091 C 
ENDROOT
BRANCH   1   7
ATOM      7  O   LIG d   1      -0.742  75.605 117.253  0.00  0.00    -0.368 OA
BRANCH   7   8
ATOM      8  C   LIG d   1      -1.136  74.217 117.123  0.00  0.00     0.119 C 
BRANCH   8   9
ATOM      9  C   LIG d   1      -1.355  73.663 118.544  0.00  0.00     0.028 C 
ATOM     10  C   LIG d   1      -0.391  72.513 118.881  0.00  0.00     0.006 C 
ENDBRANCH   8   9
BRANCH   8  11
ATOM     11  C   LIG d   1      -0.006  73.371 116.528  0.00  0.00     0.028 C 
ATOM     12  C   LIG d   1      -0.079  73.272 114.996  0.00  0.00     0.006 C 
ENDBRANCH   8  11
ENDBRANCH   7   8
ENDBRANCH   1   7
BRANCH   6  13
ATOM     13  N   LIG d   1       0.530  77.828 115.664  0.00  0.00    -0.311 N 
ATOM     14  C   LIG d   1       0.285  79.083 116.036  0.00  0.00     0.210 C 
ATOM     15  C   LIG d   1       1.517  79.878 116.481  0.00  0.00     0.109 C 
ATOM     16  O   LIG d   1      -0.840  79.604 116.071  0.00  0.00    -0.276 OA
ATOM     17  H   LIG d   1       1.467  77.478 115.698  0.00  0.00     0.149 HD
ENDBRANCH   6  13
BRANCH   5  18
ATOM     18  N   LIG d   1      -0.544  77.736 112.806  0.00  0.00     0.381 N 
ATOM     19  H   LIG d   1      -0.332  76.867 112.359  0.00  0.00    -0.090 HD
ATOM     20  H   LIG d   1       0.321  78.173 113.072  0.00  0.00    -0.090 HD
ATOM     21  H   LIG d   1      -1.044  78.327 112.178  0.00  0.00    -0.090 HD
ENDBRANCH   5  18
BRANCH   3  22
ATOM     22  C   LIG d   1      -4.553  75.765 114.532  0.00  0.00     0.382 C 
ATOM     23  O   LIG d   1      -5.462  76.458 115.049  0.00  0.00    -0.241 OA
ATOM     24  O   LIG d   1      -4.854  74.756 113.866  0.00  0.00    -0.241 OA
ENDBRANCH   3  22
TORSDOF 7
ENDMDL
