MODEL 1
REMARK VINA RESULT:      -6.1      0.000      0.000
REMARK  7 active torsions:
REMARK  status: ('A' for Active; 'I' for Inactive)
REMARK    1  A    between atoms: C_2  and  C_3 
REMARK    2  A    between atoms: C_3  and  O_6 
REMARK    3  A    between atoms: C_3  and  C_4 
REMARK    4  A    between atoms: C_7  and  O_6 
REMARK    5  A    between atoms: C_9  and  C_10 
REMARK    6  A    between atoms: N_15  and  C_14 
REMARK    7  A    between atoms: N_20  and  C_19 
REMARK       I    between atoms: C_22  and  N_20 
ROOT
ATOM      1  C   LIG d   1      -7.403  76.350 117.672  0.00  0.00     0.161 C 
ATOM      2  C   LIG d   1      -8.682  76.692 118.143  0.00  0.00     0.016 C 
ATOM      3  C   LIG d   1      -9.074  78.018 118.437  0.00  0.00     0.038 C 
ATOM      4  C   LIG d   1      -8.257  79.117 118.133  0.00  0.00     0.028 C 
ATOM      5  C   LIG d   1      -6.769  78.783 118.127  0.00  0.00    -0.047 C 
ATOM      6  C   LIG d   1      -6.536  77.547 117.229  0.00  0.00     0.091 C 
ENDROOT
BRANCH   1   7
ATOM      7  O   LIG d   1      -7.518  75.391 116.602  0.00  0.00    -0.368 OA
BRANCH   7   8
ATOM      8  C   LIG d   1      -7.519  73.996 116.993  0.00  0.00     0.119 C 
BRANCH   8   9
ATOM      9  C   LIG d   1      -6.689  73.222 115.951  0.00  0.00     0.028 C 
ATOM     10  C   LIG d   1      -5.697  74.127 115.201  0.00  0.00     0.006 C 
ENDBRANCH   8   9
BRANCH   8  11
ATOM     11  C   LIG d   1      -8.926  73.397 116.917  0.00  0.00     0.028 C 
ATOM     12  C   LIG d   1      -8.934  71.963 116.365  0.00  0.00     0.006 C 
ENDBRANCH   8  11
ENDBRANCH   7   8
ENDBRANCH   1   7
BRANCH   6  13
ATOM     13  N   LIG d   1      -5.118  77.101 117.234  0.00  0.00    -0.311 N 
ATOM     14  C   LIG d   1      -4.298  77.251 116.195  0.00  0.00     0.210 C 
ATOM     15  C   LIG d   1      -2.883  76.703 116.404  0.00  0.00     0.109 C 
ATOM     16  O   LIG d   1      -4.600  77.814 115.132  0.00  0.00    -0.276 OA
ATOM     17  H   LIG d   1      -4.781  76.662 118.069  0.00  0.00     0.149 HD
ENDBRANCH   6  13
BRANCH   5  18
ATOM     18  N   LIG d   1      -6.044  79.981 117.662  0.00  0.00     0.381 N 
ATOM     19  H   LIG d   1      -5.062  79.795 117.641  0.00  0.00    -0.090 HD
ATOM     20  H   LIG d   1      -6.210  80.732 118.308  0.00  0.00    -0.090 HD
ATOM     21  H   LIG d   1      -6.361  80.239 116.753  0.00  0.00    -0.090 HD
ENDBRANCH   5  18
BRANCH   3  22
ATOM     22  C   LIG d   1     -10.281  78.252 119.078  0.00  0.00     0.382 C 
ATOM     23  O   LIG d   1     -11.143  77.343 119.142  0.00  0.00    -0.241 OA
ATOM     24  O   LIG d   1     -10.536  79.374 119.555  0.00  0.00    -0.241 OA
ENDBRANCH   3  22
TORSDOF 7
ENDMDL
MODEL 2
REMARK VINA RESULT:      -6.0      3.785      6.673
REMARK  7 active torsions:
REMARK  status: ('A' for Active; 'I' for Inactive)
REMARK    1  A    between atoms: C_2  and  C_3 
REMARK    2  A    between atoms: C_3  and  O_6 
REMARK    3  A    between atoms: C_3  and  C_4 
REMARK    4  A    between atoms: C_7  and  O_6 
REMARK    5  A    between atoms: C_9  and  C_10 
REMARK    6  A    between atoms: N_15  and  C_14 
REMARK    7  A    between atoms: N_20  and  C_19 
REMARK       I    between atoms: C_22  and  N_20 
ROOT
ATOM      1  C   LIG d   1      -2.782  77.643 116.544  0.00  0.00     0.161 C 
ATOM      2  C   LIG d   1      -2.943  78.634 115.561  0.00  0.00     0.016 C 
ATOM      3  C   LIG d   1      -2.118  78.737 114.418  0.00  0.00     0.038 C 
ATOM      4  C   LIG d   1      -1.165  77.758 114.100  0.00  0.00     0.028 C 
ATOM      5  C   LIG d   1      -0.627  77.018 115.320  0.00  0.00    -0.047 C 
ATOM      6  C   LIG d   1      -1.819  76.500 116.158  0.00  0.00     0.091 C 
ENDROOT
BRANCH   1   7
ATOM      7  O   LIG d   1      -4.068  77.110 116.915  0.00  0.00    -0.368 OA
BRANCH   7   8
ATOM      8  C   LIG d   1      -5.212  77.661 116.218  0.00  0.00     0.119 C 
BRANCH   8   9
ATOM      9  C   LIG d   1      -6.169  78.236 117.280  0.00  0.00     0.028 C 
ATOM     10  C   LIG d   1      -7.332  77.281 117.600  0.00  0.00     0.006 C 
ENDBRANCH   8   9
BRANCH   8  11
ATOM     11  C   LIG d   1      -6.010  76.566 115.503  0.00  0.00     0.028 C 
ATOM     12  C   LIG d   1      -5.299  76.034 114.249  0.00  0.00     0.006 C 
ENDBRANCH   8  11
ENDBRANCH   7   8
ENDBRANCH   1   7
BRANCH   6  13
ATOM     13  N   LIG d   1      -1.383  75.837 117.414  0.00  0.00    -0.311 N 
ATOM     14  C   LIG d   1      -1.092  74.539 117.495  0.00  0.00     0.210 C 
ATOM     15  C   LIG d   1      -0.682  74.054 118.889  0.00  0.00     0.109 C 
ATOM     16  O   LIG d   1      -1.105  73.751 116.538  0.00  0.00    -0.276 OA
ATOM     17  H   LIG d   1      -1.316  76.409 118.233  0.00  0.00     0.149 HD
ENDBRANCH   6  13
BRANCH   5  18
ATOM     18  N   LIG d   1       0.251  75.936 114.834  0.00  0.00     0.381 N 
ATOM     19  H   LIG d   1       0.216  75.162 115.467  0.00  0.00    -0.090 HD
ATOM     20  H   LIG d   1       1.196  76.275 114.801  0.00  0.00    -0.090 HD
ATOM     21  H   LIG d   1      -0.037  75.646 113.926  0.00  0.00    -0.090 HD
ENDBRANCH   5  18
BRANCH   3  22
ATOM     22  C   LIG d   1      -2.216  79.852 113.598  0.00  0.00     0.382 C 
ATOM     23  O   LIG d   1      -1.176  80.436 113.208  0.00  0.00    -0.241 OA
ATOM     24  O   LIG d   1      -3.331  80.306 113.280  0.00  0.00    -0.241 OA
ENDBRANCH   3  22
TORSDOF 7
ENDMDL
MODEL 3
REMARK VINA RESULT:      -5.9      2.033      4.734
REMARK  7 active torsions:
REMARK  status: ('A' for Active; 'I' for Inactive)
REMARK    1  A    between atoms: C_2  and  C_3 
REMARK    2  A    between atoms: C_3  and  O_6 
REMARK    3  A    between atoms: C_3  and  C_4 
REMARK    4  A    between atoms: C_7  and  O_6 
REMARK    5  A    between atoms: C_9  and  C_10 
REMARK    6  A    between atoms: N_15  and  C_14 
REMARK    7  A    between atoms: N_20  and  C_19 
REMARK       I    between atoms: C_22  and  N_20 
ROOT
ATOM      1  C   LIG d   1      -7.023  77.175 117.066  0.00  0.00     0.161 C 
ATOM      2  C   LIG d   1      -6.484  76.572 115.918  0.00  0.00     0.016 C 
ATOM      3  C   LIG d   1      -5.169  76.811 115.457  0.00  0.00     0.038 C 
ATOM      4  C   LIG d   1      -4.247  77.559 116.203  0.00  0.00     0.028 C 
ATOM      5  C   LIG d   1      -4.900  78.597 117.109  0.00  0.00    -0.047 C 
ATOM      6  C   LIG d   1      -5.995  77.907 117.954  0.00  0.00     0.091 C 
ENDROOT
BRANCH   1   7
ATOM      7  O   LIG d   1      -7.746  76.197 117.839  0.00  0.00    -0.368 OA
BRANCH   7   8
ATOM      8  C   LIG d   1      -8.402  75.148 117.085  0.00  0.00     0.119 C 
BRANCH   8   9
ATOM      9  C   LIG d   1      -9.911  75.238 117.383  0.00  0.00     0.028 C 
ATOM     10  C   LIG d   1     -10.234  76.282 118.465  0.00  0.00     0.006 C 
ENDBRANCH   8   9
BRANCH   8  11
ATOM     11  C   LIG d   1      -7.975  73.760 117.573  0.00  0.00     0.028 C 
ATOM     12  C   LIG d   1      -7.250  72.945 116.490  0.00  0.00     0.006 C 
ENDBRANCH   8  11
ENDBRANCH   7   8
ENDBRANCH   1   7
BRANCH   6  13
ATOM     13  N   LIG d   1      -6.742  78.868 118.808  0.00  0.00    -0.311 N 
ATOM     14  C   LIG d   1      -6.985  80.129 118.453  0.00  0.00     0.210 C 
ATOM     15  C   LIG d   1      -7.753  80.955 119.488  0.00  0.00     0.109 C 
ATOM     16  O   LIG d   1      -6.664  80.631 117.365  0.00  0.00    -0.276 OA
ATOM     17  H   LIG d   1      -7.065  78.534 119.695  0.00  0.00     0.149 HD
ENDBRANCH   6  13
BRANCH   5  18
ATOM     18  N   LIG d   1      -3.836  79.207 117.928  0.00  0.00     0.381 N 
ATOM     19  H   LIG d   1      -4.222  79.928 118.504  0.00  0.00    -0.090 HD
ATOM     20  H   LIG d   1      -3.153  79.622 117.318  0.00  0.00    -0.090 HD
ATOM     21  H   LIG d   1      -3.404  78.513 118.498  0.00  0.00    -0.090 HD
ENDBRANCH   5  18
BRANCH   3  22
ATOM     22  C   LIG d   1      -4.778  76.331 114.216  0.00  0.00     0.382 C 
ATOM     23  O   LIG d   1      -4.200  77.093 113.403  0.00  0.00    -0.241 OA
ATOM     24  O   LIG d   1      -5.036  75.160 113.882  0.00  0.00    -0.241 OA
ENDBRANCH   3  22
TORSDOF 7
ENDMDL
MODEL 4
REMARK VINA RESULT:      -5.7      2.042      4.651
REMARK  7 active torsions:
REMARK  status: ('A' for Active; 'I' for Inactive)
REMARK    1  A    between atoms: C_2  and  C_3 
REMARK    2  A    between atoms: C_3  and  O_6 
REMARK    3  A    between atoms: C_3  and  C_4 
REMARK    4  A    between atoms: C_7  and  O_6 
REMARK    5  A    between atoms: C_9  and  C_10 
REMARK    6  A    between atoms: N_15  and  C_14 
REMARK    7  A    between atoms: N_20  and  C_19 
REMARK       I    between atoms: C_22  and  N_20 
ROOT
ATOM      1  C   LIG d   1      -6.601  77.253 117.310  0.00  0.00     0.161 C 
ATOM      2  C   LIG d   1      -7.073  75.958 117.036  0.00  0.00     0.016 C 
ATOM      3  C   LIG d   1      -8.369  75.513 117.385  0.00  0.00     0.038 C 
ATOM      4  C   LIG d   1      -9.340  76.385 117.899  0.00  0.00     0.028 C 
ATOM      5  C   LIG d   1      -8.749  77.570 118.657  0.00  0.00    -0.047 C 
ATOM      6  C   LIG d   1      -7.683  78.252 117.769  0.00  0.00     0.091 C 
ENDROOT
BRANCH   1   7
ATOM      7  O   LIG d   1      -5.897  77.769 116.163  0.00  0.00    -0.368 OA
BRANCH   7   8
ATOM      8  C   LIG d   1      -4.481  77.473 116.098  0.00  0.00     0.119 C 
BRANCH   8   9
ATOM      9  C   LIG d   1      -3.723  78.811 116.192  0.00  0.00     0.028 C 
ATOM     10  C   LIG d   1      -2.761  79.026 115.011  0.00  0.00     0.006 C 
ENDBRANCH   8   9
BRANCH   8  11
ATOM     11  C   LIG d   1      -4.096  76.884 114.737  0.00  0.00     0.028 C 
ATOM     12  C   LIG d   1      -5.291  76.263 113.997  0.00  0.00     0.006 C 
ENDBRANCH   8  11
ENDBRANCH   7   8
ENDBRANCH   1   7
BRANCH   6  13
ATOM     13  N   LIG d   1      -6.996  79.370 118.468  0.00  0.00    -0.311 N 
ATOM     14  C   LIG d   1      -7.387  80.640 118.379  0.00  0.00     0.210 C 
ATOM     15  C   LIG d   1      -6.526  81.637 119.162  0.00  0.00     0.109 C 
ATOM     16  O   LIG d   1      -8.383  81.032 117.753  0.00  0.00    -0.276 OA
ATOM     17  H   LIG d   1      -6.196  79.137 119.023  0.00  0.00     0.149 HD
ENDBRANCH   6  13
BRANCH   5  18
ATOM     18  N   LIG d   1      -9.863  78.468 119.017  0.00  0.00     0.381 N 
ATOM     19  H   LIG d   1     -10.585  78.405 118.328  0.00  0.00    -0.090 HD
ATOM     20  H   LIG d   1      -9.524  79.414 119.035  0.00  0.00    -0.090 HD
ATOM     21  H   LIG d   1     -10.225  78.220 119.912  0.00  0.00    -0.090 HD
ENDBRANCH   5  18
BRANCH   3  22
ATOM     22  C   LIG d   1      -8.692  74.170 117.257  0.00  0.00     0.382 C 
ATOM     23  O   LIG d   1      -9.873  73.831 117.005  0.00  0.00    -0.241 OA
ATOM     24  O   LIG d   1      -7.826  73.293 117.433  0.00  0.00    -0.241 OA
ENDBRANCH   3  22
TORSDOF 7
ENDMDL
MODEL 5
REMARK VINA RESULT:      -5.3      1.857      4.758
REMARK  7 active torsions:
REMARK  status: ('A' for Active; 'I' for Inactive)
REMARK    1  A    between atoms: C_2  and  C_3 
REMARK    2  A    between atoms: C_3  and  O_6 
REMARK    3  A    between atoms: C_3  and  C_4 
REMARK    4  A    between atoms: C_7  and  O_6 
REMARK    5  A    between atoms: C_9  and  C_10 
REMARK    6  A    between atoms: N_15  and  C_14 
REMARK    7  A    between atoms: N_20  and  C_19 
REMARK       I    between atoms: C_22  and  N_20 
ROOT
ATOM      1  C   LIG d   1      -7.350  76.176 116.826  0.00  0.00     0.161 C 
ATOM      2  C   LIG d   1      -8.162  75.037 116.954  0.00  0.00     0.016 C 
ATOM      3  C   LIG d   1      -7.765  73.747 116.532  0.00  0.00     0.038 C 
ATOM      4  C   LIG d   1      -6.461  73.481 116.090  0.00  0.00     0.028 C 
ATOM      5  C   LIG d   1      -5.771  74.692 115.472  0.00  0.00    -0.047 C 
ATOM      6  C   LIG d   1      -5.882  75.885 116.448  0.00  0.00     0.091 C 
ENDROOT
BRANCH   1   7
ATOM      7  O   LIG d   1      -7.410  76.957 118.036  0.00  0.00    -0.368 OA
BRANCH   7   8
ATOM      8  C   LIG d   1      -8.617  77.734 118.234  0.00  0.00     0.119 C 
BRANCH   8   9
ATOM      9  C   LIG d   1      -8.189  79.168 118.601  0.00  0.00     0.028 C 
ATOM     10  C   LIG d   1      -6.804  79.530 118.039  0.00  0.00     0.006 C 
ENDBRANCH   8   9
BRANCH   8  11
ATOM     11  C   LIG d   1      -9.415  77.228 119.439  0.00  0.00     0.028 C 
ATOM     12  C   LIG d   1     -10.784  76.649 119.047  0.00  0.00     0.006 C 
ENDBRANCH   8  11
ENDBRANCH   7   8
ENDBRANCH   1   7
BRANCH   6  13
ATOM     13  N   LIG d   1      -5.307  77.134 115.885  0.00  0.00    -0.311 N 
ATOM     14  C   LIG d   1      -4.063  77.544 116.130  0.00  0.00     0.210 C 
ATOM     15  C   LIG d   1      -3.677  78.870 115.466  0.00  0.00     0.109 C 
ATOM     16  O   LIG d   1      -3.233  76.919 116.807  0.00  0.00    -0.276 OA
ATOM     17  H   LIG d   1      -5.902  77.687 115.299  0.00  0.00     0.149 HD
ENDBRANCH   6  13
BRANCH   5  18
ATOM     18  N   LIG d   1      -4.376  74.311 115.181  0.00  0.00     0.381 N 
ATOM     19  H   LIG d   1      -3.818  75.133 115.064  0.00  0.00    -0.090 HD
ATOM     20  H   LIG d   1      -4.354  73.790 114.322  0.00  0.00    -0.090 HD
ATOM     21  H   LIG d   1      -4.012  73.756 115.924  0.00  0.00    -0.090 HD
ENDBRANCH   5  18
BRANCH   3  22
ATOM     22  C   LIG d   1      -8.691  72.715 116.514  0.00  0.00     0.382 C 
ATOM     23  O   LIG d   1      -9.722  72.786 117.224  0.00  0.00    -0.241 OA
ATOM     24  O   LIG d   1      -8.486  71.695 115.830  0.00  0.00    -0.241 OA
ENDBRANCH   3  22
TORSDOF 7
ENDMDL
MODEL 6
REMARK VINA RESULT:      -5.1      1.822      2.951
REMARK  7 active torsions:
REMARK  status: ('A' for Active; 'I' for Inactive)
REMARK    1  A    between atoms: C_2  and  C_3 
REMARK    2  A    between atoms: C_3  and  O_6 
REMARK    3  A    between atoms: C_3  and  C_4 
REMARK    4  A    between atoms: C_7  and  O_6 
REMARK    5  A    between atoms: C_9  and  C_10 
REMARK    6  A    between atoms: N_15  and  C_14 
REMARK    7  A    between atoms: N_20  and  C_19 
REMARK       I    between atoms: C_22  and  N_20 
ROOT
ATOM      1  C   LIG d   1      -5.605  77.215 116.510  0.00  0.00     0.161 C 
ATOM      2  C   LIG d   1      -6.936  76.921 116.852  0.00  0.00     0.016 C 
ATOM      3  C   LIG d   1      -7.703  77.708 117.741  0.00  0.00     0.038 C 
ATOM      4  C   LIG d   1      -7.238  78.935 118.236  0.00  0.00     0.028 C 
ATOM      5  C   LIG d   1      -5.717  79.017 118.319  0.00  0.00    -0.047 C 
ATOM      6  C   LIG d   1      -5.118  78.611 116.953  0.00  0.00     0.091 C 
ENDROOT
BRANCH   1   7
ATOM      7  O   LIG d   1      -5.416  77.045 115.092  0.00  0.00    -0.368 OA
BRANCH   7   8
ATOM      8  C   LIG d   1      -4.582  75.931 114.689  0.00  0.00     0.119 C 
BRANCH   8   9
ATOM      9  C   LIG d   1      -5.515  74.805 114.204  0.00  0.00     0.028 C 
ATOM     10  C   LIG d   1      -5.797  73.763 115.300  0.00  0.00     0.006 C 
ENDBRANCH   8   9
BRANCH   8  11
ATOM     11  C   LIG d   1      -3.823  75.343 115.883  0.00  0.00     0.028 C 
ATOM     12  C   LIG d   1      -2.312  75.226 115.629  0.00  0.00     0.006 C 
ENDBRANCH   8  11
ENDBRANCH   7   8
ENDBRANCH   1   7
BRANCH   6  13
ATOM     13  N   LIG d   1      -3.632  78.583 116.972  0.00  0.00    -0.311 N 
ATOM     14  C   LIG d   1      -2.878  78.964 115.942  0.00  0.00     0.210 C 
ATOM     15  C   LIG d   1      -1.368  78.837 116.164  0.00  0.00     0.109 C 
ATOM     16  O   LIG d   1      -3.316  79.426 114.878  0.00  0.00    -0.276 OA
ATOM     17  H   LIG d   1      -3.193  78.251 117.808  0.00  0.00     0.149 HD
ENDBRANCH   6  13
BRANCH   5  18
ATOM     18  N   LIG d   1      -5.366  80.393 118.718  0.00  0.00     0.381 N 
ATOM     19  H   LIG d   1      -4.940  80.385 119.622  0.00  0.00    -0.090 HD
ATOM     20  H   LIG d   1      -6.207  80.941 118.770  0.00  0.00    -0.090 HD
ATOM     21  H   LIG d   1      -4.742  80.793 118.052  0.00  0.00    -0.090 HD
ENDBRANCH   5  18
BRANCH   3  22
ATOM     22  C   LIG d   1      -8.937  77.247 118.176  0.00  0.00     0.382 C 
ATOM     23  O   LIG d   1      -9.160  76.014 118.238  0.00  0.00    -0.241 OA
ATOM     24  O   LIG d   1      -9.845  78.050 118.464  0.00  0.00    -0.241 OA
ENDBRANCH   3  22
TORSDOF 7
ENDMDL
MODEL 7
REMARK VINA RESULT:      -5.1      2.134      4.868
REMARK  7 active torsions:
REMARK  status: ('A' for Active; 'I' for Inactive)
REMARK    1  A    between atoms: C_2  and  C_3 
REMARK    2  A    between atoms: C_3  and  O_6 
REMARK    3  A    between atoms: C_3  and  C_4 
REMARK    4  A    between atoms: C_7  and  O_6 
REMARK    5  A    between atoms: C_9  and  C_10 
REMARK    6  A    between atoms: N_15  and  C_14 
REMARK    7  A    between atoms: N_20  and  C_19 
REMARK       I    between atoms: C_22  and  N_20 
ROOT
ATOM      1  C   LIG d   1      -6.689  77.590 117.104  0.00  0.00     0.161 C 
ATOM      2  C   LIG d   1      -7.862  76.912 117.474  0.00  0.00     0.016 C 
ATOM      3  C   LIG d   1      -8.124  75.566 117.131  0.00  0.00     0.038 C 
ATOM      4  C   LIG d   1      -7.156  74.754 116.520  0.00  0.00     0.028 C 
ATOM      5  C   LIG d   1      -6.153  75.537 115.680  0.00  0.00    -0.047 C 
ATOM      6  C   LIG d   1      -5.574  76.689 116.533  0.00  0.00     0.091 C 
ENDROOT
BRANCH   1   7
ATOM      7  O   LIG d   1      -6.193  78.354 118.221  0.00  0.00    -0.368 OA
BRANCH   7   8
ATOM      8  C   LIG d   1      -6.124  79.789 118.032  0.00  0.00     0.119 C 
BRANCH   8   9
ATOM      9  C   LIG d   1      -5.022  80.326 118.965  0.00  0.00     0.028 C 
ATOM     10  C   LIG d   1      -3.652  79.686 118.685  0.00  0.00     0.006 C 
ENDBRANCH   8   9
BRANCH   8  11
ATOM     11  C   LIG d   1      -7.415  80.474 118.491  0.00  0.00     0.028 C 
ATOM     12  C   LIG d   1      -7.489  81.949 118.067  0.00  0.00     0.006 C 
ENDBRANCH   8  11
ENDBRANCH   7   8
ENDBRANCH   1   7
BRANCH   6  13
ATOM     13  N   LIG d   1      -4.646  77.555 115.761  0.00  0.00    -0.311 N 
ATOM     14  C   LIG d   1      -3.324  77.393 115.756  0.00  0.00     0.210 C 
ATOM     15  C   LIG d   1      -2.551  78.408 114.909  0.00  0.00     0.109 C 
ATOM     16  O   LIG d   1      -2.721  76.485 116.347  0.00  0.00    -0.276 OA
ATOM     17  H   LIG d   1      -5.053  78.298 115.227  0.00  0.00     0.149 HD
ENDBRANCH   6  13
BRANCH   5  18
ATOM     18  N   LIG d   1      -5.124  74.588 115.215  0.00  0.00     0.381 N 
ATOM     19  H   LIG d   1      -4.946  73.906 115.926  0.00  0.00    -0.090 HD
ATOM     20  H   LIG d   1      -4.272  75.091 115.041  0.00  0.00    -0.090 HD
ATOM     21  H   LIG d   1      -5.428  74.136 114.381  0.00  0.00    -0.090 HD
ENDBRANCH   5  18
BRANCH   3  22
ATOM     22  C   LIG d   1      -9.381  75.029 117.364  0.00  0.00     0.382 C 
ATOM     23  O   LIG d   1      -9.614  73.830 117.078  0.00  0.00    -0.241 OA
ATOM     24  O   LIG d   1     -10.298  75.741 117.816  0.00  0.00    -0.241 OA
ENDBRANCH   3  22
TORSDOF 7
ENDMDL
MODEL 8
REMARK VINA RESULT:      -5.1      2.115      4.422
REMARK  7 active torsions:
REMARK  status: ('A' for Active; 'I' for Inactive)
REMARK    1  A    between atoms: C_2  and  C_3 
REMARK    2  A    between atoms: C_3  and  O_6 
REMARK    3  A    between atoms: C_3  and  C_4 
REMARK    4  A    between atoms: C_7  and  O_6 
REMARK    5  A    between atoms: C_9  and  C_10 
REMARK    6  A    between atoms: N_15  and  C_14 
REMARK    7  A    between atoms: N_20  and  C_19 
REMARK       I    between atoms: C_22  and  N_20 
ROOT
ATOM      1  C   LIG d   1      -6.705  76.743 116.778  0.00  0.00     0.161 C 
ATOM      2  C   LIG d   1      -7.203  77.932 117.337  0.00  0.00     0.016 C 
ATOM      3  C   LIG d   1      -8.431  78.010 118.032  0.00  0.00     0.038 C 
ATOM      4  C   LIG d   1      -9.179  76.866 118.347  0.00  0.00     0.028 C 
ATOM      5  C   LIG d   1      -8.969  75.716 117.368  0.00  0.00    -0.047 C 
ATOM      6  C   LIG d   1      -7.452  75.464 117.208  0.00  0.00     0.091 C 
ENDROOT
BRANCH   1   7
ATOM      7  O   LIG d   1      -5.297  76.621 117.063  0.00  0.00    -0.368 OA
BRANCH   7   8
ATOM      8  C   LIG d   1      -4.399  76.866 115.953  0.00  0.00     0.119 C 
BRANCH   8   9
ATOM      9  C   LIG d   1      -3.990  75.496 115.377  0.00  0.00     0.028 C 
ATOM     10  C   LIG d   1      -2.545  75.115 115.739  0.00  0.00     0.006 C 
ENDBRANCH   8   9
BRANCH   8  11
ATOM     11  C   LIG d   1      -3.093  77.513 116.425  0.00  0.00     0.028 C 
ATOM     12  C   LIG d   1      -2.836  78.880 115.771  0.00  0.00     0.006 C 
ENDBRANCH   8  11
ENDBRANCH   7   8
ENDBRANCH   1   7
BRANCH   6  13
ATOM     13  N   LIG d   1      -7.155  74.410 116.203  0.00  0.00    -0.311 N 
ATOM     14  C   LIG d   1      -7.053  73.117 116.504  0.00  0.00     0.210 C 
ATOM     15  C   LIG d   1      -6.722  72.201 115.322  0.00  0.00     0.109 C 
ATOM     16  O   LIG d   1      -7.237  72.637 117.633  0.00  0.00    -0.276 OA
ATOM     17  H   LIG d   1      -7.022  74.707 115.256  0.00  0.00     0.149 HD
ENDBRANCH   6  13
BRANCH   5  18
ATOM     18  N   LIG d   1      -9.697  74.545 117.892  0.00  0.00     0.381 N 
ATOM     19  H   LIG d   1      -9.097  74.013 118.490  0.00  0.00    -0.090 HD
ATOM     20  H   LIG d   1      -9.972  73.962 117.122  0.00  0.00    -0.090 HD
ATOM     21  H   LIG d   1     -10.503  74.843 118.397  0.00  0.00    -0.090 HD
ENDBRANCH   5  18
BRANCH   3  22
ATOM     22  C   LIG d   1      -8.944  79.249 118.384  0.00  0.00     0.382 C 
ATOM     23  O   LIG d   1     -10.181  79.397 118.532  0.00  0.00    -0.241 OA
ATOM     24  O   LIG d   1      -8.190  80.232 118.512  0.00  0.00    -0.241 OA
ENDBRANCH   3  22
TORSDOF 7
ENDMDL
MODEL 9
REMARK VINA RESULT:      -5.0      4.992      6.356
REMARK  7 active torsions:
REMARK  status: ('A' for Active; 'I' for Inactive)
REMARK    1  A    between atoms: C_2  and  C_3 
REMARK    2  A    between atoms: C_3  and  O_6 
REMARK    3  A    between atoms: C_3  and  C_4 
REMARK    4  A    between atoms: C_7  and  O_6 
REMARK    5  A    between atoms: C_9  and  C_10 
REMARK    6  A    between atoms: N_15  and  C_14 
REMARK    7  A    between atoms: N_20  and  C_19 
REMARK       I    between atoms: C_22  and  N_20 
ROOT
ATOM      1  C   LIG d   1      -3.017  77.479 116.905  0.00  0.00     0.161 C 
ATOM      2  C   LIG d   1      -3.868  76.735 116.072  0.00  0.00     0.016 C 
ATOM      3  C   LIG d   1      -3.938  76.915 114.671  0.00  0.00     0.038 C 
ATOM      4  C   LIG d   1      -3.045  77.752 113.986  0.00  0.00     0.028 C 
ATOM      5  C   LIG d   1      -2.511  78.897 114.841  0.00  0.00    -0.047 C 
ATOM      6  C   LIG d   1      -1.957  78.319 116.163  0.00  0.00     0.091 C 
ENDROOT
BRANCH   1   7
ATOM      7  O   LIG d   1      -2.385  76.606 117.862  0.00  0.00    -0.368 OA
BRANCH   7   8
ATOM      8  C   LIG d   1      -1.177  75.941 117.417  0.00  0.00     0.119 C 
BRANCH   8   9
ATOM      9  C   LIG d   1      -1.602  74.665 116.665  0.00  0.00     0.028 C 
ATOM     10  C   LIG d   1      -1.006  74.592 115.249  0.00  0.00     0.006 C 
ENDBRANCH   8   9
BRANCH   8  11
ATOM     11  C   LIG d   1      -0.340  75.453 118.603  0.00  0.00     0.028 C 
ATOM     12  C   LIG d   1      -0.600  73.978 118.949  0.00  0.00     0.006 C 
ENDBRANCH   8  11
ENDBRANCH   7   8
ENDBRANCH   1   7
BRANCH   6  13
ATOM     13  N   LIG d   1      -1.490  79.379 117.093  0.00  0.00    -0.311 N 
ATOM     14  C   LIG d   1      -0.218  79.525 117.460  0.00  0.00     0.210 C 
ATOM     15  C   LIG d   1       0.044  80.670 118.444  0.00  0.00     0.109 C 
ATOM     16  O   LIG d   1       0.723  78.835 117.040  0.00  0.00    -0.276 OA
ATOM     17  H   LIG d   1      -2.183  80.003 117.458  0.00  0.00     0.149 HD
ENDBRANCH   6  13
BRANCH   5  18
ATOM     18  N   LIG d   1      -1.490  79.606 114.047  0.00  0.00     0.381 N 
ATOM     19  H   LIG d   1      -1.465  79.235 113.118  0.00  0.00    -0.090 HD
ATOM     20  H   LIG d   1      -0.590  79.461 114.470  0.00  0.00    -0.090 HD
ATOM     21  H   LIG d   1      -1.698  80.580 114.017  0.00  0.00    -0.090 HD
ENDBRANCH   5  18
BRANCH   3  22
ATOM     22  C   LIG d   1      -4.936  76.282 113.946  0.00  0.00     0.382 C 
ATOM     23  O   LIG d   1      -5.082  75.039 114.032  0.00  0.00    -0.241 OA
ATOM     24  O   LIG d   1      -5.664  76.933 113.172  0.00  0.00    -0.241 OA
ENDBRANCH   3  22
TORSDOF 7
ENDMDL
