MODEL 1
REMARK VINA RESULT:      -5.3      0.000      0.000
REMARK  7 active torsions:
REMARK  status: ('A' for Active; 'I' for Inactive)
REMARK    1  A    between atoms: C_2  and  C_3 
REMARK    2  A    between atoms: C_3  and  O_6 
REMARK    3  A    between atoms: C_3  and  C_4 
REMARK    4  A    between atoms: C_7  and  O_6 
REMARK    5  A    between atoms: C_9  and  C_10 
REMARK    6  A    between atoms: N_15  and  C_14 
REMARK    7  A    between atoms: N_20  and  C_19 
REMARK       I    between atoms: C_22  and  N_20 
ROOT
ATOM      1  C   LIG d   1      -2.044  76.638 115.317  0.00  0.00     0.161 C 
ATOM      2  C   LIG d   1      -2.015  75.584 116.246  0.00  0.00     0.016 C 
ATOM      3  C   LIG d   1      -0.966  75.394 117.175  0.00  0.00     0.038 C 
ATOM      4  C   LIG d   1       0.058  76.338 117.340  0.00  0.00     0.028 C 
ATOM      5  C   LIG d   1       0.339  77.153 116.082  0.00  0.00    -0.047 C 
ATOM      6  C   LIG d   1      -0.991  77.740 115.557  0.00  0.00     0.091 C 
ENDROOT
BRANCH   1   7
ATOM      7  O   LIG d   1      -3.366  77.210 115.268  0.00  0.00    -0.368 OA
BRANCH   7   8
ATOM      8  C   LIG d   1      -4.367  76.573 116.099  0.00  0.00     0.119 C 
BRANCH   8   9
ATOM      9  C   LIG d   1      -5.545  76.180 115.186  0.00  0.00     0.028 C 
ATOM     10  C   LIG d   1      -5.381  74.771 114.591  0.00  0.00     0.006 C 
ENDBRANCH   8   9
BRANCH   8  11
ATOM     11  C   LIG d   1      -4.954  77.555 117.117  0.00  0.00     0.028 C 
ATOM     12  C   LIG d   1      -6.402  77.956 116.792  0.00  0.00     0.006 C 
ENDBRANCH   8  11
ENDBRANCH   7   8
ENDBRANCH   1   7
BRANCH   6  13
ATOM     13  N   LIG d   1      -0.819  78.483 114.281  0.00  0.00    -0.311 N 
ATOM     14  C   LIG d   1      -0.544  79.785 114.222  0.00  0.00     0.210 C 
ATOM     15  C   LIG d   1      -0.427  80.357 112.806  0.00  0.00     0.109 C 
ATOM     16  O   LIG d   1      -0.356  80.513 115.208  0.00  0.00    -0.276 OA
ATOM     17  H   LIG d   1      -0.924  77.962 113.433  0.00  0.00     0.149 HD
ENDBRANCH   6  13
BRANCH   5  18
ATOM     18  N   LIG d   1       1.329  78.189 116.434  0.00  0.00     0.381 N 
ATOM     19  H   LIG d   1       1.929  77.851 117.161  0.00  0.00    -0.090 HD
ATOM     20  H   LIG d   1       0.844  78.999 116.777  0.00  0.00    -0.090 HD
ATOM     21  H   LIG d   1       1.869  78.431 115.633  0.00  0.00    -0.090 HD
ENDBRANCH   5  18
BRANCH   3  22
ATOM     22  C   LIG d   1      -0.914  74.228 117.923  0.00  0.00     0.382 C 
ATOM     23  O   LIG d   1      -0.816  74.289 119.173  0.00  0.00    -0.241 OA
ATOM     24  O   LIG d   1      -0.920  73.116 117.362  0.00  0.00    -0.241 OA
ENDBRANCH   3  22
TORSDOF 7
ENDMDL
MODEL 2
REMARK VINA RESULT:      -4.9      2.906      4.739
REMARK  7 active torsions:
REMARK  status: ('A' for Active; 'I' for Inactive)
REMARK    1  A    between atoms: C_2  and  C_3 
REMARK    2  A    between atoms: C_3  and  O_6 
REMARK    3  A    between atoms: C_3  and  C_4 
REMARK    4  A    between atoms: C_7  and  O_6 
REMARK    5  A    between atoms: C_9  and  C_10 
REMARK    6  A    between atoms: N_15  and  C_14 
REMARK    7  A    between atoms: N_20  and  C_19 
REMARK       I    between atoms: C_22  and  N_20 
ROOT
ATOM      1  C   LIG d   1      -4.396  76.948 117.190  0.00  0.00     0.161 C 
ATOM      2  C   LIG d   1      -3.505  77.934 117.644  0.00  0.00     0.016 C 
ATOM      3  C   LIG d   1      -2.108  77.877 117.433  0.00  0.00     0.038 C 
ATOM      4  C   LIG d   1      -1.521  76.899 116.616  0.00  0.00     0.028 C 
ATOM      5  C   LIG d   1      -2.319  75.601 116.556  0.00  0.00    -0.047 C 
ATOM      6  C   LIG d   1      -3.788  75.931 116.202  0.00  0.00     0.091 C 
ENDROOT
BRANCH   1   7
ATOM      7  O   LIG d   1      -5.562  77.570 116.614  0.00  0.00    -0.368 OA
BRANCH   7   8
ATOM      8  C   LIG d   1      -6.791  77.443 117.369  0.00  0.00     0.119 C 
BRANCH   8   9
ATOM      9  C   LIG d   1      -7.804  76.692 116.483  0.00  0.00     0.028 C 
ATOM     10  C   LIG d   1      -8.329  75.410 117.150  0.00  0.00     0.006 C 
ENDBRANCH   8   9
BRANCH   8  11
ATOM     11  C   LIG d   1      -7.425  78.812 117.637  0.00  0.00     0.028 C 
ATOM     12  C   LIG d   1      -7.162  79.321 119.063  0.00  0.00     0.006 C 
ENDBRANCH   8  11
ENDBRANCH   7   8
ENDBRANCH   1   7
BRANCH   6  13
ATOM     13  N   LIG d   1      -4.656  74.725 116.205  0.00  0.00    -0.311 N 
ATOM     14  C   LIG d   1      -5.273  74.263 115.119  0.00  0.00     0.210 C 
ATOM     15  C   LIG d   1      -6.136  73.018 115.346  0.00  0.00     0.109 C 
ATOM     16  O   LIG d   1      -5.160  74.746 113.982  0.00  0.00    -0.276 OA
ATOM     17  H   LIG d   1      -4.777  74.253 117.079  0.00  0.00     0.149 HD
ENDBRANCH   6  13
BRANCH   5  18
ATOM     18  N   LIG d   1      -1.669  74.723 115.564  0.00  0.00     0.381 N 
ATOM     19  H   LIG d   1      -0.676  74.750 115.688  0.00  0.00    -0.090 HD
ATOM     20  H   LIG d   1      -1.881  75.061 114.642  0.00  0.00    -0.090 HD
ATOM     21  H   LIG d   1      -1.999  73.789 115.668  0.00  0.00    -0.090 HD
ENDBRANCH   5  18
BRANCH   3  22
ATOM     22  C   LIG d   1      -1.278  78.783 118.075  0.00  0.00     0.382 C 
ATOM     23  O   LIG d   1      -1.313  79.997 117.760  0.00  0.00    -0.241 OA
ATOM     24  O   LIG d   1      -0.464  78.395 118.934  0.00  0.00    -0.241 OA
ENDBRANCH   3  22
TORSDOF 7
ENDMDL
MODEL 3
REMARK VINA RESULT:      -4.7      8.219     11.976
REMARK  7 active torsions:
REMARK  status: ('A' for Active; 'I' for Inactive)
REMARK    1  A    between atoms: C_2  and  C_3 
REMARK    2  A    between atoms: C_3  and  O_6 
REMARK    3  A    between atoms: C_3  and  C_4 
REMARK    4  A    between atoms: C_7  and  O_6 
REMARK    5  A    between atoms: C_9  and  C_10 
REMARK    6  A    between atoms: N_15  and  C_14 
REMARK    7  A    between atoms: N_20  and  C_19 
REMARK       I    between atoms: C_22  and  N_20 
ROOT
ATOM      1  C   LIG d   1       2.121  87.395 115.714  0.00  0.00     0.161 C 
ATOM      2  C   LIG d   1       2.912  88.347 115.049  0.00  0.00     0.016 C 
ATOM      3  C   LIG d   1       3.743  88.035 113.948  0.00  0.00     0.038 C 
ATOM      4  C   LIG d   1       3.725  86.771 113.340  0.00  0.00     0.028 C 
ATOM      5  C   LIG d   1       3.323  85.648 114.290  0.00  0.00    -0.047 C 
ATOM      6  C   LIG d   1       2.004  86.035 114.996  0.00  0.00     0.091 C 
ENDROOT
BRANCH   1   7
ATOM      7  O   LIG d   1       0.812  87.941 115.971  0.00  0.00    -0.368 OA
BRANCH   7   8
ATOM      8  C   LIG d   1       0.502  88.229 117.357  0.00  0.00     0.119 C 
BRANCH   8   9
ATOM      9  C   LIG d   1      -0.624  87.269 117.788  0.00  0.00     0.028 C 
ATOM     10  C   LIG d   1      -1.567  86.912 116.628  0.00  0.00     0.006 C 
ENDBRANCH   8   9
BRANCH   8  11
ATOM     11  C   LIG d   1      -0.080  89.636 117.517  0.00  0.00     0.028 C 
ATOM     12  C   LIG d   1       0.978  90.740 117.366  0.00  0.00     0.006 C 
ENDBRANCH   8  11
ENDBRANCH   7   8
ENDBRANCH   1   7
BRANCH   6  13
ATOM     13  N   LIG d   1       1.584  85.028 116.005  0.00  0.00    -0.311 N 
ATOM     14  C   LIG d   1       0.703  84.061 115.753  0.00  0.00     0.210 C 
ATOM     15  C   LIG d   1       0.396  83.141 116.939  0.00  0.00     0.109 C 
ATOM     16  O   LIG d   1       0.171  83.858 114.651  0.00  0.00    -0.276 OA
ATOM     17  H   LIG d   1       1.990  85.099 116.917  0.00  0.00     0.149 HD
ENDBRANCH   6  13
BRANCH   5  18
ATOM     18  N   LIG d   1       3.212  84.410 113.494  0.00  0.00     0.381 N 
ATOM     19  H   LIG d   1       3.093  84.639 112.528  0.00  0.00    -0.090 HD
ATOM     20  H   LIG d   1       2.402  83.899 113.800  0.00  0.00    -0.090 HD
ATOM     21  H   LIG d   1       4.030  83.853 113.614  0.00  0.00    -0.090 HD
ENDBRANCH   5  18
BRANCH   3  22
ATOM     22  C   LIG d   1       4.635  88.983 113.470  0.00  0.00     0.382 C 
ATOM     23  O   LIG d   1       5.747  88.624 113.013  0.00  0.00    -0.241 OA
ATOM     24  O   LIG d   1       4.360  90.197 113.532  0.00  0.00    -0.241 OA
ENDBRANCH   3  22
TORSDOF 7
ENDMDL
MODEL 4
REMARK VINA RESULT:      -4.6      9.798     12.721
REMARK  7 active torsions:
REMARK  status: ('A' for Active; 'I' for Inactive)
REMARK    1  A    between atoms: C_2  and  C_3 
REMARK    2  A    between atoms: C_3  and  O_6 
REMARK    3  A    between atoms: C_3  and  C_4 
REMARK    4  A    between atoms: C_7  and  O_6 
REMARK    5  A    between atoms: C_9  and  C_10 
REMARK    6  A    between atoms: N_15  and  C_14 
REMARK    7  A    between atoms: N_20  and  C_19 
REMARK       I    between atoms: C_22  and  N_20 
ROOT
ATOM      1  C   LIG d   1       1.988  88.399 116.170  0.00  0.00     0.161 C 
ATOM      2  C   LIG d   1       2.642  89.513 116.722  0.00  0.00     0.016 C 
ATOM      3  C   LIG d   1       3.814  90.080 116.172  0.00  0.00     0.038 C 
ATOM      4  C   LIG d   1       4.331  89.660 114.937  0.00  0.00     0.028 C 
ATOM      5  C   LIG d   1       3.996  88.211 114.601  0.00  0.00    -0.047 C 
ATOM      6  C   LIG d   1       2.474  87.997 114.762  0.00  0.00     0.091 C 
ENDROOT
BRANCH   1   7
ATOM      7  O   LIG d   1       0.564  88.620 116.165  0.00  0.00    -0.368 OA
BRANCH   7   8
ATOM      8  C   LIG d   1      -0.181  88.003 117.244  0.00  0.00     0.119 C 
BRANCH   8   9
ATOM      9  C   LIG d   1      -0.853  86.738 116.678  0.00  0.00     0.028 C 
ATOM     10  C   LIG d   1      -0.192  85.445 117.186  0.00  0.00     0.006 C 
ENDBRANCH   8   9
BRANCH   8  11
ATOM     11  C   LIG d   1      -1.332  88.900 117.709  0.00  0.00     0.028 C 
ATOM     12  C   LIG d   1      -2.274  88.195 118.698  0.00  0.00     0.006 C 
ENDBRANCH   8  11
ENDBRANCH   7   8
ENDBRANCH   1   7
BRANCH   6  13
ATOM     13  N   LIG d   1       2.073  86.584 114.534  0.00  0.00    -0.311 N 
ATOM     14  C   LIG d   1       1.161  86.217 113.635  0.00  0.00     0.210 C 
ATOM     15  C   LIG d   1       0.882  84.712 113.576  0.00  0.00     0.109 C 
ATOM     16  O   LIG d   1       0.580  86.991 112.860  0.00  0.00    -0.276 OA
ATOM     17  H   LIG d   1       2.518  85.887 115.098  0.00  0.00     0.149 HD
ENDBRANCH   6  13
BRANCH   5  18
ATOM     18  N   LIG d   1       4.476  87.949 113.231  0.00  0.00     0.381 N 
ATOM     19  H   LIG d   1       4.989  87.090 113.210  0.00  0.00    -0.090 HD
ATOM     20  H   LIG d   1       5.093  88.692 112.955  0.00  0.00    -0.090 HD
ATOM     21  H   LIG d   1       3.704  87.898 112.603  0.00  0.00    -0.090 HD
ENDBRANCH   5  18
BRANCH   3  22
ATOM     22  C   LIG d   1       4.505  91.052 116.879  0.00  0.00     0.382 C 
ATOM     23  O   LIG d   1       5.558  90.752 117.492  0.00  0.00    -0.241 OA
ATOM     24  O   LIG d   1       4.065  92.215 116.948  0.00  0.00    -0.241 OA
ENDBRANCH   3  22
TORSDOF 7
ENDMDL
MODEL 5
REMARK VINA RESULT:      -4.4      9.184     12.396
REMARK  7 active torsions:
REMARK  status: ('A' for Active; 'I' for Inactive)
REMARK    1  A    between atoms: C_2  and  C_3 
REMARK    2  A    between atoms: C_3  and  O_6 
REMARK    3  A    between atoms: C_3  and  C_4 
REMARK    4  A    between atoms: C_7  and  O_6 
REMARK    5  A    between atoms: C_9  and  C_10 
REMARK    6  A    between atoms: N_15  and  C_14 
REMARK    7  A    between atoms: N_20  and  C_19 
REMARK       I    between atoms: C_22  and  N_20 
ROOT
ATOM      1  C   LIG d   1       1.580  87.381 115.219  0.00  0.00     0.161 C 
ATOM      2  C   LIG d   1       1.363  86.386 114.251  0.00  0.00     0.016 C 
ATOM      3  C   LIG d   1       0.139  85.691 114.110  0.00  0.00     0.038 C 
ATOM      4  C   LIG d   1      -1.007  86.054 114.833  0.00  0.00     0.028 C 
ATOM      5  C   LIG d   1      -0.694  86.712 116.173  0.00  0.00    -0.047 C 
ATOM      6  C   LIG d   1       0.307  87.867 115.943  0.00  0.00     0.091 C 
ENDROOT
BRANCH   1   7
ATOM      7  O   LIG d   1       2.276  88.495 114.626  0.00  0.00    -0.368 OA
BRANCH   7   8
ATOM      8  C   LIG d   1       3.674  88.634 114.978  0.00  0.00     0.119 C 
BRANCH   8   9
ATOM      9  C   LIG d   1       3.823  89.944 115.775  0.00  0.00     0.028 C 
ATOM     10  C   LIG d   1       4.392  89.712 117.185  0.00  0.00     0.006 C 
ENDBRANCH   8   9
BRANCH   8  11
ATOM     11  C   LIG d   1       4.547  88.815 113.733  0.00  0.00     0.028 C 
ATOM     12  C   LIG d   1       4.662  87.532 112.894  0.00  0.00     0.006 C 
ENDBRANCH   8  11
ENDBRANCH   7   8
ENDBRANCH   1   7
BRANCH   6  13
ATOM     13  N   LIG d   1       0.731  88.510 117.214  0.00  0.00    -0.311 N 
ATOM     14  C   LIG d   1       0.523  89.797 117.489  0.00  0.00     0.210 C 
ATOM     15  C   LIG d   1       1.058  90.262 118.847  0.00  0.00     0.109 C 
ATOM     16  O   LIG d   1      -0.082  90.589 116.751  0.00  0.00    -0.276 OA
ATOM     17  H   LIG d   1       1.202  87.933 117.883  0.00  0.00     0.149 HD
ENDBRANCH   6  13
BRANCH   5  18
ATOM     18  N   LIG d   1      -1.972  87.161 116.757  0.00  0.00     0.381 N 
ATOM     19  H   LIG d   1      -1.927  87.103 117.755  0.00  0.00    -0.090 HD
ATOM     20  H   LIG d   1      -2.706  86.555 116.439  0.00  0.00    -0.090 HD
ATOM     21  H   LIG d   1      -2.162  88.099 116.480  0.00  0.00    -0.090 HD
ENDBRANCH   5  18
BRANCH   3  22
ATOM     22  C   LIG d   1       0.065  84.595 113.264  0.00  0.00     0.382 C 
ATOM     23  O   LIG d   1      -1.054  84.158 112.901  0.00  0.00    -0.241 OA
ATOM     24  O   LIG d   1       1.101  84.010 112.895  0.00  0.00    -0.241 OA
ENDBRANCH   3  22
TORSDOF 7
ENDMDL
MODEL 6
REMARK VINA RESULT:      -4.4     10.324     12.718
REMARK  7 active torsions:
REMARK  status: ('A' for Active; 'I' for Inactive)
REMARK    1  A    between atoms: C_2  and  C_3 
REMARK    2  A    between atoms: C_3  and  O_6 
REMARK    3  A    between atoms: C_3  and  C_4 
REMARK    4  A    between atoms: C_7  and  O_6 
REMARK    5  A    between atoms: C_9  and  C_10 
REMARK    6  A    between atoms: N_15  and  C_14 
REMARK    7  A    between atoms: N_20  and  C_19 
REMARK       I    between atoms: C_22  and  N_20 
ROOT
ATOM      1  C   LIG d   1       1.238  88.060 116.415  0.00  0.00     0.161 C 
ATOM      2  C   LIG d   1      -0.099  88.151 116.839  0.00  0.00     0.016 C 
ATOM      3  C   LIG d   1      -0.644  89.302 117.451  0.00  0.00     0.038 C 
ATOM      4  C   LIG d   1       0.075  90.503 117.545  0.00  0.00     0.028 C 
ATOM      5  C   LIG d   1       1.586  90.303 117.588  0.00  0.00    -0.047 C 
ATOM      6  C   LIG d   1       2.006  89.398 116.407  0.00  0.00     0.091 C 
ENDROOT
BRANCH   1   7
ATOM      7  O   LIG d   1       1.297  87.441 115.114  0.00  0.00    -0.368 OA
BRANCH   7   8
ATOM      8  C   LIG d   1       1.514  86.009 115.100  0.00  0.00     0.119 C 
BRANCH   8   9
ATOM      9  C   LIG d   1       2.989  85.768 114.725  0.00  0.00     0.028 C 
ATOM     10  C   LIG d   1       3.380  86.458 113.407  0.00  0.00     0.006 C 
ENDBRANCH   8   9
BRANCH   8  11
ATOM     11  C   LIG d   1       0.699  85.333 113.992  0.00  0.00     0.028 C 
ATOM     12  C   LIG d   1      -0.777  85.760 113.994  0.00  0.00     0.006 C 
ENDBRANCH   8  11
ENDBRANCH   7   8
ENDBRANCH   1   7
BRANCH   6  13
ATOM     13  N   LIG d   1       3.458  89.083 116.424  0.00  0.00    -0.311 N 
ATOM     14  C   LIG d   1       4.294  89.425 115.445  0.00  0.00     0.210 C 
ATOM     15  C   LIG d   1       5.747  88.985 115.652  0.00  0.00     0.109 C 
ATOM     16  O   LIG d   1       3.976  90.079 114.440  0.00  0.00    -0.276 OA
ATOM     17  H   LIG d   1       3.807  88.581 117.217  0.00  0.00     0.149 HD
ENDBRANCH   6  13
BRANCH   5  18
ATOM     18  N   LIG d   1       2.214  91.637 117.546  0.00  0.00     0.381 N 
ATOM     19  H   LIG d   1       2.502  91.905 118.466  0.00  0.00    -0.090 HD
ATOM     20  H   LIG d   1       1.537  92.305 117.220  0.00  0.00    -0.090 HD
ATOM     21  H   LIG d   1       3.000  91.625 116.934  0.00  0.00    -0.090 HD
ENDBRANCH   5  18
BRANCH   3  22
ATOM     22  C   LIG d   1      -1.910  89.247 118.014  0.00  0.00     0.382 C 
ATOM     23  O   LIG d   1      -2.226  90.048 118.927  0.00  0.00    -0.241 OA
ATOM     24  O   LIG d   1      -2.725  88.377 117.652  0.00  0.00    -0.241 OA
ENDBRANCH   3  22
TORSDOF 7
ENDMDL
MODEL 7
REMARK VINA RESULT:      -4.3     17.275     20.218
REMARK  7 active torsions:
REMARK  status: ('A' for Active; 'I' for Inactive)
REMARK    1  A    between atoms: C_2  and  C_3 
REMARK    2  A    between atoms: C_3  and  O_6 
REMARK    3  A    between atoms: C_3  and  C_4 
REMARK    4  A    between atoms: C_7  and  O_6 
REMARK    5  A    between atoms: C_9  and  C_10 
REMARK    6  A    between atoms: N_15  and  C_14 
REMARK    7  A    between atoms: N_20  and  C_19 
REMARK       I    between atoms: C_22  and  N_20 
ROOT
ATOM      1  C   LIG d   1     -16.547  64.696 115.810  0.00  0.00     0.161 C 
ATOM      2  C   LIG d   1     -15.629  65.219 116.736  0.00  0.00     0.016 C 
ATOM      3  C   LIG d   1     -15.915  66.316 117.581  0.00  0.00     0.038 C 
ATOM      4  C   LIG d   1     -17.200  66.873 117.664  0.00  0.00     0.028 C 
ATOM      5  C   LIG d   1     -18.016  66.706 116.386  0.00  0.00    -0.047 C 
ATOM      6  C   LIG d   1     -17.991  65.219 115.965  0.00  0.00     0.091 C 
ENDROOT
BRANCH   1   7
ATOM      7  O   LIG d   1     -16.528  63.256 115.862  0.00  0.00    -0.368 OA
BRANCH   7   8
ATOM      8  C   LIG d   1     -17.130  62.653 117.034  0.00  0.00     0.119 C 
BRANCH   8   9
ATOM      9  C   LIG d   1     -15.996  62.019 117.863  0.00  0.00     0.028 C 
ATOM     10  C   LIG d   1     -16.513  60.967 118.858  0.00  0.00     0.006 C 
ENDBRANCH   8   9
BRANCH   8  11
ATOM     11  C   LIG d   1     -18.050  61.490 116.652  0.00  0.00     0.028 C 
ATOM     12  C   LIG d   1     -17.930  61.097 115.171  0.00  0.00     0.006 C 
ENDBRANCH   8  11
ENDBRANCH   7   8
ENDBRANCH   1   7
BRANCH   6  13
ATOM     13  N   LIG d   1     -18.695  64.983 114.678  0.00  0.00    -0.311 N 
ATOM     14  C   LIG d   1     -19.829  64.291 114.579  0.00  0.00     0.210 C 
ATOM     15  C   LIG d   1     -20.377  64.149 113.155  0.00  0.00     0.109 C 
ATOM     16  O   LIG d   1     -20.449  63.809 115.538  0.00  0.00    -0.276 OA
ATOM     17  H   LIG d   1     -18.277  65.366 113.852  0.00  0.00     0.149 HD
ENDBRANCH   6  13
BRANCH   5  18
ATOM     18  N   LIG d   1     -19.377  67.207 116.658  0.00  0.00     0.381 N 
ATOM     19  H   LIG d   1     -19.334  67.971 117.302  0.00  0.00    -0.090 HD
ATOM     20  H   LIG d   1     -19.916  66.471 117.078  0.00  0.00    -0.090 HD
ATOM     21  H   LIG d   1     -19.807  67.502 115.809  0.00  0.00    -0.090 HD
ENDBRANCH   5  18
BRANCH   3  22
ATOM     22  C   LIG d   1     -14.898  66.893 118.326  0.00  0.00     0.382 C 
ATOM     23  O   LIG d   1     -13.976  66.179 118.787  0.00  0.00    -0.241 OA
ATOM     24  O   LIG d   1     -14.915  68.113 118.580  0.00  0.00    -0.241 OA
ENDBRANCH   3  22
TORSDOF 7
ENDMDL
MODEL 8
REMARK VINA RESULT:      -4.3     17.055     19.893
REMARK  7 active torsions:
REMARK  status: ('A' for Active; 'I' for Inactive)
REMARK    1  A    between atoms: C_2  and  C_3 
REMARK    2  A    between atoms: C_3  and  O_6 
REMARK    3  A    between atoms: C_3  and  C_4 
REMARK    4  A    between atoms: C_7  and  O_6 
REMARK    5  A    between atoms: C_9  and  C_10 
REMARK    6  A    between atoms: N_15  and  C_14 
REMARK    7  A    between atoms: N_20  and  C_19 
REMARK       I    between atoms: C_22  and  N_20 
ROOT
ATOM      1  C   LIG d   1     -17.214  64.052 117.596  0.00  0.00     0.161 C 
ATOM      2  C   LIG d   1     -17.619  62.981 116.782  0.00  0.00     0.016 C 
ATOM      3  C   LIG d   1     -17.543  63.003 115.371  0.00  0.00     0.038 C 
ATOM      4  C   LIG d   1     -16.912  64.048 114.679  0.00  0.00     0.028 C 
ATOM      5  C   LIG d   1     -16.945  65.377 115.427  0.00  0.00    -0.047 C 
ATOM      6  C   LIG d   1     -16.421  65.156 116.865  0.00  0.00     0.091 C 
ENDROOT
BRANCH   1   7
ATOM      7  O   LIG d   1     -16.462  63.555 118.720  0.00  0.00    -0.368 OA
BRANCH   7   8
ATOM      8  C   LIG d   1     -15.534  62.478 118.440  0.00  0.00     0.119 C 
BRANCH   8   9
ATOM      9  C   LIG d   1     -15.723  61.408 119.532  0.00  0.00     0.028 C 
ATOM     10  C   LIG d   1     -17.010  60.589 119.334  0.00  0.00     0.006 C 
ENDBRANCH   8   9
BRANCH   8  11
ATOM     11  C   LIG d   1     -14.081  62.945 118.577  0.00  0.00     0.028 C 
ATOM     12  C   LIG d   1     -13.922  64.119 119.555  0.00  0.00     0.006 C 
ENDBRANCH   8  11
ENDBRANCH   7   8
ENDBRANCH   1   7
BRANCH   6  13
ATOM     13  N   LIG d   1     -16.499  66.388 117.692  0.00  0.00    -0.311 N 
ATOM     14  C   LIG d   1     -15.450  67.170 117.943  0.00  0.00     0.210 C 
ATOM     15  C   LIG d   1     -15.744  68.380 118.834  0.00  0.00     0.109 C 
ATOM     16  O   LIG d   1     -14.311  66.993 117.485  0.00  0.00    -0.276 OA
ATOM     17  H   LIG d   1     -17.392  66.623 118.077  0.00  0.00     0.149 HD
ENDBRANCH   6  13
BRANCH   5  18
ATOM     18  N   LIG d   1     -16.135  66.341 114.659  0.00  0.00     0.381 N 
ATOM     19  H   LIG d   1     -16.197  66.133 113.682  0.00  0.00    -0.090 HD
ATOM     20  H   LIG d   1     -15.174  66.255 114.939  0.00  0.00    -0.090 HD
ATOM     21  H   LIG d   1     -16.457  67.268 114.829  0.00  0.00    -0.090 HD
ENDBRANCH   5  18
BRANCH   3  22
ATOM     22  C   LIG d   1     -18.138  61.990 114.634  0.00  0.00     0.382 C 
ATOM     23  O   LIG d   1     -18.845  62.273 113.637  0.00  0.00    -0.241 OA
ATOM     24  O   LIG d   1     -18.012  60.800 114.980  0.00  0.00    -0.241 OA
ENDBRANCH   3  22
TORSDOF 7
ENDMDL
MODEL 9
REMARK VINA RESULT:      -4.1     11.194     13.304
REMARK  7 active torsions:
REMARK  status: ('A' for Active; 'I' for Inactive)
REMARK    1  A    between atoms: C_2  and  C_3 
REMARK    2  A    between atoms: C_3  and  O_6 
REMARK    3  A    between atoms: C_3  and  C_4 
REMARK    4  A    between atoms: C_7  and  O_6 
REMARK    5  A    between atoms: C_9  and  C_10 
REMARK    6  A    between atoms: N_15  and  C_14 
REMARK    7  A    between atoms: N_20  and  C_19 
REMARK       I    between atoms: C_22  and  N_20 
ROOT
ATOM      1  C   LIG d   1       3.940  88.408 116.160  0.00  0.00     0.161 C 
ATOM      2  C   LIG d   1       3.064  87.692 115.327  0.00  0.00     0.016 C 
ATOM      3  C   LIG d   1       3.255  87.553 113.933  0.00  0.00     0.038 C 
ATOM      4  C   LIG d   1       4.424  87.997 113.297  0.00  0.00     0.028 C 
ATOM      5  C   LIG d   1       5.095  89.166 114.010  0.00  0.00    -0.047 C 
ATOM      6  C   LIG d   1       5.278  88.805 115.502  0.00  0.00     0.091 C 
ENDROOT
BRANCH   1   7
ATOM      7  O   LIG d   1       4.178  87.665 117.372  0.00  0.00    -0.368 OA
BRANCH   7   8
ATOM      8  C   LIG d   1       3.540  86.368 117.460  0.00  0.00     0.119 C 
BRANCH   8   9
ATOM      9  C   LIG d   1       2.613  86.391 118.691  0.00  0.00     0.028 C 
ATOM     10  C   LIG d   1       1.126  86.461 118.304  0.00  0.00     0.006 C 
ENDBRANCH   8   9
BRANCH   8  11
ATOM     11  C   LIG d   1       4.562  85.262 117.743  0.00  0.00     0.028 C 
ATOM     12  C   LIG d   1       5.814  85.367 116.858  0.00  0.00     0.006 C 
ENDBRANCH   8  11
ENDBRANCH   7   8
ENDBRANCH   1   7
BRANCH   6  13
ATOM     13  N   LIG d   1       5.851  89.927 116.290  0.00  0.00    -0.311 N 
ATOM     14  C   LIG d   1       6.867  89.783 117.139  0.00  0.00     0.210 C 
ATOM     15  C   LIG d   1       7.291  91.063 117.865  0.00  0.00     0.109 C 
ATOM     16  O   LIG d   1       7.480  88.722 117.335  0.00  0.00    -0.276 OA
ATOM     17  H   LIG d   1       5.435  90.829 116.169  0.00  0.00     0.149 HD
ENDBRANCH   6  13
BRANCH   5  18
ATOM     18  N   LIG d   1       6.370  89.437 113.320  0.00  0.00     0.381 N 
ATOM     19  H   LIG d   1       6.597  90.408 113.397  0.00  0.00    -0.090 HD
ATOM     20  H   LIG d   1       6.266  89.214 112.346  0.00  0.00    -0.090 HD
ATOM     21  H   LIG d   1       7.098  88.885 113.719  0.00  0.00    -0.090 HD
ENDBRANCH   5  18
BRANCH   3  22
ATOM     22  C   LIG d   1       2.251  86.999 113.153  0.00  0.00     0.382 C 
ATOM     23  O   LIG d   1       1.269  87.698 112.806  0.00  0.00    -0.241 OA
ATOM     24  O   LIG d   1       2.293  85.797 112.830  0.00  0.00    -0.241 OA
ENDBRANCH   3  22
TORSDOF 7
ENDMDL
