MODEL 1
REMARK VINA RESULT:      -5.6      0.000      0.000
REMARK  7 active torsions:
REMARK  status: ('A' for Active; 'I' for Inactive)
REMARK    1  A    between atoms: C_2  and  C_3 
REMARK    2  A    between atoms: C_3  and  O_6 
REMARK    3  A    between atoms: C_3  and  C_4 
REMARK    4  A    between atoms: C_7  and  O_6 
REMARK    5  A    between atoms: C_9  and  C_10 
REMARK    6  A    between atoms: N_15  and  C_14 
REMARK    7  A    between atoms: N_20  and  C_19 
REMARK       I    between atoms: C_22  and  N_20 
ROOT
ATOM      1  C   LIG d   1      -7.082  76.205 117.513  0.00  0.00     0.161 C 
ATOM      2  C   LIG d   1      -8.170  76.973 117.960  0.00  0.00     0.016 C 
ATOM      3  C   LIG d   1      -8.159  78.386 118.003  0.00  0.00     0.038 C 
ATOM      4  C   LIG d   1      -7.108  79.137 117.457  0.00  0.00     0.028 C 
ATOM      5  C   LIG d   1      -5.773  78.399 117.457  0.00  0.00    -0.047 C 
ATOM      6  C   LIG d   1      -5.968  77.009 116.810  0.00  0.00     0.091 C 
ENDROOT
BRANCH   1   7
ATOM      7  O   LIG d   1      -7.551  75.144 116.657  0.00  0.00    -0.368 OA
BRANCH   7   8
ATOM      8  C   LIG d   1      -7.725  73.850 117.284  0.00  0.00     0.119 C 
BRANCH   8   9
ATOM      9  C   LIG d   1      -6.753  72.869 116.600  0.00  0.00     0.028 C 
ATOM     10  C   LIG d   1      -7.343  71.454 116.468  0.00  0.00     0.006 C 
ENDBRANCH   8   9
BRANCH   8  11
ATOM     11  C   LIG d   1      -9.124  73.286 117.018  0.00  0.00     0.028 C 
ATOM     12  C   LIG d   1     -10.136  74.369 116.613  0.00  0.00     0.006 C 
ENDBRANCH   8  11
ENDBRANCH   7   8
ENDBRANCH   1   7
BRANCH   6  13
ATOM     13  N   LIG d   1      -4.730  76.188 116.845  0.00  0.00    -0.311 N 
ATOM     14  C   LIG d   1      -4.128  75.720 115.753  0.00  0.00     0.210 C 
ATOM     15  C   LIG d   1      -2.875  74.879 116.014  0.00  0.00     0.109 C 
ATOM     16  O   LIG d   1      -4.496  75.950 114.590  0.00  0.00    -0.276 OA
ATOM     17  H   LIG d   1      -4.346  75.980 117.746  0.00  0.00     0.149 HD
ENDBRANCH   6  13
BRANCH   5  18
ATOM     18  N   LIG d   1      -4.799  79.240 116.737  0.00  0.00     0.381 N 
ATOM     19  H   LIG d   1      -4.984  80.206 116.921  0.00  0.00    -0.090 HD
ATOM     20  H   LIG d   1      -4.899  79.082 115.750  0.00  0.00    -0.090 HD
ATOM     21  H   LIG d   1      -3.873  79.012 117.025  0.00  0.00    -0.090 HD
ENDBRANCH   5  18
BRANCH   3  22
ATOM     22  C   LIG d   1      -9.192  79.062 118.635  0.00  0.00     0.382 C 
ATOM     23  O   LIG d   1     -10.254  78.458 118.920  0.00  0.00    -0.241 OA
ATOM     24  O   LIG d   1      -9.093  80.278 118.882  0.00  0.00    -0.241 OA
ENDBRANCH   3  22
TORSDOF 7
ENDMDL
MODEL 2
REMARK VINA RESULT:      -5.6      1.579      4.612
REMARK  7 active torsions:
REMARK  status: ('A' for Active; 'I' for Inactive)
REMARK    1  A    between atoms: C_2  and  C_3 
REMARK    2  A    between atoms: C_3  and  O_6 
REMARK    3  A    between atoms: C_3  and  C_4 
REMARK    4  A    between atoms: C_7  and  O_6 
REMARK    5  A    between atoms: C_9  and  C_10 
REMARK    6  A    between atoms: N_15  and  C_14 
REMARK    7  A    between atoms: N_20  and  C_19 
REMARK       I    between atoms: C_22  and  N_20 
ROOT
ATOM      1  C   LIG d   1      -7.170  76.157 116.809  0.00  0.00     0.161 C 
ATOM      2  C   LIG d   1      -6.642  75.692 115.593  0.00  0.00     0.016 C 
ATOM      3  C   LIG d   1      -5.435  76.173 115.035  0.00  0.00     0.038 C 
ATOM      4  C   LIG d   1      -4.592  77.049 115.734  0.00  0.00     0.028 C 
ATOM      5  C   LIG d   1      -5.330  77.928 116.738  0.00  0.00    -0.047 C 
ATOM      6  C   LIG d   1      -6.208  77.032 117.640  0.00  0.00     0.091 C 
ENDROOT
BRANCH   1   7
ATOM      7  O   LIG d   1      -7.641  75.044 117.594  0.00  0.00    -0.368 OA
BRANCH   7   8
ATOM      8  C   LIG d   1      -8.027  73.860 116.855  0.00  0.00     0.119 C 
BRANCH   8   9
ATOM      9  C   LIG d   1      -9.529  73.626 117.108  0.00  0.00     0.028 C 
ATOM     10  C   LIG d   1     -10.405  74.743 116.517  0.00  0.00     0.006 C 
ENDBRANCH   8   9
BRANCH   8  11
ATOM     11  C   LIG d   1      -7.325  72.611 117.396  0.00  0.00     0.028 C 
ATOM     12  C   LIG d   1      -6.875  71.651 116.283  0.00  0.00     0.006 C 
ENDBRANCH   8  11
ENDBRANCH   7   8
ENDBRANCH   1   7
BRANCH   6  13
ATOM     13  N   LIG d   1      -7.030  77.820 118.595  0.00  0.00    -0.311 N 
ATOM     14  C   LIG d   1      -7.566  79.003 118.298  0.00  0.00     0.210 C 
ATOM     15  C   LIG d   1      -8.360  79.656 119.434  0.00  0.00     0.109 C 
ATOM     16  O   LIG d   1      -7.488  79.557 117.192  0.00  0.00    -0.276 OA
ATOM     17  H   LIG d   1      -7.170  77.430 119.506  0.00  0.00     0.149 HD
ENDBRANCH   6  13
BRANCH   5  18
ATOM     18  N   LIG d   1      -4.317  78.692 117.491  0.00  0.00     0.381 N 
ATOM     19  H   LIG d   1      -4.497  79.672 117.403  0.00  0.00    -0.090 HD
ATOM     20  H   LIG d   1      -3.411  78.501 117.102  0.00  0.00    -0.090 HD
ATOM     21  H   LIG d   1      -4.337  78.428 118.452  0.00  0.00    -0.090 HD
ENDBRANCH   5  18
BRANCH   3  22
ATOM     22  C   LIG d   1      -5.080  75.807 113.745  0.00  0.00     0.382 C 
ATOM     23  O   LIG d   1      -4.600  74.668 113.526  0.00  0.00    -0.241 OA
ATOM     24  O   LIG d   1      -5.194  76.616 112.805  0.00  0.00    -0.241 OA
ENDBRANCH   3  22
TORSDOF 7
ENDMDL
MODEL 3
REMARK VINA RESULT:      -5.6      2.177      4.566
REMARK  7 active torsions:
REMARK  status: ('A' for Active; 'I' for Inactive)
REMARK    1  A    between atoms: C_2  and  C_3 
REMARK    2  A    between atoms: C_3  and  O_6 
REMARK    3  A    between atoms: C_3  and  C_4 
REMARK    4  A    between atoms: C_7  and  O_6 
REMARK    5  A    between atoms: C_9  and  C_10 
REMARK    6  A    between atoms: N_15  and  C_14 
REMARK    7  A    between atoms: N_20  and  C_19 
REMARK       I    between atoms: C_22  and  N_20 
ROOT
ATOM      1  C   LIG d   1      -6.350  75.899 117.409  0.00  0.00     0.161 C 
ATOM      2  C   LIG d   1      -7.321  74.946 117.059  0.00  0.00     0.016 C 
ATOM      3  C   LIG d   1      -8.702  75.235 116.979  0.00  0.00     0.038 C 
ATOM      4  C   LIG d   1      -9.194  76.544 117.099  0.00  0.00     0.028 C 
ATOM      5  C   LIG d   1      -8.309  77.448 117.950  0.00  0.00    -0.047 C 
ATOM      6  C   LIG d   1      -6.855  77.357 117.434  0.00  0.00     0.091 C 
ENDROOT
BRANCH   1   7
ATOM      7  O   LIG d   1      -5.210  75.779 116.535  0.00  0.00    -0.368 OA
BRANCH   7   8
ATOM      8  C   LIG d   1      -5.218  76.621 115.356  0.00  0.00     0.119 C 
BRANCH   8   9
ATOM      9  C   LIG d   1      -5.347  75.698 114.129  0.00  0.00     0.028 C 
ATOM     10  C   LIG d   1      -4.795  74.287 114.395  0.00  0.00     0.006 C 
ENDBRANCH   8   9
BRANCH   8  11
ATOM     11  C   LIG d   1      -3.881  77.346 115.180  0.00  0.00     0.028 C 
ATOM     12  C   LIG d   1      -2.934  77.150 116.375  0.00  0.00     0.006 C 
ENDBRANCH   8  11
ENDBRANCH   7   8
ENDBRANCH   1   7
BRANCH   6  13
ATOM     13  N   LIG d   1      -5.908  78.147 118.264  0.00  0.00    -0.311 N 
ATOM     14  C   LIG d   1      -5.545  79.395 117.975  0.00  0.00     0.210 C 
ATOM     15  C   LIG d   1      -4.543  80.020 118.952  0.00  0.00     0.109 C 
ATOM     16  O   LIG d   1      -5.982  80.056 117.021  0.00  0.00    -0.276 OA
ATOM     17  H   LIG d   1      -5.529  77.698 119.075  0.00  0.00     0.149 HD
ENDBRANCH   6  13
BRANCH   5  18
ATOM     18  N   LIG d   1      -8.864  78.812 117.877  0.00  0.00     0.381 N 
ATOM     19  H   LIG d   1      -8.484  79.373 118.613  0.00  0.00    -0.090 HD
ATOM     20  H   LIG d   1      -9.861  78.765 117.999  0.00  0.00    -0.090 HD
ATOM     21  H   LIG d   1      -8.650  79.221 116.994  0.00  0.00    -0.090 HD
ENDBRANCH   5  18
BRANCH   3  22
ATOM     22  C   LIG d   1      -9.613  74.202 116.818  0.00  0.00     0.382 C 
ATOM     23  O   LIG d   1     -10.843  74.431 116.905  0.00  0.00    -0.241 OA
ATOM     24  O   LIG d   1      -9.217  73.035 116.631  0.00  0.00    -0.241 OA
ENDBRANCH   3  22
TORSDOF 7
ENDMDL
MODEL 4
REMARK VINA RESULT:      -5.0      2.039      4.892
REMARK  7 active torsions:
REMARK  status: ('A' for Active; 'I' for Inactive)
REMARK    1  A    between atoms: C_2  and  C_3 
REMARK    2  A    between atoms: C_3  and  O_6 
REMARK    3  A    between atoms: C_3  and  C_4 
REMARK    4  A    between atoms: C_7  and  O_6 
REMARK    5  A    between atoms: C_9  and  C_10 
REMARK    6  A    between atoms: N_15  and  C_14 
REMARK    7  A    between atoms: N_20  and  C_19 
REMARK       I    between atoms: C_22  and  N_20 
ROOT
ATOM      1  C   LIG d   1      -5.594  76.180 115.938  0.00  0.00     0.161 C 
ATOM      2  C   LIG d   1      -4.410  75.691 115.362  0.00  0.00     0.016 C 
ATOM      3  C   LIG d   1      -3.155  75.730 116.013  0.00  0.00     0.038 C 
ATOM      4  C   LIG d   1      -3.026  76.126 117.352  0.00  0.00     0.028 C 
ATOM      5  C   LIG d   1      -4.109  77.101 117.802  0.00  0.00    -0.047 C 
ATOM      6  C   LIG d   1      -5.493  76.514 117.441  0.00  0.00     0.091 C 
ENDROOT
BRANCH   1   7
ATOM      7  O   LIG d   1      -6.671  75.252 115.702  0.00  0.00    -0.368 OA
BRANCH   7   8
ATOM      8  C   LIG d   1      -6.868  74.234 116.714  0.00  0.00     0.119 C 
BRANCH   8   9
ATOM      9  C   LIG d   1      -6.380  72.896 116.126  0.00  0.00     0.028 C 
ATOM     10  C   LIG d   1      -7.239  71.705 116.584  0.00  0.00     0.006 C 
ENDBRANCH   8   9
BRANCH   8  11
ATOM     11  C   LIG d   1      -8.356  74.027 117.014  0.00  0.00     0.028 C 
ATOM     12  C   LIG d   1      -9.229  75.199 116.538  0.00  0.00     0.006 C 
ENDBRANCH   8  11
ENDBRANCH   7   8
ENDBRANCH   1   7
BRANCH   6  13
ATOM     13  N   LIG d   1      -6.606  77.443 117.771  0.00  0.00    -0.311 N 
ATOM     14  C   LIG d   1      -6.696  78.680 117.287  0.00  0.00     0.210 C 
ATOM     15  C   LIG d   1      -7.912  79.476 117.770  0.00  0.00     0.109 C 
ATOM     16  O   LIG d   1      -5.901  79.183 116.478  0.00  0.00    -0.276 OA
ATOM     17  H   LIG d   1      -7.311  77.105 118.396  0.00  0.00     0.149 HD
ENDBRANCH   6  13
BRANCH   5  18
ATOM     18  N   LIG d   1      -3.935  77.322 119.250  0.00  0.00     0.381 N 
ATOM     19  H   LIG d   1      -4.814  77.217 119.717  0.00  0.00    -0.090 HD
ATOM     20  H   LIG d   1      -3.610  78.261 119.399  0.00  0.00    -0.090 HD
ATOM     21  H   LIG d   1      -3.276  76.672 119.618  0.00  0.00    -0.090 HD
ENDBRANCH   5  18
BRANCH   3  22
ATOM     22  C   LIG d   1      -2.005  75.406 115.308  0.00  0.00     0.382 C 
ATOM     23  O   LIG d   1      -1.088  74.759 115.868  0.00  0.00    -0.241 OA
ATOM     24  O   LIG d   1      -1.855  75.792 114.133  0.00  0.00    -0.241 OA
ENDBRANCH   3  22
TORSDOF 7
ENDMDL
MODEL 5
REMARK VINA RESULT:      -4.9      2.395      3.217
REMARK  7 active torsions:
REMARK  status: ('A' for Active; 'I' for Inactive)
REMARK    1  A    between atoms: C_2  and  C_3 
REMARK    2  A    between atoms: C_3  and  O_6 
REMARK    3  A    between atoms: C_3  and  C_4 
REMARK    4  A    between atoms: C_7  and  O_6 
REMARK    5  A    between atoms: C_9  and  C_10 
REMARK    6  A    between atoms: N_15  and  C_14 
REMARK    7  A    between atoms: N_20  and  C_19 
REMARK       I    between atoms: C_22  and  N_20 
ROOT
ATOM      1  C   LIG d   1      -5.407  77.517 116.594  0.00  0.00     0.161 C 
ATOM      2  C   LIG d   1      -6.226  78.613 116.913  0.00  0.00     0.016 C 
ATOM      3  C   LIG d   1      -5.847  79.629 117.820  0.00  0.00     0.038 C 
ATOM      4  C   LIG d   1      -4.554  79.697 118.360  0.00  0.00     0.028 C 
ATOM      5  C   LIG d   1      -3.867  78.339 118.459  0.00  0.00    -0.047 C 
ATOM      6  C   LIG d   1      -3.950  77.633 117.087  0.00  0.00     0.091 C 
ENDROOT
BRANCH   1   7
ATOM      7  O   LIG d   1      -5.438  77.281 115.172  0.00  0.00    -0.368 OA
BRANCH   7   8
ATOM      8  C   LIG d   1      -6.134  76.086 114.739  0.00  0.00     0.119 C 
BRANCH   8   9
ATOM      9  C   LIG d   1      -6.804  75.466 115.980  0.00  0.00     0.028 C 
ATOM     10  C   LIG d   1      -8.325  75.697 116.003  0.00  0.00     0.006 C 
ENDBRANCH   8   9
BRANCH   8  11
ATOM     11  C   LIG d   1      -5.154  75.023 114.233  0.00  0.00     0.028 C 
ATOM     12  C   LIG d   1      -5.122  73.771 115.123  0.00  0.00     0.006 C 
ENDBRANCH   8  11
ENDBRANCH   7   8
ENDBRANCH   1   7
BRANCH   6  13
ATOM     13  N   LIG d   1      -3.375  76.262 117.119  0.00  0.00    -0.311 N 
ATOM     14  C   LIG d   1      -2.129  75.981 116.744  0.00  0.00     0.210 C 
ATOM     15  C   LIG d   1      -1.744  74.501 116.837  0.00  0.00     0.109 C 
ATOM     16  O   LIG d   1      -1.295  76.821 116.374  0.00  0.00    -0.276 OA
ATOM     17  H   LIG d   1      -3.973  75.524 117.436  0.00  0.00     0.149 HD
ENDBRANCH   6  13
BRANCH   5  18
ATOM     18  N   LIG d   1      -2.481  78.573 118.907  0.00  0.00     0.381 N 
ATOM     19  H   LIG d   1      -2.102  79.370 118.435  0.00  0.00    -0.090 HD
ATOM     20  H   LIG d   1      -1.923  77.772 118.669  0.00  0.00    -0.090 HD
ATOM     21  H   LIG d   1      -2.460  78.720 119.892  0.00  0.00    -0.090 HD
ENDBRANCH   5  18
BRANCH   3  22
ATOM     22  C   LIG d   1      -6.781  80.569 118.228  0.00  0.00     0.382 C 
ATOM     23  O   LIG d   1      -7.538  81.107 117.385  0.00  0.00    -0.241 OA
ATOM     24  O   LIG d   1      -6.845  80.919 119.422  0.00  0.00    -0.241 OA
ENDBRANCH   3  22
TORSDOF 7
ENDMDL
MODEL 6
REMARK VINA RESULT:      -4.8      2.344      5.961
REMARK  7 active torsions:
REMARK  status: ('A' for Active; 'I' for Inactive)
REMARK    1  A    between atoms: C_2  and  C_3 
REMARK    2  A    between atoms: C_3  and  O_6 
REMARK    3  A    between atoms: C_3  and  C_4 
REMARK    4  A    between atoms: C_7  and  O_6 
REMARK    5  A    between atoms: C_9  and  C_10 
REMARK    6  A    between atoms: N_15  and  C_14 
REMARK    7  A    between atoms: N_20  and  C_19 
REMARK       I    between atoms: C_22  and  N_20 
ROOT
ATOM      1  C   LIG d   1      -5.305  77.594 116.439  0.00  0.00     0.161 C 
ATOM      2  C   LIG d   1      -4.215  78.360 115.994  0.00  0.00     0.016 C 
ATOM      3  C   LIG d   1      -3.296  77.912 115.017  0.00  0.00     0.038 C 
ATOM      4  C   LIG d   1      -3.492  76.720 114.306  0.00  0.00     0.028 C 
ATOM      5  C   LIG d   1      -4.299  75.680 115.077  0.00  0.00    -0.047 C 
ATOM      6  C   LIG d   1      -5.599  76.336 115.594  0.00  0.00     0.091 C 
ENDROOT
BRANCH   1   7
ATOM      7  O   LIG d   1      -6.481  78.423 116.530  0.00  0.00    -0.368 OA
BRANCH   7   8
ATOM      8  C   LIG d   1      -6.919  78.762 117.868  0.00  0.00     0.119 C 
BRANCH   8   9
ATOM      9  C   LIG d   1      -8.450  78.587 117.912  0.00  0.00     0.028 C 
ATOM     10  C   LIG d   1      -9.181  79.901 118.235  0.00  0.00     0.006 C 
ENDBRANCH   8   9
BRANCH   8  11
ATOM     11  C   LIG d   1      -6.670  80.241 118.178  0.00  0.00     0.028 C 
ATOM     12  C   LIG d   1      -5.538  80.454 119.195  0.00  0.00     0.006 C 
ENDBRANCH   8  11
ENDBRANCH   7   8
ENDBRANCH   1   7
BRANCH   6  13
ATOM     13  N   LIG d   1      -6.407  75.411 116.431  0.00  0.00    -0.311 N 
ATOM     14  C   LIG d   1      -7.732  75.312 116.344  0.00  0.00     0.210 C 
ATOM     15  C   LIG d   1      -8.371  74.312 117.312  0.00  0.00     0.109 C 
ATOM     16  O   LIG d   1      -8.436  75.934 115.535  0.00  0.00    -0.276 OA
ATOM     17  H   LIG d   1      -5.913  74.846 117.093  0.00  0.00     0.149 HD
ENDBRANCH   6  13
BRANCH   5  18
ATOM     18  N   LIG d   1      -4.546  74.544 114.169  0.00  0.00     0.381 N 
ATOM     19  H   LIG d   1      -5.326  74.747 113.577  0.00  0.00    -0.090 HD
ATOM     20  H   LIG d   1      -4.769  73.732 114.717  0.00  0.00    -0.090 HD
ATOM     21  H   LIG d   1      -3.736  74.368 113.615  0.00  0.00    -0.090 HD
ENDBRANCH   5  18
BRANCH   3  22
ATOM     22  C   LIG d   1      -2.143  78.643 114.773  0.00  0.00     0.382 C 
ATOM     23  O   LIG d   1      -2.149  79.554 113.911  0.00  0.00    -0.241 OA
ATOM     24  O   LIG d   1      -1.085  78.372 115.372  0.00  0.00    -0.241 OA
ENDBRANCH   3  22
TORSDOF 7
ENDMDL
MODEL 7
REMARK VINA RESULT:      -4.7     15.059     18.619
REMARK  7 active torsions:
REMARK  status: ('A' for Active; 'I' for Inactive)
REMARK    1  A    between atoms: C_2  and  C_3 
REMARK    2  A    between atoms: C_3  and  O_6 
REMARK    3  A    between atoms: C_3  and  C_4 
REMARK    4  A    between atoms: C_7  and  O_6 
REMARK    5  A    between atoms: C_9  and  C_10 
REMARK    6  A    between atoms: N_15  and  C_14 
REMARK    7  A    between atoms: N_20  and  C_19 
REMARK       I    between atoms: C_22  and  N_20 
ROOT
ATOM      1  C   LIG d   1      10.797  77.972 115.126  0.00  0.00     0.161 C 
ATOM      2  C   LIG d   1       9.455  77.956 115.540  0.00  0.00     0.016 C 
ATOM      3  C   LIG d   1       8.698  76.770 115.679  0.00  0.00     0.038 C 
ATOM      4  C   LIG d   1       9.281  75.500 115.559  0.00  0.00     0.028 C 
ATOM      5  C   LIG d   1      10.505  75.479 114.650  0.00  0.00    -0.047 C 
ATOM      6  C   LIG d   1      11.482  76.590 115.098  0.00  0.00     0.091 C 
ENDROOT
BRANCH   1   7
ATOM      7  O   LIG d   1      11.550  78.888 115.946  0.00  0.00    -0.368 OA
BRANCH   7   8
ATOM      8  C   LIG d   1      12.005  80.100 115.295  0.00  0.00     0.119 C 
BRANCH   8   9
ATOM      9  C   LIG d   1      11.359  81.290 116.030  0.00  0.00     0.028 C 
ATOM     10  C   LIG d   1       9.971  81.643 115.470  0.00  0.00     0.006 C 
ENDBRANCH   8   9
BRANCH   8  11
ATOM     11  C   LIG d   1      11.491  80.186 113.855  0.00  0.00     0.028 C 
ATOM     12  C   LIG d   1      12.618  80.091 112.814  0.00  0.00     0.006 C 
ENDBRANCH   8  11
ENDBRANCH   7   8
ENDBRANCH   1   7
BRANCH   6  13
ATOM     13  N   LIG d   1      12.669  76.694 114.209  0.00  0.00    -0.311 N 
ATOM     14  C   LIG d   1      13.914  76.830 114.662  0.00  0.00     0.210 C 
ATOM     15  C   LIG d   1      14.988  76.939 113.575  0.00  0.00     0.109 C 
ATOM     16  O   LIG d   1      14.234  76.838 115.860  0.00  0.00    -0.276 OA
ATOM     17  H   LIG d   1      12.503  76.665 113.222  0.00  0.00     0.149 HD
ENDBRANCH   6  13
BRANCH   5  18
ATOM     18  N   LIG d   1      11.093  74.128 114.725  0.00  0.00     0.381 N 
ATOM     19  H   LIG d   1      10.756  73.657 115.541  0.00  0.00    -0.090 HD
ATOM     20  H   LIG d   1      12.092  74.211 114.798  0.00  0.00    -0.090 HD
ATOM     21  H   LIG d   1      10.855  73.607 113.909  0.00  0.00    -0.090 HD
ENDBRANCH   5  18
BRANCH   3  22
ATOM     22  C   LIG d   1       7.332  76.849 115.903  0.00  0.00     0.382 C 
ATOM     23  O   LIG d   1       6.823  76.263 116.889  0.00  0.00    -0.241 OA
ATOM     24  O   LIG d   1       6.596  77.461 115.107  0.00  0.00    -0.241 OA
ENDBRANCH   3  22
TORSDOF 7
ENDMDL
MODEL 8
REMARK VINA RESULT:      -4.6      5.294      7.078
REMARK  7 active torsions:
REMARK  status: ('A' for Active; 'I' for Inactive)
REMARK    1  A    between atoms: C_2  and  C_3 
REMARK    2  A    between atoms: C_3  and  O_6 
REMARK    3  A    between atoms: C_3  and  C_4 
REMARK    4  A    between atoms: C_7  and  O_6 
REMARK    5  A    between atoms: C_9  and  C_10 
REMARK    6  A    between atoms: N_15  and  C_14 
REMARK    7  A    between atoms: N_20  and  C_19 
REMARK       I    between atoms: C_22  and  N_20 
ROOT
ATOM      1  C   LIG d   1      -1.771  77.214 117.042  0.00  0.00     0.161 C 
ATOM      2  C   LIG d   1      -2.648  76.306 116.426  0.00  0.00     0.016 C 
ATOM      3  C   LIG d   1      -2.879  76.273 115.031  0.00  0.00     0.038 C 
ATOM      4  C   LIG d   1      -2.129  77.050 114.136  0.00  0.00     0.028 C 
ATOM      5  C   LIG d   1      -1.593  78.337 114.754  0.00  0.00    -0.047 C 
ATOM      6  C   LIG d   1      -0.861  77.995 116.072  0.00  0.00     0.091 C 
ENDROOT
BRANCH   1   7
ATOM      7  O   LIG d   1      -0.978  76.530 118.033  0.00  0.00    -0.368 OA
BRANCH   7   8
ATOM      8  C   LIG d   1      -0.745  75.119 117.800  0.00  0.00     0.119 C 
BRANCH   8   9
ATOM      9  C   LIG d   1      -0.556  74.448 119.174  0.00  0.00     0.028 C 
ATOM     10  C   LIG d   1      -0.371  72.926 119.064  0.00  0.00     0.006 C 
ENDBRANCH   8   9
BRANCH   8  11
ATOM     11  C   LIG d   1       0.571  74.888 117.051  0.00  0.00     0.028 C 
ATOM     12  C   LIG d   1       0.378  74.129 115.728  0.00  0.00     0.006 C 
ENDBRANCH   8  11
ENDBRANCH   7   8
ENDBRANCH   1   7
BRANCH   6  13
ATOM     13  N   LIG d   1      -0.378  79.207 116.784  0.00  0.00    -0.311 N 
ATOM     14  C   LIG d   1       0.856  79.330 117.269  0.00  0.00     0.210 C 
ATOM     15  C   LIG d   1       1.140  80.653 117.986  0.00  0.00     0.109 C 
ATOM     16  O   LIG d   1       1.752  78.481 117.145  0.00  0.00    -0.276 OA
ATOM     17  H   LIG d   1      -1.031  79.957 116.901  0.00  0.00     0.149 HD
ENDBRANCH   6  13
BRANCH   5  18
ATOM     18  N   LIG d   1      -0.718  78.980 113.756  0.00  0.00     0.381 N 
ATOM     19  H   LIG d   1       0.196  79.112 114.142  0.00  0.00    -0.090 HD
ATOM     20  H   LIG d   1      -1.095  79.882 113.525  0.00  0.00    -0.090 HD
ATOM     21  H   LIG d   1      -0.662  78.416 112.937  0.00  0.00    -0.090 HD
ENDBRANCH   5  18
BRANCH   3  22
ATOM     22  C   LIG d   1      -3.899  75.483 114.522  0.00  0.00     0.382 C 
ATOM     23  O   LIG d   1      -4.307  74.490 115.172  0.00  0.00    -0.241 OA
ATOM     24  O   LIG d   1      -4.384  75.723 113.401  0.00  0.00    -0.241 OA
ENDBRANCH   3  22
TORSDOF 7
ENDMDL
MODEL 9
REMARK VINA RESULT:      -4.6      4.945      6.921
REMARK  7 active torsions:
REMARK  status: ('A' for Active; 'I' for Inactive)
REMARK    1  A    between atoms: C_2  and  C_3 
REMARK    2  A    between atoms: C_3  and  O_6 
REMARK    3  A    between atoms: C_3  and  C_4 
REMARK    4  A    between atoms: C_7  and  O_6 
REMARK    5  A    between atoms: C_9  and  C_10 
REMARK    6  A    between atoms: N_15  and  C_14 
REMARK    7  A    between atoms: N_20  and  C_19 
REMARK       I    between atoms: C_22  and  N_20 
ROOT
ATOM      1  C   LIG d   1      -2.361  76.317 117.090  0.00  0.00     0.161 C 
ATOM      2  C   LIG d   1      -3.111  75.435 116.295  0.00  0.00     0.016 C 
ATOM      3  C   LIG d   1      -3.601  75.769 115.012  0.00  0.00     0.038 C 
ATOM      4  C   LIG d   1      -3.244  76.964 114.369  0.00  0.00     0.028 C 
ATOM      5  C   LIG d   1      -2.906  78.094 115.336  0.00  0.00    -0.047 C 
ATOM      6  C   LIG d   1      -1.867  77.584 116.360  0.00  0.00     0.091 C 
ENDROOT
BRANCH   1   7
ATOM      7  O   LIG d   1      -1.250  75.616 117.684  0.00  0.00    -0.368 OA
BRANCH   7   8
ATOM      8  C   LIG d   1      -0.044  75.538 116.884  0.00  0.00     0.119 C 
BRANCH   8   9
ATOM      9  C   LIG d   1       0.178  74.056 116.526  0.00  0.00     0.028 C 
ATOM     10  C   LIG d   1       0.640  73.867 115.071  0.00  0.00     0.006 C 
ENDBRANCH   8   9
BRANCH   8  11
ATOM     11  C   LIG d   1       1.189  75.949 117.694  0.00  0.00     0.028 C 
ATOM     12  C   LIG d   1       0.840  76.406 119.119  0.00  0.00     0.006 C 
ENDBRANCH   8  11
ENDBRANCH   7   8
ENDBRANCH   1   7
BRANCH   6  13
ATOM     13  N   LIG d   1      -1.544  78.601 117.394  0.00  0.00    -0.311 N 
ATOM     14  C   LIG d   1      -0.474  79.393 117.335  0.00  0.00     0.210 C 
ATOM     15  C   LIG d   1      -0.317  80.358 118.515  0.00  0.00     0.109 C 
ATOM     16  O   LIG d   1       0.343  79.410 116.402  0.00  0.00    -0.276 OA
ATOM     17  H   LIG d   1      -2.170  78.677 118.172  0.00  0.00     0.149 HD
ENDBRANCH   6  13
BRANCH   5  18
ATOM     18  N   LIG d   1      -2.419  79.234 114.537  0.00  0.00     0.381 N 
ATOM     19  H   LIG d   1      -2.141  79.979 115.144  0.00  0.00    -0.090 HD
ATOM     20  H   LIG d   1      -3.167  79.565 113.953  0.00  0.00    -0.090 HD
ATOM     21  H   LIG d   1      -1.649  78.950 113.973  0.00  0.00    -0.090 HD
ENDBRANCH   5  18
BRANCH   3  22
ATOM     22  C   LIG d   1      -4.493  74.920 114.374  0.00  0.00     0.382 C 
ATOM     23  O   LIG d   1      -4.917  75.202 113.228  0.00  0.00    -0.241 OA
ATOM     24  O   LIG d   1      -4.912  73.897 114.949  0.00  0.00    -0.241 OA
ENDBRANCH   3  22
TORSDOF 7
ENDMDL
