MODEL 1
REMARK VINA RESULT:      -5.7      0.000      0.000
REMARK  7 active torsions:
REMARK  status: ('A' for Active; 'I' for Inactive)
REMARK    1  A    between atoms: C_2  and  C_3 
REMARK    2  A    between atoms: C_3  and  O_6 
REMARK    3  A    between atoms: C_3  and  C_4 
REMARK    4  A    between atoms: C_7  and  O_6 
REMARK    5  A    between atoms: C_9  and  C_10 
REMARK    6  A    between atoms: N_15  and  C_14 
REMARK    7  A    between atoms: N_20  and  C_19 
REMARK       I    between atoms: C_22  and  N_20 
ROOT
ATOM      1  C   LIG d   1      -5.802  75.922 115.648  0.00  0.00     0.161 C 
ATOM      2  C   LIG d   1      -4.685  75.139 115.312  0.00  0.00     0.016 C 
ATOM      3  C   LIG d   1      -3.468  75.170 116.031  0.00  0.00     0.038 C 
ATOM      4  C   LIG d   1      -3.335  75.880 117.234  0.00  0.00     0.028 C 
ATOM      5  C   LIG d   1      -4.271  77.080 117.335  0.00  0.00    -0.047 C 
ATOM      6  C   LIG d   1      -5.713  76.620 117.022  0.00  0.00     0.091 C 
ENDROOT
BRANCH   1   7
ATOM      7  O   LIG d   1      -7.000  75.125 115.567  0.00  0.00    -0.368 OA
BRANCH   7   8
ATOM      8  C   LIG d   1      -7.307  74.317 116.730  0.00  0.00     0.119 C 
BRANCH   8   9
ATOM      9  C   LIG d   1      -7.263  72.840 116.291  0.00  0.00     0.028 C 
ATOM     10  C   LIG d   1      -8.503  72.054 116.749  0.00  0.00     0.006 C 
ENDBRANCH   8   9
BRANCH   8  11
ATOM     11  C   LIG d   1      -8.742  74.554 117.210  0.00  0.00     0.028 C 
ATOM     12  C   LIG d   1      -9.506  75.557 116.331  0.00  0.00     0.006 C 
ENDBRANCH   8  11
ENDBRANCH   7   8
ENDBRANCH   1   7
BRANCH   6  13
ATOM     13  N   LIG d   1      -6.680  77.748 117.016  0.00  0.00    -0.311 N 
ATOM     14  C   LIG d   1      -7.402  78.100 118.078  0.00  0.00     0.210 C 
ATOM     15  C   LIG d   1      -8.353  79.279 117.852  0.00  0.00     0.109 C 
ATOM     16  O   LIG d   1      -7.323  77.567 119.196  0.00  0.00    -0.276 OA
ATOM     17  H   LIG d   1      -6.785  78.255 116.159  0.00  0.00     0.149 HD
ENDBRANCH   6  13
BRANCH   5  18
ATOM     18  N   LIG d   1      -4.126  77.645 118.690  0.00  0.00     0.381 N 
ATOM     19  H   LIG d   1      -3.159  77.675 118.942  0.00  0.00    -0.090 HD
ATOM     20  H   LIG d   1      -4.605  77.051 119.343  0.00  0.00    -0.090 HD
ATOM     21  H   LIG d   1      -4.513  78.563 118.720  0.00  0.00    -0.090 HD
ENDBRANCH   5  18
BRANCH   3  22
ATOM     22  C   LIG d   1      -2.354  74.516 115.526  0.00  0.00     0.382 C 
ATOM     23  O   LIG d   1      -1.421  74.183 116.295  0.00  0.00    -0.241 OA
ATOM     24  O   LIG d   1      -2.252  74.295 114.305  0.00  0.00    -0.241 OA
ENDBRANCH   3  22
TORSDOF 7
ENDMDL
MODEL 2
REMARK VINA RESULT:      -5.6      2.082      4.671
REMARK  7 active torsions:
REMARK  status: ('A' for Active; 'I' for Inactive)
REMARK    1  A    between atoms: C_2  and  C_3 
REMARK    2  A    between atoms: C_3  and  O_6 
REMARK    3  A    between atoms: C_3  and  C_4 
REMARK    4  A    between atoms: C_7  and  O_6 
REMARK    5  A    between atoms: C_9  and  C_10 
REMARK    6  A    between atoms: N_15  and  C_14 
REMARK    7  A    between atoms: N_20  and  C_19 
REMARK       I    between atoms: C_22  and  N_20 
ROOT
ATOM      1  C   LIG d   1      -6.661  75.506 117.577  0.00  0.00     0.161 C 
ATOM      2  C   LIG d   1      -6.951  74.220 117.091  0.00  0.00     0.016 C 
ATOM      3  C   LIG d   1      -8.258  73.787 116.766  0.00  0.00     0.038 C 
ATOM      4  C   LIG d   1      -9.350  74.667 116.763  0.00  0.00     0.028 C 
ATOM      5  C   LIG d   1      -9.190  75.836 117.728  0.00  0.00    -0.047 C 
ATOM      6  C   LIG d   1      -7.825  76.514 117.474  0.00  0.00     0.091 C 
ENDROOT
BRANCH   1   7
ATOM      7  O   LIG d   1      -5.489  76.024 116.917  0.00  0.00    -0.368 OA
BRANCH   7   8
ATOM      8  C   LIG d   1      -4.821  75.121 116.002  0.00  0.00     0.119 C 
BRANCH   8   9
ATOM      9  C   LIG d   1      -3.362  74.978 116.476  0.00  0.00     0.028 C 
ATOM     10  C   LIG d   1      -2.395  74.678 115.318  0.00  0.00     0.006 C 
ENDBRANCH   8   9
BRANCH   8  11
ATOM     11  C   LIG d   1      -4.733  75.718 114.594  0.00  0.00     0.028 C 
ATOM     12  C   LIG d   1      -6.104  75.841 113.912  0.00  0.00     0.006 C 
ENDBRANCH   8  11
ENDBRANCH   7   8
ENDBRANCH   1   7
BRANCH   6  13
ATOM     13  N   LIG d   1      -7.551  77.616 118.432  0.00  0.00    -0.311 N 
ATOM     14  C   LIG d   1      -7.089  78.810 118.065  0.00  0.00     0.210 C 
ATOM     15  C   LIG d   1      -6.857  79.795 119.214  0.00  0.00     0.109 C 
ATOM     16  O   LIG d   1      -6.880  79.157 116.893  0.00  0.00    -0.276 OA
ATOM     17  H   LIG d   1      -7.723  77.431 119.401  0.00  0.00     0.149 HD
ENDBRANCH   6  13
BRANCH   5  18
ATOM     18  N   LIG d   1     -10.334  76.744 117.522  0.00  0.00     0.381 N 
ATOM     19  H   LIG d   1     -10.180  77.601 118.016  0.00  0.00    -0.090 HD
ATOM     20  H   LIG d   1     -11.163  76.313 117.892  0.00  0.00    -0.090 HD
ATOM     21  H   LIG d   1     -10.452  76.929 116.550  0.00  0.00    -0.090 HD
ENDBRANCH   5  18
BRANCH   3  22
ATOM     22  C   LIG d   1      -8.487  72.450 116.479  0.00  0.00     0.382 C 
ATOM     23  O   LIG d   1      -7.589  71.762 115.937  0.00  0.00    -0.241 OA
ATOM     24  O   LIG d   1      -9.596  71.935 116.715  0.00  0.00    -0.241 OA
ENDBRANCH   3  22
TORSDOF 7
ENDMDL
MODEL 3
REMARK VINA RESULT:      -5.4      2.014      5.357
REMARK  7 active torsions:
REMARK  status: ('A' for Active; 'I' for Inactive)
REMARK    1  A    between atoms: C_2  and  C_3 
REMARK    2  A    between atoms: C_3  and  O_6 
REMARK    3  A    between atoms: C_3  and  C_4 
REMARK    4  A    between atoms: C_7  and  O_6 
REMARK    5  A    between atoms: C_9  and  C_10 
REMARK    6  A    between atoms: N_15  and  C_14 
REMARK    7  A    between atoms: N_20  and  C_19 
REMARK       I    between atoms: C_22  and  N_20 
ROOT
ATOM      1  C   LIG d   1      -7.393  76.889 117.543  0.00  0.00     0.161 C 
ATOM      2  C   LIG d   1      -8.622  77.514 117.815  0.00  0.00     0.016 C 
ATOM      3  C   LIG d   1      -8.768  78.912 117.965  0.00  0.00     0.038 C 
ATOM      4  C   LIG d   1      -7.714  79.800 117.701  0.00  0.00     0.028 C 
ATOM      5  C   LIG d   1      -6.335  79.185 117.917  0.00  0.00    -0.047 C 
ATOM      6  C   LIG d   1      -6.254  77.850 117.142  0.00  0.00     0.091 C 
ENDROOT
BRANCH   1   7
ATOM      7  O   LIG d   1      -7.573  75.876 116.534  0.00  0.00    -0.368 OA
BRANCH   7   8
ATOM      8  C   LIG d   1      -7.752  74.521 117.015  0.00  0.00     0.119 C 
BRANCH   8   9
ATOM      9  C   LIG d   1      -6.750  73.626 116.260  0.00  0.00     0.028 C 
ATOM     10  C   LIG d   1      -5.941  74.406 115.211  0.00  0.00     0.006 C 
ENDBRANCH   8   9
BRANCH   8  11
ATOM     11  C   LIG d   1      -9.137  73.978 116.649  0.00  0.00     0.028 C 
ATOM     12  C   LIG d   1      -9.178  72.443 116.592  0.00  0.00     0.006 C 
ENDBRANCH   8  11
ENDBRANCH   7   8
ENDBRANCH   1   7
BRANCH   6  13
ATOM     13  N   LIG d   1      -4.968  77.141 117.368  0.00  0.00    -0.311 N 
ATOM     14  C   LIG d   1      -3.916  77.254 116.558  0.00  0.00     0.210 C 
ATOM     15  C   LIG d   1      -2.696  76.422 116.963  0.00  0.00     0.109 C 
ATOM     16  O   LIG d   1      -3.868  77.991 115.562  0.00  0.00    -0.276 OA
ATOM     17  H   LIG d   1      -4.909  76.546 118.171  0.00  0.00     0.149 HD
ENDBRANCH   6  13
BRANCH   5  18
ATOM     18  N   LIG d   1      -5.333  80.172 117.475  0.00  0.00     0.381 N 
ATOM     19  H   LIG d   1      -5.716  81.094 117.535  0.00  0.00    -0.090 HD
ATOM     20  H   LIG d   1      -5.099  79.990 116.515  0.00  0.00    -0.090 HD
ATOM     21  H   LIG d   1      -4.516  80.106 118.042  0.00  0.00    -0.090 HD
ENDBRANCH   5  18
BRANCH   3  22
ATOM     22  C   LIG d   1      -9.969  79.433 118.421  0.00  0.00     0.382 C 
ATOM     23  O   LIG d   1     -10.022  80.616 118.837  0.00  0.00    -0.241 OA
ATOM     24  O   LIG d   1     -10.990  78.721 118.464  0.00  0.00    -0.241 OA
ENDBRANCH   3  22
TORSDOF 7
ENDMDL
MODEL 4
REMARK VINA RESULT:      -5.0      1.934      4.677
REMARK  7 active torsions:
REMARK  status: ('A' for Active; 'I' for Inactive)
REMARK    1  A    between atoms: C_2  and  C_3 
REMARK    2  A    between atoms: C_3  and  O_6 
REMARK    3  A    between atoms: C_3  and  C_4 
REMARK    4  A    between atoms: C_7  and  O_6 
REMARK    5  A    between atoms: C_9  and  C_10 
REMARK    6  A    between atoms: N_15  and  C_14 
REMARK    7  A    between atoms: N_20  and  C_19 
REMARK       I    between atoms: C_22  and  N_20 
ROOT
ATOM      1  C   LIG d   1      -6.323  75.885 116.689  0.00  0.00     0.161 C 
ATOM      2  C   LIG d   1      -6.766  74.608 116.307  0.00  0.00     0.016 C 
ATOM      3  C   LIG d   1      -8.077  74.135 116.545  0.00  0.00     0.038 C 
ATOM      4  C   LIG d   1      -9.086  74.970 117.049  0.00  0.00     0.028 C 
ATOM      5  C   LIG d   1      -8.554  76.107 117.915  0.00  0.00    -0.047 C 
ATOM      6  C   LIG d   1      -7.441  76.849 117.140  0.00  0.00     0.091 C 
ENDROOT
BRANCH   1   7
ATOM      7  O   LIG d   1      -5.554  76.474 115.622  0.00  0.00    -0.368 OA
BRANCH   7   8
ATOM      8  C   LIG d   1      -4.143  76.670 115.887  0.00  0.00     0.119 C 
BRANCH   8   9
ATOM      9  C   LIG d   1      -3.375  75.552 115.156  0.00  0.00     0.028 C 
ATOM     10  C   LIG d   1      -2.629  74.621 116.126  0.00  0.00     0.006 C 
ENDBRANCH   8   9
BRANCH   8  11
ATOM     11  C   LIG d   1      -3.822  76.477 117.372  0.00  0.00     0.028 C 
ATOM     12  C   LIG d   1      -3.250  77.744 118.028  0.00  0.00     0.006 C 
ENDBRANCH   8  11
ENDBRANCH   7   8
ENDBRANCH   1   7
BRANCH   6  13
ATOM     13  N   LIG d   1      -6.808  77.924 117.948  0.00  0.00    -0.311 N 
ATOM     14  C   LIG d   1      -7.208  79.194 117.919  0.00  0.00     0.210 C 
ATOM     15  C   LIG d   1      -6.407  80.145 118.813  0.00  0.00     0.109 C 
ATOM     16  O   LIG d   1      -8.171  79.618 117.262  0.00  0.00    -0.276 OA
ATOM     17  H   LIG d   1      -6.039  77.663 118.533  0.00  0.00     0.149 HD
ENDBRANCH   6  13
BRANCH   5  18
ATOM     18  N   LIG d   1      -9.696  76.976 118.259  0.00  0.00     0.381 N 
ATOM     19  H   LIG d   1      -9.379  77.917 118.385  0.00  0.00    -0.090 HD
ATOM     20  H   LIG d   1     -10.096  76.659 119.124  0.00  0.00    -0.090 HD
ATOM     21  H   LIG d   1     -10.380  76.942 117.536  0.00  0.00    -0.090 HD
ENDBRANCH   5  18
BRANCH   3  22
ATOM     22  C   LIG d   1      -8.380  72.802 116.314  0.00  0.00     0.382 C 
ATOM     23  O   LIG d   1      -7.501  72.029 115.863  0.00  0.00    -0.241 OA
ATOM     24  O   LIG d   1      -9.533  72.373 116.509  0.00  0.00    -0.241 OA
ENDBRANCH   3  22
TORSDOF 7
ENDMDL
MODEL 5
REMARK VINA RESULT:      -4.9      2.117      4.463
REMARK  7 active torsions:
REMARK  status: ('A' for Active; 'I' for Inactive)
REMARK    1  A    between atoms: C_2  and  C_3 
REMARK    2  A    between atoms: C_3  and  O_6 
REMARK    3  A    between atoms: C_3  and  C_4 
REMARK    4  A    between atoms: C_7  and  O_6 
REMARK    5  A    between atoms: C_9  and  C_10 
REMARK    6  A    between atoms: N_15  and  C_14 
REMARK    7  A    between atoms: N_20  and  C_19 
REMARK       I    between atoms: C_22  and  N_20 
ROOT
ATOM      1  C   LIG d   1      -6.008  76.999 117.131  0.00  0.00     0.161 C 
ATOM      2  C   LIG d   1      -4.771  76.517 116.670  0.00  0.00     0.016 C 
ATOM      3  C   LIG d   1      -4.592  75.221 116.134  0.00  0.00     0.038 C 
ATOM      4  C   LIG d   1      -5.675  74.366 115.882  0.00  0.00     0.028 C 
ATOM      5  C   LIG d   1      -6.870  74.617 116.796  0.00  0.00    -0.047 C 
ATOM      6  C   LIG d   1      -7.222  76.121 116.761  0.00  0.00     0.091 C 
ENDROOT
BRANCH   1   7
ATOM      7  O   LIG d   1      -6.207  78.350 116.671  0.00  0.00    -0.368 OA
BRANCH   7   8
ATOM      8  C   LIG d   1      -6.248  79.373 117.697  0.00  0.00     0.119 C 
BRANCH   8   9
ATOM      9  C   LIG d   1      -7.677  79.949 117.719  0.00  0.00     0.028 C 
ATOM     10  C   LIG d   1      -7.701  81.467 117.469  0.00  0.00     0.006 C 
ENDBRANCH   8   9
BRANCH   8  11
ATOM     11  C   LIG d   1      -5.339  80.554 117.343  0.00  0.00     0.028 C 
ATOM     12  C   LIG d   1      -3.919  80.116 116.951  0.00  0.00     0.006 C 
ENDBRANCH   8  11
ENDBRANCH   7   8
ENDBRANCH   1   7
BRANCH   6  13
ATOM     13  N   LIG d   1      -8.327  76.467 117.693  0.00  0.00    -0.311 N 
ATOM     14  C   LIG d   1      -9.615  76.369 117.371  0.00  0.00     0.210 C 
ATOM     15  C   LIG d   1     -10.591  76.795 118.473  0.00  0.00     0.109 C 
ATOM     16  O   LIG d   1     -10.043  75.940 116.289  0.00  0.00    -0.276 OA
ATOM     17  H   LIG d   1      -8.070  76.794 118.604  0.00  0.00     0.149 HD
ENDBRANCH   6  13
BRANCH   5  18
ATOM     18  N   LIG d   1      -7.973  73.754 116.334  0.00  0.00     0.381 N 
ATOM     19  H   LIG d   1      -8.752  74.318 116.057  0.00  0.00    -0.090 HD
ATOM     20  H   LIG d   1      -8.266  73.165 117.094  0.00  0.00    -0.090 HD
ATOM     21  H   LIG d   1      -7.671  73.194 115.568  0.00  0.00    -0.090 HD
ENDBRANCH   5  18
BRANCH   3  22
ATOM     22  C   LIG d   1      -3.311  74.753 115.881  0.00  0.00     0.382 C 
ATOM     23  O   LIG d   1      -2.549  74.467 116.836  0.00  0.00    -0.241 OA
ATOM     24  O   LIG d   1      -2.894  74.654 114.712  0.00  0.00    -0.241 OA
ENDBRANCH   3  22
TORSDOF 7
ENDMDL
MODEL 6
REMARK VINA RESULT:      -4.8      2.551      5.669
REMARK  7 active torsions:
REMARK  status: ('A' for Active; 'I' for Inactive)
REMARK    1  A    between atoms: C_2  and  C_3 
REMARK    2  A    between atoms: C_3  and  O_6 
REMARK    3  A    between atoms: C_3  and  C_4 
REMARK    4  A    between atoms: C_7  and  O_6 
REMARK    5  A    between atoms: C_9  and  C_10 
REMARK    6  A    between atoms: N_15  and  C_14 
REMARK    7  A    between atoms: N_20  and  C_19 
REMARK       I    between atoms: C_22  and  N_20 
ROOT
ATOM      1  C   LIG d   1      -7.220  76.898 116.813  0.00  0.00     0.161 C 
ATOM      2  C   LIG d   1      -6.909  78.236 117.106  0.00  0.00     0.016 C 
ATOM      3  C   LIG d   1      -7.764  79.091 117.840  0.00  0.00     0.038 C 
ATOM      4  C   LIG d   1      -8.927  78.617 118.464  0.00  0.00     0.028 C 
ATOM      5  C   LIG d   1      -9.534  77.401 117.773  0.00  0.00    -0.047 C 
ATOM      6  C   LIG d   1      -8.433  76.333 117.581  0.00  0.00     0.091 C 
ENDROOT
BRANCH   1   7
ATOM      7  O   LIG d   1      -6.061  76.068 117.028  0.00  0.00    -0.368 OA
BRANCH   7   8
ATOM      8  C   LIG d   1      -5.141  75.957 115.914  0.00  0.00     0.119 C 
BRANCH   8   9
ATOM      9  C   LIG d   1      -5.868  75.198 114.788  0.00  0.00     0.028 C 
ATOM     10  C   LIG d   1      -5.803  75.940 113.443  0.00  0.00     0.006 C 
ENDBRANCH   8   9
BRANCH   8  11
ATOM     11  C   LIG d   1      -3.932  75.089 116.275  0.00  0.00     0.028 C 
ATOM     12  C   LIG d   1      -2.680  75.440 115.455  0.00  0.00     0.006 C 
ENDBRANCH   8  11
ENDBRANCH   7   8
ENDBRANCH   1   7
BRANCH   6  13
ATOM     13  N   LIG d   1      -8.922  75.143 116.836  0.00  0.00    -0.311 N 
ATOM     14  C   LIG d   1      -8.478  73.907 117.056  0.00  0.00     0.210 C 
ATOM     15  C   LIG d   1      -9.100  72.828 116.164  0.00  0.00     0.109 C 
ATOM     16  O   LIG d   1      -7.651  73.597 117.927  0.00  0.00    -0.276 OA
ATOM     17  H   LIG d   1      -9.617  75.299 116.132  0.00  0.00     0.149 HD
ENDBRANCH   6  13
BRANCH   5  18
ATOM     18  N   LIG d   1     -10.658  76.930 118.604  0.00  0.00     0.381 N 
ATOM     19  H   LIG d   1     -11.490  76.880 118.052  0.00  0.00    -0.090 HD
ATOM     20  H   LIG d   1     -10.812  77.590 119.347  0.00  0.00    -0.090 HD
ATOM     21  H   LIG d   1     -10.448  76.034 118.985  0.00  0.00    -0.090 HD
ENDBRANCH   5  18
BRANCH   3  22
ATOM     22  C   LIG d   1      -7.477  80.445 117.921  0.00  0.00     0.382 C 
ATOM     23  O   LIG d   1      -7.431  81.139 116.877  0.00  0.00    -0.241 OA
ATOM     24  O   LIG d   1      -7.219  80.971 119.020  0.00  0.00    -0.241 OA
ENDBRANCH   3  22
TORSDOF 7
ENDMDL
MODEL 7
REMARK VINA RESULT:      -4.5     15.361     18.109
REMARK  7 active torsions:
REMARK  status: ('A' for Active; 'I' for Inactive)
REMARK    1  A    between atoms: C_2  and  C_3 
REMARK    2  A    between atoms: C_3  and  O_6 
REMARK    3  A    between atoms: C_3  and  C_4 
REMARK    4  A    between atoms: C_7  and  O_6 
REMARK    5  A    between atoms: C_9  and  C_10 
REMARK    6  A    between atoms: N_15  and  C_14 
REMARK    7  A    between atoms: N_20  and  C_19 
REMARK       I    between atoms: C_22  and  N_20 
ROOT
ATOM      1  C   LIG d   1      -6.364  92.406 119.272  0.00  0.00     0.161 C 
ATOM      2  C   LIG d   1      -7.548  93.161 119.256  0.00  0.00     0.016 C 
ATOM      3  C   LIG d   1      -7.570  94.574 119.214  0.00  0.00     0.038 C 
ATOM      4  C   LIG d   1      -6.402  95.328 119.030  0.00  0.00     0.028 C 
ATOM      5  C   LIG d   1      -5.146  94.635 119.547  0.00  0.00    -0.047 C 
ATOM      6  C   LIG d   1      -5.082  93.207 118.960  0.00  0.00     0.091 C 
ENDROOT
BRANCH   1   7
ATOM      7  O   LIG d   1      -6.486  91.286 118.373  0.00  0.00    -0.368 OA
BRANCH   7   8
ATOM      8  C   LIG d   1      -6.837  91.604 117.003  0.00  0.00     0.119 C 
BRANCH   8   9
ATOM      9  C   LIG d   1      -7.924  90.606 116.560  0.00  0.00     0.028 C 
ATOM     10  C   LIG d   1      -8.112  90.582 115.034  0.00  0.00     0.006 C 
ENDBRANCH   8   9
BRANCH   8  11
ATOM     11  C   LIG d   1      -5.657  91.365 116.056  0.00  0.00     0.028 C 
ATOM     12  C   LIG d   1      -4.756  90.206 116.508  0.00  0.00     0.006 C 
ENDBRANCH   8  11
ENDBRANCH   7   8
ENDBRANCH   1   7
BRANCH   6  13
ATOM     13  N   LIG d   1      -3.928  92.430 119.482  0.00  0.00    -0.311 N 
ATOM     14  C   LIG d   1      -2.756  92.347 118.854  0.00  0.00     0.210 C 
ATOM     15  C   LIG d   1      -1.707  91.478 119.555  0.00  0.00     0.109 C 
ATOM     16  O   LIG d   1      -2.475  92.937 117.800  0.00  0.00    -0.276 OA
ATOM     17  H   LIG d   1      -4.059  91.945 120.348  0.00  0.00     0.149 HD
ENDBRANCH   6  13
BRANCH   5  18
ATOM     18  N   LIG d   1      -3.989  95.468 119.169  0.00  0.00     0.381 N 
ATOM     19  H   LIG d   1      -3.572  95.109 118.333  0.00  0.00    -0.090 HD
ATOM     20  H   LIG d   1      -3.306  95.430 119.904  0.00  0.00    -0.090 HD
ATOM     21  H   LIG d   1      -4.280  96.410 119.024  0.00  0.00    -0.090 HD
ENDBRANCH   5  18
BRANCH   3  22
ATOM     22  C   LIG d   1      -8.768  95.249 119.396  0.00  0.00     0.382 C 
ATOM     23  O   LIG d   1      -8.770  96.495 119.540  0.00  0.00    -0.241 OA
ATOM     24  O   LIG d   1      -9.842  94.622 119.462  0.00  0.00    -0.241 OA
ENDBRANCH   3  22
TORSDOF 7
ENDMDL
MODEL 8
REMARK VINA RESULT:      -4.4     13.807     16.771
REMARK  7 active torsions:
REMARK  status: ('A' for Active; 'I' for Inactive)
REMARK    1  A    between atoms: C_2  and  C_3 
REMARK    2  A    between atoms: C_3  and  O_6 
REMARK    3  A    between atoms: C_3  and  C_4 
REMARK    4  A    between atoms: C_7  and  O_6 
REMARK    5  A    between atoms: C_9  and  C_10 
REMARK    6  A    between atoms: N_15  and  C_14 
REMARK    7  A    between atoms: N_20  and  C_19 
REMARK       I    between atoms: C_22  and  N_20 
ROOT
ATOM      1  C   LIG d   1     -17.615  64.611 115.664  0.00  0.00     0.161 C 
ATOM      2  C   LIG d   1     -16.483  64.743 116.485  0.00  0.00     0.016 C 
ATOM      3  C   LIG d   1     -16.267  65.849 117.339  0.00  0.00     0.038 C 
ATOM      4  C   LIG d   1     -17.247  66.832 117.543  0.00  0.00     0.028 C 
ATOM      5  C   LIG d   1     -18.190  67.002 116.356  0.00  0.00    -0.047 C 
ATOM      6  C   LIG d   1     -18.748  65.618 115.955  0.00  0.00     0.091 C 
ENDROOT
BRANCH   1   7
ATOM      7  O   LIG d   1     -18.115  63.261 115.735  0.00  0.00    -0.368 OA
BRANCH   7   8
ATOM      8  C   LIG d   1     -17.904  62.441 114.559  0.00  0.00     0.119 C 
BRANCH   8   9
ATOM      9  C   LIG d   1     -19.279  62.215 113.899  0.00  0.00     0.028 C 
ATOM     10  C   LIG d   1     -20.411  62.085 114.932  0.00  0.00     0.006 C 
ENDBRANCH   8   9
BRANCH   8  11
ATOM     11  C   LIG d   1     -17.402  61.044 114.937  0.00  0.00     0.028 C 
ATOM     12  C   LIG d   1     -16.855  60.975 116.371  0.00  0.00     0.006 C 
ENDBRANCH   8  11
ENDBRANCH   7   8
ENDBRANCH   1   7
BRANCH   6  13
ATOM     13  N   LIG d   1     -19.613  65.683 114.749  0.00  0.00    -0.311 N 
ATOM     14  C   LIG d   1     -20.940  65.788 114.804  0.00  0.00     0.210 C 
ATOM     15  C   LIG d   1     -21.642  65.819 113.443  0.00  0.00     0.109 C 
ATOM     16  O   LIG d   1     -21.599  65.891 115.849  0.00  0.00    -0.276 OA
ATOM     17  H   LIG d   1     -19.158  65.637 113.858  0.00  0.00     0.149 HD
ENDBRANCH   6  13
BRANCH   5  18
ATOM     18  N   LIG d   1     -19.241  67.956 116.756  0.00  0.00     0.381 N 
ATOM     19  H   LIG d   1     -18.824  68.777 117.147  0.00  0.00    -0.090 HD
ATOM     20  H   LIG d   1     -19.817  67.529 117.460  0.00  0.00    -0.090 HD
ATOM     21  H   LIG d   1     -19.797  68.201 115.966  0.00  0.00    -0.090 HD
ENDBRANCH   5  18
BRANCH   3  22
ATOM     22  C   LIG d   1     -15.041  66.001 117.969  0.00  0.00     0.382 C 
ATOM     23  O   LIG d   1     -14.464  67.115 117.959  0.00  0.00    -0.241 OA
ATOM     24  O   LIG d   1     -14.484  65.027 118.510  0.00  0.00    -0.241 OA
ENDBRANCH   3  22
TORSDOF 7
ENDMDL
MODEL 9
REMARK VINA RESULT:      -4.4     15.521     17.639
REMARK  7 active torsions:
REMARK  status: ('A' for Active; 'I' for Inactive)
REMARK    1  A    between atoms: C_2  and  C_3 
REMARK    2  A    between atoms: C_3  and  O_6 
REMARK    3  A    between atoms: C_3  and  C_4 
REMARK    4  A    between atoms: C_7  and  O_6 
REMARK    5  A    between atoms: C_9  and  C_10 
REMARK    6  A    between atoms: N_15  and  C_14 
REMARK    7  A    between atoms: N_20  and  C_19 
REMARK       I    between atoms: C_22  and  N_20 
ROOT
ATOM      1  C   LIG d   1       3.714  89.159 115.813  0.00  0.00     0.161 C 
ATOM      2  C   LIG d   1       2.525  89.803 116.193  0.00  0.00     0.016 C 
ATOM      3  C   LIG d   1       2.375  90.506 117.410  0.00  0.00     0.038 C 
ATOM      4  C   LIG d   1       3.460  90.744 118.267  0.00  0.00     0.028 C 
ATOM      5  C   LIG d   1       4.554  89.685 118.168  0.00  0.00    -0.047 C 
ATOM      6  C   LIG d   1       4.942  89.502 116.683  0.00  0.00     0.091 C 
ENDROOT
BRANCH   1   7
ATOM      7  O   LIG d   1       3.994  89.430 114.425  0.00  0.00    -0.368 OA
BRANCH   7   8
ATOM      8  C   LIG d   1       3.785  88.328 113.507  0.00  0.00     0.119 C 
BRANCH   8   9
ATOM      9  C   LIG d   1       3.376  87.100 114.342  0.00  0.00     0.028 C 
ATOM     10  C   LIG d   1       4.350  85.922 114.170  0.00  0.00     0.006 C 
ENDBRANCH   8   9
BRANCH   8  11
ATOM     11  C   LIG d   1       5.088  87.929 112.809  0.00  0.00     0.028 C 
ATOM     12  C   LIG d   1       6.190  88.992 112.951  0.00  0.00     0.006 C 
ENDBRANCH   8  11
ENDBRANCH   7   8
ENDBRANCH   1   7
BRANCH   6  13
ATOM     13  N   LIG d   1       5.946  88.424 116.489  0.00  0.00    -0.311 N 
ATOM     14  C   LIG d   1       7.257  88.647 116.418  0.00  0.00     0.210 C 
ATOM     15  C   LIG d   1       8.115  87.398 116.194  0.00  0.00     0.109 C 
ATOM     16  O   LIG d   1       7.793  89.757 116.551  0.00  0.00    -0.276 OA
ATOM     17  H   LIG d   1       5.600  87.488 116.402  0.00  0.00     0.149 HD
ENDBRANCH   6  13
BRANCH   5  18
ATOM     18  N   LIG d   1       5.681  90.128 119.010  0.00  0.00     0.381 N 
ATOM     19  H   LIG d   1       5.546  91.082 119.282  0.00  0.00    -0.090 HD
ATOM     20  H   LIG d   1       6.529  90.070 118.475  0.00  0.00    -0.090 HD
ATOM     21  H   LIG d   1       5.750  89.552 119.819  0.00  0.00    -0.090 HD
ENDBRANCH   5  18
BRANCH   3  22
ATOM     22  C   LIG d   1       1.120  90.947 117.800  0.00  0.00     0.382 C 
ATOM     23  O   LIG d   1       1.012  91.834 118.681  0.00  0.00    -0.241 OA
ATOM     24  O   LIG d   1       0.093  90.437 117.314  0.00  0.00    -0.241 OA
ENDBRANCH   3  22
TORSDOF 7
ENDMDL
