MODEL 1
REMARK VINA RESULT:      -6.0      0.000      0.000
REMARK  7 active torsions:
REMARK  status: ('A' for Active; 'I' for Inactive)
REMARK    1  A    between atoms: C_2  and  C_3 
REMARK    2  A    between atoms: C_3  and  O_6 
REMARK    3  A    between atoms: C_3  and  C_4 
REMARK    4  A    between atoms: C_7  and  O_6 
REMARK    5  A    between atoms: C_9  and  C_10 
REMARK    6  A    between atoms: N_15  and  C_14 
REMARK    7  A    between atoms: N_20  and  C_19 
REMARK       I    between atoms: C_22  and  N_20 
ROOT
ATOM      1  C   LIG d   1      -7.552  76.131 117.644  0.00  0.00     0.161 C 
ATOM      2  C   LIG d   1      -8.863  76.443 118.040  0.00  0.00     0.016 C 
ATOM      3  C   LIG d   1      -9.310  77.763 118.278  0.00  0.00     0.038 C 
ATOM      4  C   LIG d   1      -8.513  78.880 117.987  0.00  0.00     0.028 C 
ATOM      5  C   LIG d   1      -7.017  78.593 118.066  0.00  0.00    -0.047 C 
ATOM      6  C   LIG d   1      -6.700  77.343 117.214  0.00  0.00     0.091 C 
ENDROOT
BRANCH   1   7
ATOM      7  O   LIG d   1      -7.580  75.142 116.596  0.00  0.00    -0.368 OA
BRANCH   7   8
ATOM      8  C   LIG d   1      -6.915  73.888 116.884  0.00  0.00     0.119 C 
BRANCH   8   9
ATOM      9  C   LIG d   1      -6.380  73.330 115.551  0.00  0.00     0.028 C 
ATOM     10  C   LIG d   1      -5.643  74.396 114.722  0.00  0.00     0.006 C 
ENDBRANCH   8   9
BRANCH   8  11
ATOM     11  C   LIG d   1      -7.904  72.836 117.396  0.00  0.00     0.028 C 
ATOM     12  C   LIG d   1      -8.347  71.852 116.302  0.00  0.00     0.006 C 
ENDBRANCH   8  11
ENDBRANCH   7   8
ENDBRANCH   1   7
BRANCH   6  13
ATOM     13  N   LIG d   1      -5.271  76.944 117.304  0.00  0.00    -0.311 N 
ATOM     14  C   LIG d   1      -4.341  77.348 116.440  0.00  0.00     0.210 C 
ATOM     15  C   LIG d   1      -2.934  76.803 116.704  0.00  0.00     0.109 C 
ATOM     16  O   LIG d   1      -4.542  78.131 115.500  0.00  0.00    -0.276 OA
ATOM     17  H   LIG d   1      -5.014  76.334 118.056  0.00  0.00     0.149 HD
ENDBRANCH   6  13
BRANCH   5  18
ATOM     18  N   LIG d   1      -6.307  79.802 117.606  0.00  0.00     0.381 N 
ATOM     19  H   LIG d   1      -5.395  79.835 118.016  0.00  0.00    -0.090 HD
ATOM     20  H   LIG d   1      -6.818  80.613 117.908  0.00  0.00    -0.090 HD
ATOM     21  H   LIG d   1      -6.234  79.797 116.613  0.00  0.00    -0.090 HD
ENDBRANCH   5  18
BRANCH   3  22
ATOM     22  C   LIG d   1     -10.556  77.974 118.850  0.00  0.00     0.382 C 
ATOM     23  O   LIG d   1     -11.494  77.172 118.623  0.00  0.00    -0.241 OA
ATOM     24  O   LIG d   1     -10.765  78.979 119.555  0.00  0.00    -0.241 OA
ENDBRANCH   3  22
TORSDOF 7
ENDMDL
MODEL 2
REMARK VINA RESULT:      -5.7      2.274      5.103
REMARK  7 active torsions:
REMARK  status: ('A' for Active; 'I' for Inactive)
REMARK    1  A    between atoms: C_2  and  C_3 
REMARK    2  A    between atoms: C_3  and  O_6 
REMARK    3  A    between atoms: C_3  and  C_4 
REMARK    4  A    between atoms: C_7  and  O_6 
REMARK    5  A    between atoms: C_9  and  C_10 
REMARK    6  A    between atoms: N_15  and  C_14 
REMARK    7  A    between atoms: N_20  and  C_19 
REMARK       I    between atoms: C_22  and  N_20 
ROOT
ATOM      1  C   LIG d   1      -5.539  75.957 116.108  0.00  0.00     0.161 C 
ATOM      2  C   LIG d   1      -5.940  74.673 115.704  0.00  0.00     0.016 C 
ATOM      3  C   LIG d   1      -7.136  74.058 116.140  0.00  0.00     0.038 C 
ATOM      4  C   LIG d   1      -8.094  74.752 116.895  0.00  0.00     0.028 C 
ATOM      5  C   LIG d   1      -7.501  75.873 117.743  0.00  0.00    -0.047 C 
ATOM      6  C   LIG d   1      -6.624  76.772 116.843  0.00  0.00     0.091 C 
ENDROOT
BRANCH   1   7
ATOM      7  O   LIG d   1      -5.042  76.693 114.972  0.00  0.00    -0.368 OA
BRANCH   7   8
ATOM      8  C   LIG d   1      -3.602  76.794 114.859  0.00  0.00     0.119 C 
BRANCH   8   9
ATOM      9  C   LIG d   1      -3.273  78.227 114.395  0.00  0.00     0.028 C 
ATOM     10  C   LIG d   1      -3.417  79.258 115.526  0.00  0.00     0.006 C 
ENDBRANCH   8   9
BRANCH   8  11
ATOM     11  C   LIG d   1      -3.064  75.877 113.757  0.00  0.00     0.028 C 
ATOM     12  C   LIG d   1      -1.529  75.885 113.671  0.00  0.00     0.006 C 
ENDBRANCH   8  11
ENDBRANCH   7   8
ENDBRANCH   1   7
BRANCH   6  13
ATOM     13  N   LIG d   1      -5.938  77.845 117.609  0.00  0.00    -0.311 N 
ATOM     14  C   LIG d   1      -6.433  79.073 117.755  0.00  0.00     0.210 C 
ATOM     15  C   LIG d   1      -5.556  80.031 118.567  0.00  0.00     0.109 C 
ATOM     16  O   LIG d   1      -7.530  79.450 117.316  0.00  0.00    -0.276 OA
ATOM     17  H   LIG d   1      -5.057  77.616 118.025  0.00  0.00     0.149 HD
ENDBRANCH   6  13
BRANCH   5  18
ATOM     18  N   LIG d   1      -8.622  76.598 118.369  0.00  0.00     0.381 N 
ATOM     19  H   LIG d   1      -8.379  76.854 119.306  0.00  0.00    -0.090 HD
ATOM     20  H   LIG d   1      -9.422  75.992 118.405  0.00  0.00    -0.090 HD
ATOM     21  H   LIG d   1      -8.838  77.415 117.840  0.00  0.00    -0.090 HD
ENDBRANCH   5  18
BRANCH   3  22
ATOM     22  C   LIG d   1      -7.366  72.721 115.853  0.00  0.00     0.382 C 
ATOM     23  O   LIG d   1      -8.431  72.174 116.229  0.00  0.00    -0.241 OA
ATOM     24  O   LIG d   1      -6.504  72.045 115.262  0.00  0.00    -0.241 OA
ENDBRANCH   3  22
TORSDOF 7
ENDMDL
MODEL 3
REMARK VINA RESULT:      -5.5      2.293      5.557
REMARK  7 active torsions:
REMARK  status: ('A' for Active; 'I' for Inactive)
REMARK    1  A    between atoms: C_2  and  C_3 
REMARK    2  A    between atoms: C_3  and  O_6 
REMARK    3  A    between atoms: C_3  and  C_4 
REMARK    4  A    between atoms: C_7  and  O_6 
REMARK    5  A    between atoms: C_9  and  C_10 
REMARK    6  A    between atoms: N_15  and  C_14 
REMARK    7  A    between atoms: N_20  and  C_19 
REMARK       I    between atoms: C_22  and  N_20 
ROOT
ATOM      1  C   LIG d   1      -5.189  76.221 115.710  0.00  0.00     0.161 C 
ATOM      2  C   LIG d   1      -4.025  75.765 115.068  0.00  0.00     0.016 C 
ATOM      3  C   LIG d   1      -2.826  76.511 115.010  0.00  0.00     0.038 C 
ATOM      4  C   LIG d   1      -2.661  77.707 115.725  0.00  0.00     0.028 C 
ATOM      5  C   LIG d   1      -3.970  78.451 115.971  0.00  0.00    -0.047 C 
ATOM      6  C   LIG d   1      -4.994  77.473 116.590  0.00  0.00     0.091 C 
ENDROOT
BRANCH   1   7
ATOM      7  O   LIG d   1      -5.772  75.152 116.482  0.00  0.00    -0.368 OA
BRANCH   7   8
ATOM      8  C   LIG d   1      -6.891  74.462 115.872  0.00  0.00     0.119 C 
BRANCH   8   9
ATOM      9  C   LIG d   1      -8.149  74.804 116.694  0.00  0.00     0.028 C 
ATOM     10  C   LIG d   1      -7.825  75.093 118.169  0.00  0.00     0.006 C 
ENDBRANCH   8   9
BRANCH   8  11
ATOM     11  C   LIG d   1      -6.735  72.942 115.982  0.00  0.00     0.028 C 
ATOM     12  C   LIG d   1      -8.084  72.209 116.054  0.00  0.00     0.006 C 
ENDBRANCH   8  11
ENDBRANCH   7   8
ENDBRANCH   1   7
BRANCH   6  13
ATOM     13  N   LIG d   1      -6.329  78.098 116.784  0.00  0.00    -0.311 N 
ATOM     14  C   LIG d   1      -6.716  78.659 117.928  0.00  0.00     0.210 C 
ATOM     15  C   LIG d   1      -8.139  79.227 117.921  0.00  0.00     0.109 C 
ATOM     16  O   LIG d   1      -6.005  78.768 118.939  0.00  0.00    -0.276 OA
ATOM     17  H   LIG d   1      -6.958  78.082 116.005  0.00  0.00     0.149 HD
ENDBRANCH   6  13
BRANCH   5  18
ATOM     18  N   LIG d   1      -3.671  79.603 116.842  0.00  0.00     0.381 N 
ATOM     19  H   LIG d   1      -3.306  80.357 116.293  0.00  0.00    -0.090 HD
ATOM     20  H   LIG d   1      -2.972  79.332 117.510  0.00  0.00    -0.090 HD
ATOM     21  H   LIG d   1      -4.497  79.897 117.314  0.00  0.00    -0.090 HD
ENDBRANCH   5  18
BRANCH   3  22
ATOM     22  C   LIG d   1      -1.788  76.082 114.198  0.00  0.00     0.382 C 
ATOM     23  O   LIG d   1      -1.871  76.212 112.953  0.00  0.00    -0.241 OA
ATOM     24  O   LIG d   1      -0.788  75.525 114.691  0.00  0.00    -0.241 OA
ENDBRANCH   3  22
TORSDOF 7
ENDMDL
MODEL 4
REMARK VINA RESULT:      -5.2      2.877      3.676
REMARK  7 active torsions:
REMARK  status: ('A' for Active; 'I' for Inactive)
REMARK    1  A    between atoms: C_2  and  C_3 
REMARK    2  A    between atoms: C_3  and  O_6 
REMARK    3  A    between atoms: C_3  and  C_4 
REMARK    4  A    between atoms: C_7  and  O_6 
REMARK    5  A    between atoms: C_9  and  C_10 
REMARK    6  A    between atoms: N_15  and  C_14 
REMARK    7  A    between atoms: N_20  and  C_19 
REMARK       I    between atoms: C_22  and  N_20 
ROOT
ATOM      1  C   LIG d   1      -5.060  77.714 116.472  0.00  0.00     0.161 C 
ATOM      2  C   LIG d   1      -5.945  78.706 116.929  0.00  0.00     0.016 C 
ATOM      3  C   LIG d   1      -5.577  80.061 117.093  0.00  0.00     0.038 C 
ATOM      4  C   LIG d   1      -4.334  80.549 116.663  0.00  0.00     0.028 C 
ATOM      5  C   LIG d   1      -3.235  79.492 116.664  0.00  0.00    -0.047 C 
ATOM      6  C   LIG d   1      -3.734  78.249 115.893  0.00  0.00     0.091 C 
ENDROOT
BRANCH   1   7
ATOM      7  O   LIG d   1      -5.725  76.874 115.508  0.00  0.00    -0.368 OA
BRANCH   7   8
ATOM      8  C   LIG d   1      -6.045  75.531 115.947  0.00  0.00     0.119 C 
BRANCH   8   9
ATOM      9  C   LIG d   1      -5.705  74.572 114.789  0.00  0.00     0.028 C 
ATOM     10  C   LIG d   1      -5.005  75.287 113.621  0.00  0.00     0.006 C 
ENDBRANCH   8   9
BRANCH   8  11
ATOM     11  C   LIG d   1      -7.549  75.365 116.183  0.00  0.00     0.028 C 
ATOM     12  C   LIG d   1      -7.935  73.932 116.586  0.00  0.00     0.006 C 
ENDBRANCH   8  11
ENDBRANCH   7   8
ENDBRANCH   1   7
BRANCH   6  13
ATOM     13  N   LIG d   1      -2.751  77.134 115.918  0.00  0.00    -0.311 N 
ATOM     14  C   LIG d   1      -1.887  76.897 114.932  0.00  0.00     0.210 C 
ATOM     15  C   LIG d   1      -0.975  75.685 115.150  0.00  0.00     0.109 C 
ATOM     16  O   LIG d   1      -1.767  77.593 113.913  0.00  0.00    -0.276 OA
ATOM     17  H   LIG d   1      -2.758  76.538 116.722  0.00  0.00     0.149 HD
ENDBRANCH   6  13
BRANCH   5  18
ATOM     18  N   LIG d   1      -2.032  80.100 116.065  0.00  0.00     0.381 N 
ATOM     19  H   LIG d   1      -2.300  80.796 115.398  0.00  0.00    -0.090 HD
ATOM     20  H   LIG d   1      -1.512  79.387 115.584  0.00  0.00    -0.090 HD
ATOM     21  H   LIG d   1      -1.467  80.510 116.776  0.00  0.00    -0.090 HD
ENDBRANCH   5  18
BRANCH   3  22
ATOM     22  C   LIG d   1      -6.444  80.936 117.729  0.00  0.00     0.382 C 
ATOM     23  O   LIG d   1      -7.572  81.173 117.232  0.00  0.00    -0.241 OA
ATOM     24  O   LIG d   1      -6.096  81.526 118.769  0.00  0.00    -0.241 OA
ENDBRANCH   3  22
TORSDOF 7
ENDMDL
MODEL 5
REMARK VINA RESULT:      -5.2      2.352      5.414
REMARK  7 active torsions:
REMARK  status: ('A' for Active; 'I' for Inactive)
REMARK    1  A    between atoms: C_2  and  C_3 
REMARK    2  A    between atoms: C_3  and  O_6 
REMARK    3  A    between atoms: C_3  and  C_4 
REMARK    4  A    between atoms: C_7  and  O_6 
REMARK    5  A    between atoms: C_9  and  C_10 
REMARK    6  A    between atoms: N_15  and  C_14 
REMARK    7  A    between atoms: N_20  and  C_19 
REMARK       I    between atoms: C_22  and  N_20 
ROOT
ATOM      1  C   LIG d   1      -6.492  78.162 117.380  0.00  0.00     0.161 C 
ATOM      2  C   LIG d   1      -6.476  76.810 117.000  0.00  0.00     0.016 C 
ATOM      3  C   LIG d   1      -7.592  75.951 117.133  0.00  0.00     0.038 C 
ATOM      4  C   LIG d   1      -8.853  76.429 117.518  0.00  0.00     0.028 C 
ATOM      5  C   LIG d   1      -8.788  77.677 118.391  0.00  0.00    -0.047 C 
ATOM      6  C   LIG d   1      -7.892  78.728 117.698  0.00  0.00     0.091 C 
ENDROOT
BRANCH   1   7
ATOM      7  O   LIG d   1      -5.846  78.961 116.369  0.00  0.00    -0.368 OA
BRANCH   7   8
ATOM      8  C   LIG d   1      -4.474  79.343 116.639  0.00  0.00     0.119 C 
BRANCH   8   9
ATOM      9  C   LIG d   1      -4.459  80.862 116.896  0.00  0.00     0.028 C 
ATOM     10  C   LIG d   1      -4.117  81.207 118.355  0.00  0.00     0.006 C 
ENDBRANCH   8   9
BRANCH   8  11
ATOM     11  C   LIG d   1      -3.585  79.131 115.410  0.00  0.00     0.028 C 
ATOM     12  C   LIG d   1      -3.323  77.646 115.114  0.00  0.00     0.006 C 
ENDBRANCH   8  11
ENDBRANCH   7   8
ENDBRANCH   1   7
BRANCH   6  13
ATOM     13  N   LIG d   1      -7.705  79.949 118.525  0.00  0.00    -0.311 N 
ATOM     14  C   LIG d   1      -7.934  81.181 118.075  0.00  0.00     0.210 C 
ATOM     15  C   LIG d   1      -7.660  82.300 119.085  0.00  0.00     0.109 C 
ATOM     16  O   LIG d   1      -8.369  81.453 116.945  0.00  0.00    -0.276 OA
ATOM     17  H   LIG d   1      -7.385  79.819 119.465  0.00  0.00     0.149 HD
ENDBRANCH   6  13
BRANCH   5  18
ATOM     18  N   LIG d   1     -10.170  78.146 118.604  0.00  0.00     0.381 N 
ATOM     19  H   LIG d   1     -10.175  79.138 118.734  0.00  0.00    -0.090 HD
ATOM     20  H   LIG d   1     -10.535  77.716 119.436  0.00  0.00    -0.090 HD
ATOM     21  H   LIG d   1     -10.737  77.903 117.821  0.00  0.00    -0.090 HD
ENDBRANCH   5  18
BRANCH   3  22
ATOM     22  C   LIG d   1      -7.441  74.590 116.917  0.00  0.00     0.382 C 
ATOM     23  O   LIG d   1      -6.994  74.174 115.821  0.00  0.00    -0.241 OA
ATOM     24  O   LIG d   1      -7.787  73.770 117.789  0.00  0.00    -0.241 OA
ENDBRANCH   3  22
TORSDOF 7
ENDMDL
MODEL 6
REMARK VINA RESULT:      -5.0      2.693      3.823
REMARK  7 active torsions:
REMARK  status: ('A' for Active; 'I' for Inactive)
REMARK    1  A    between atoms: C_2  and  C_3 
REMARK    2  A    between atoms: C_3  and  O_6 
REMARK    3  A    between atoms: C_3  and  C_4 
REMARK    4  A    between atoms: C_7  and  O_6 
REMARK    5  A    between atoms: C_9  and  C_10 
REMARK    6  A    between atoms: N_15  and  C_14 
REMARK    7  A    between atoms: N_20  and  C_19 
REMARK       I    between atoms: C_22  and  N_20 
ROOT
ATOM      1  C   LIG d   1      -5.174  77.185 117.687  0.00  0.00     0.161 C 
ATOM      2  C   LIG d   1      -6.034  78.296 117.706  0.00  0.00     0.016 C 
ATOM      3  C   LIG d   1      -5.659  79.578 117.245  0.00  0.00     0.038 C 
ATOM      4  C   LIG d   1      -4.440  79.803 116.588  0.00  0.00     0.028 C 
ATOM      5  C   LIG d   1      -3.342  78.828 117.000  0.00  0.00    -0.047 C 
ATOM      6  C   LIG d   1      -3.879  77.385 116.872  0.00  0.00     0.091 C 
ENDROOT
BRANCH   1   7
ATOM      7  O   LIG d   1      -5.887  76.023 117.218  0.00  0.00    -0.368 OA
BRANCH   7   8
ATOM      8  C   LIG d   1      -6.899  76.261 116.209  0.00  0.00     0.119 C 
BRANCH   8   9
ATOM      9  C   LIG d   1      -8.161  75.481 116.627  0.00  0.00     0.028 C 
ATOM     10  C   LIG d   1      -7.899  74.530 117.807  0.00  0.00     0.006 C 
ENDBRANCH   8   9
BRANCH   8  11
ATOM     11  C   LIG d   1      -6.487  75.671 114.857  0.00  0.00     0.028 C 
ATOM     12  C   LIG d   1      -5.457  74.538 114.990  0.00  0.00     0.006 C 
ENDBRANCH   8  11
ENDBRANCH   7   8
ENDBRANCH   1   7
BRANCH   6  13
ATOM     13  N   LIG d   1      -2.895  76.371 117.336  0.00  0.00    -0.311 N 
ATOM     14  C   LIG d   1      -2.089  75.702 116.514  0.00  0.00     0.210 C 
ATOM     15  C   LIG d   1      -1.165  74.689 117.197  0.00  0.00     0.109 C 
ATOM     16  O   LIG d   1      -2.028  75.875 115.287  0.00  0.00    -0.276 OA
ATOM     17  H   LIG d   1      -2.856  76.191 118.320  0.00  0.00     0.149 HD
ENDBRANCH   6  13
BRANCH   5  18
ATOM     18  N   LIG d   1      -2.171  79.088 116.141  0.00  0.00     0.381 N 
ATOM     19  H   LIG d   1      -1.932  78.259 115.635  0.00  0.00    -0.090 HD
ATOM     20  H   LIG d   1      -1.390  79.338 116.723  0.00  0.00    -0.090 HD
ATOM     21  H   LIG d   1      -2.371  79.828 115.505  0.00  0.00    -0.090 HD
ENDBRANCH   5  18
BRANCH   3  22
ATOM     22  C   LIG d   1      -6.493  80.662 117.474  0.00  0.00     0.382 C 
ATOM     23  O   LIG d   1      -6.042  81.694 118.027  0.00  0.00    -0.241 OA
ATOM     24  O   LIG d   1      -7.701  80.605 117.176  0.00  0.00    -0.241 OA
ENDBRANCH   3  22
TORSDOF 7
ENDMDL
MODEL 7
REMARK VINA RESULT:      -4.8      2.417      4.093
REMARK  7 active torsions:
REMARK  status: ('A' for Active; 'I' for Inactive)
REMARK    1  A    between atoms: C_2  and  C_3 
REMARK    2  A    between atoms: C_3  and  O_6 
REMARK    3  A    between atoms: C_3  and  C_4 
REMARK    4  A    between atoms: C_7  and  O_6 
REMARK    5  A    between atoms: C_9  and  C_10 
REMARK    6  A    between atoms: N_15  and  C_14 
REMARK    7  A    between atoms: N_20  and  C_19 
REMARK       I    between atoms: C_22  and  N_20 
ROOT
ATOM      1  C   LIG d   1      -5.051  77.953 116.603  0.00  0.00     0.161 C 
ATOM      2  C   LIG d   1      -6.056  76.974 116.669  0.00  0.00     0.016 C 
ATOM      3  C   LIG d   1      -7.290  77.168 117.332  0.00  0.00     0.038 C 
ATOM      4  C   LIG d   1      -7.665  78.417 117.849  0.00  0.00     0.028 C 
ATOM      5  C   LIG d   1      -6.479  79.288 118.249  0.00  0.00    -0.047 C 
ATOM      6  C   LIG d   1      -5.487  79.359 117.066  0.00  0.00     0.091 C 
ENDROOT
BRANCH   1   7
ATOM      7  O   LIG d   1      -4.510  78.009 115.268  0.00  0.00    -0.368 OA
BRANCH   7   8
ATOM      8  C   LIG d   1      -3.551  76.979 114.925  0.00  0.00     0.119 C 
BRANCH   8   9
ATOM      9  C   LIG d   1      -2.180  77.661 114.754  0.00  0.00     0.028 C 
ATOM     10  C   LIG d   1      -2.304  79.109 114.250  0.00  0.00     0.006 C 
ENDBRANCH   8   9
BRANCH   8  11
ATOM     11  C   LIG d   1      -3.867  76.356 113.562  0.00  0.00     0.028 C 
ATOM     12  C   LIG d   1      -4.909  75.230 113.648  0.00  0.00     0.006 C 
ENDBRANCH   8  11
ENDBRANCH   7   8
ENDBRANCH   1   7
BRANCH   6  13
ATOM     13  N   LIG d   1      -4.257  80.123 117.402  0.00  0.00    -0.311 N 
ATOM     14  C   LIG d   1      -3.939  81.286 116.836  0.00  0.00     0.210 C 
ATOM     15  C   LIG d   1      -2.617  81.896 117.312  0.00  0.00     0.109 C 
ATOM     16  O   LIG d   1      -4.642  81.886 116.009  0.00  0.00    -0.276 OA
ATOM     17  H   LIG d   1      -3.645  79.724 118.086  0.00  0.00     0.149 HD
ENDBRANCH   6  13
BRANCH   5  18
ATOM     18  N   LIG d   1      -7.007  80.609 118.640  0.00  0.00     0.381 N 
ATOM     19  H   LIG d   1      -7.105  81.188 117.831  0.00  0.00    -0.090 HD
ATOM     20  H   LIG d   1      -6.354  81.048 119.265  0.00  0.00    -0.090 HD
ATOM     21  H   LIG d   1      -7.889  80.503 119.091  0.00  0.00    -0.090 HD
ENDBRANCH   5  18
BRANCH   3  22
ATOM     22  C   LIG d   1      -8.147  76.094 117.518  0.00  0.00     0.382 C 
ATOM     23  O   LIG d   1      -8.865  75.694 116.571  0.00  0.00    -0.241 OA
ATOM     24  O   LIG d   1      -8.243  75.549 118.634  0.00  0.00    -0.241 OA
ENDBRANCH   3  22
TORSDOF 7
ENDMDL
MODEL 8
REMARK VINA RESULT:      -4.6      2.225      5.150
REMARK  7 active torsions:
REMARK  status: ('A' for Active; 'I' for Inactive)
REMARK    1  A    between atoms: C_2  and  C_3 
REMARK    2  A    between atoms: C_3  and  O_6 
REMARK    3  A    between atoms: C_3  and  C_4 
REMARK    4  A    between atoms: C_7  and  O_6 
REMARK    5  A    between atoms: C_9  and  C_10 
REMARK    6  A    between atoms: N_15  and  C_14 
REMARK    7  A    between atoms: N_20  and  C_19 
REMARK       I    between atoms: C_22  and  N_20 
ROOT
ATOM      1  C   LIG d   1      -6.102  77.926 116.872  0.00  0.00     0.161 C 
ATOM      2  C   LIG d   1      -4.927  78.283 116.189  0.00  0.00     0.016 C 
ATOM      3  C   LIG d   1      -4.099  79.361 116.576  0.00  0.00     0.038 C 
ATOM      4  C   LIG d   1      -4.311  80.067 117.770  0.00  0.00     0.028 C 
ATOM      5  C   LIG d   1      -5.767  80.070 118.222  0.00  0.00    -0.047 C 
ATOM      6  C   LIG d   1      -6.289  78.615 118.240  0.00  0.00     0.091 C 
ENDROOT
BRANCH   1   7
ATOM      7  O   LIG d   1      -6.166  76.494 117.019  0.00  0.00    -0.368 OA
BRANCH   7   8
ATOM      8  C   LIG d   1      -7.044  75.798 116.100  0.00  0.00     0.119 C 
BRANCH   8   9
ATOM      9  C   LIG d   1      -8.269  75.320 116.903  0.00  0.00     0.028 C 
ATOM     10  C   LIG d   1      -7.905  74.910 118.340  0.00  0.00     0.006 C 
ENDBRANCH   8   9
BRANCH   8  11
ATOM     11  C   LIG d   1      -6.389  74.522 115.562  0.00  0.00     0.028 C 
ATOM     12  C   LIG d   1      -5.381  74.800 114.435  0.00  0.00     0.006 C 
ENDBRANCH   8  11
ENDBRANCH   7   8
ENDBRANCH   1   7
BRANCH   6  13
ATOM     13  N   LIG d   1      -7.731  78.534 118.590  0.00  0.00    -0.311 N 
ATOM     14  C   LIG d   1      -8.636  79.422 118.181  0.00  0.00     0.210 C 
ATOM     15  C   LIG d   1     -10.064  79.164 118.672  0.00  0.00     0.109 C 
ATOM     16  O   LIG d   1      -8.397  80.381 117.431  0.00  0.00    -0.276 OA
ATOM     17  H   LIG d   1      -8.018  77.770 119.170  0.00  0.00     0.149 HD
ENDBRANCH   6  13
BRANCH   5  18
ATOM     18  N   LIG d   1      -5.822  80.720 119.545  0.00  0.00     0.381 N 
ATOM     19  H   LIG d   1      -6.678  80.481 120.004  0.00  0.00    -0.090 HD
ATOM     20  H   LIG d   1      -5.799  81.717 119.418  0.00  0.00    -0.090 HD
ATOM     21  H   LIG d   1      -5.047  80.430 120.100  0.00  0.00    -0.090 HD
ENDBRANCH   5  18
BRANCH   3  22
ATOM     22  C   LIG d   1      -3.067  79.769 115.744  0.00  0.00     0.382 C 
ATOM     23  O   LIG d   1      -3.319  80.450 114.721  0.00  0.00    -0.241 OA
ATOM     24  O   LIG d   1      -1.893  79.427 115.979  0.00  0.00    -0.241 OA
ENDBRANCH   3  22
TORSDOF 7
ENDMDL
MODEL 9
REMARK VINA RESULT:      -4.4     14.119     16.158
REMARK  7 active torsions:
REMARK  status: ('A' for Active; 'I' for Inactive)
REMARK    1  A    between atoms: C_2  and  C_3 
REMARK    2  A    between atoms: C_3  and  O_6 
REMARK    3  A    between atoms: C_3  and  C_4 
REMARK    4  A    between atoms: C_7  and  O_6 
REMARK    5  A    between atoms: C_9  and  C_10 
REMARK    6  A    between atoms: N_15  and  C_14 
REMARK    7  A    between atoms: N_20  and  C_19 
REMARK       I    between atoms: C_22  and  N_20 
ROOT
ATOM      1  C   LIG d   1      -6.292  91.749 118.647  0.00  0.00     0.161 C 
ATOM      2  C   LIG d   1      -7.447  92.544 118.569  0.00  0.00     0.016 C 
ATOM      3  C   LIG d   1      -7.438  93.948 118.738  0.00  0.00     0.038 C 
ATOM      4  C   LIG d   1      -6.243  94.674 118.846  0.00  0.00     0.028 C 
ATOM      5  C   LIG d   1      -5.093  93.863 119.434  0.00  0.00    -0.047 C 
ATOM      6  C   LIG d   1      -4.964  92.535 118.654  0.00  0.00     0.091 C 
ENDROOT
BRANCH   1   7
ATOM      7  O   LIG d   1      -6.294  90.779 117.580  0.00  0.00    -0.368 OA
BRANCH   7   8
ATOM      8  C   LIG d   1      -5.440  91.075 116.448  0.00  0.00     0.119 C 
BRANCH   8   9
ATOM      9  C   LIG d   1      -6.341  91.605 115.315  0.00  0.00     0.028 C 
ATOM     10  C   LIG d   1      -7.241  90.510 114.719  0.00  0.00     0.006 C 
ENDBRANCH   8   9
BRANCH   8  11
ATOM     11  C   LIG d   1      -4.794  89.804 115.890  0.00  0.00     0.028 C 
ATOM     12  C   LIG d   1      -3.583  89.339 116.715  0.00  0.00     0.006 C 
ENDBRANCH   8  11
ENDBRANCH   7   8
ENDBRANCH   1   7
BRANCH   6  13
ATOM     13  N   LIG d   1      -3.917  91.645 119.218  0.00  0.00    -0.311 N 
ATOM     14  C   LIG d   1      -2.634  91.708 118.867  0.00  0.00     0.210 C 
ATOM     15  C   LIG d   1      -1.724  90.685 119.555  0.00  0.00     0.109 C 
ATOM     16  O   LIG d   1      -2.157  92.535 118.075  0.00  0.00    -0.276 OA
ATOM     17  H   LIG d   1      -4.211  90.965 119.892  0.00  0.00     0.149 HD
ENDBRANCH   6  13
BRANCH   5  18
ATOM     18  N   LIG d   1      -3.878  94.696 119.362  0.00  0.00     0.381 N 
ATOM     19  H   LIG d   1      -3.530  94.708 118.424  0.00  0.00    -0.090 HD
ATOM     20  H   LIG d   1      -3.173  94.295 119.955  0.00  0.00    -0.090 HD
ATOM     21  H   LIG d   1      -4.083  95.625 119.660  0.00  0.00    -0.090 HD
ENDBRANCH   5  18
BRANCH   3  22
ATOM     22  C   LIG d   1      -8.638  94.636 118.839  0.00  0.00     0.382 C 
ATOM     23  O   LIG d   1      -9.666  94.045 119.249  0.00  0.00    -0.241 OA
ATOM     24  O   LIG d   1      -8.715  95.827 118.484  0.00  0.00    -0.241 OA
ENDBRANCH   3  22
TORSDOF 7
ENDMDL
