MODEL 1
REMARK VINA RESULT:      -5.3      0.000      0.000
REMARK  7 active torsions:
REMARK  status: ('A' for Active; 'I' for Inactive)
REMARK    1  A    between atoms: C_2  and  C_3 
REMARK    2  A    between atoms: C_3  and  O_6 
REMARK    3  A    between atoms: C_3  and  C_4 
REMARK    4  A    between atoms: C_7  and  O_6 
REMARK    5  A    between atoms: C_9  and  C_10 
REMARK    6  A    between atoms: N_15  and  C_14 
REMARK    7  A    between atoms: N_20  and  C_19 
REMARK       I    between atoms: C_22  and  N_20 
ROOT
ATOM      1  C   LIG d   1      -3.038  76.971 116.616  0.00  0.00     0.161 C 
ATOM      2  C   LIG d   1      -3.363  78.189 115.997  0.00  0.00     0.016 C 
ATOM      3  C   LIG d   1      -2.404  79.042 115.404  0.00  0.00     0.038 C 
ATOM      4  C   LIG d   1      -1.063  78.658 115.255  0.00  0.00     0.028 C 
ATOM      5  C   LIG d   1      -0.597  77.663 116.312  0.00  0.00    -0.047 C 
ATOM      6  C   LIG d   1      -1.595  76.484 116.365  0.00  0.00     0.091 C 
ENDROOT
BRANCH   1   7
ATOM      7  O   LIG d   1      -3.984  75.956 116.225  0.00  0.00    -0.368 OA
BRANCH   7   8
ATOM      8  C   LIG d   1      -5.058  76.388 115.354  0.00  0.00     0.119 C 
BRANCH   8   9
ATOM      9  C   LIG d   1      -6.384  75.939 115.997  0.00  0.00     0.028 C 
ATOM     10  C   LIG d   1      -6.620  76.591 117.370  0.00  0.00     0.006 C 
ENDBRANCH   8   9
BRANCH   8  11
ATOM     11  C   LIG d   1      -5.001  75.671 114.002  0.00  0.00     0.028 C 
ATOM     12  C   LIG d   1      -5.169  74.148 114.127  0.00  0.00     0.006 C 
ENDBRANCH   8  11
ENDBRANCH   7   8
ENDBRANCH   1   7
BRANCH   6  13
ATOM     13  N   LIG d   1      -1.260  75.505 117.432  0.00  0.00    -0.311 N 
ATOM     14  C   LIG d   1      -0.518  74.418 117.223  0.00  0.00     0.210 C 
ATOM     15  C   LIG d   1      -0.309  73.531 118.455  0.00  0.00     0.109 C 
ATOM     16  O   LIG d   1       0.013  74.121 116.142  0.00  0.00    -0.276 OA
ATOM     17  H   LIG d   1      -1.624  75.685 118.347  0.00  0.00     0.149 HD
ENDBRANCH   6  13
BRANCH   5  18
ATOM     18  N   LIG d   1       0.773  77.245 115.958  0.00  0.00     0.381 N 
ATOM     19  H   LIG d   1       1.231  76.868 116.763  0.00  0.00    -0.090 HD
ATOM     20  H   LIG d   1       1.289  78.050 115.649  0.00  0.00    -0.090 HD
ATOM     21  H   LIG d   1       0.744  76.562 115.233  0.00  0.00    -0.090 HD
ENDBRANCH   5  18
BRANCH   3  22
ATOM     22  C   LIG d   1      -2.776  80.311 114.987  0.00  0.00     0.382 C 
ATOM     23  O   LIG d   1      -2.883  80.562 113.763  0.00  0.00    -0.241 OA
ATOM     24  O   LIG d   1      -2.964  81.219 115.819  0.00  0.00    -0.241 OA
ENDBRANCH   3  22
TORSDOF 7
ENDMDL
MODEL 2
REMARK VINA RESULT:      -5.3      1.566      4.932
REMARK  7 active torsions:
REMARK  status: ('A' for Active; 'I' for Inactive)
REMARK    1  A    between atoms: C_2  and  C_3 
REMARK    2  A    between atoms: C_3  and  O_6 
REMARK    3  A    between atoms: C_3  and  C_4 
REMARK    4  A    between atoms: C_7  and  O_6 
REMARK    5  A    between atoms: C_9  and  C_10 
REMARK    6  A    between atoms: N_15  and  C_14 
REMARK    7  A    between atoms: N_20  and  C_19 
REMARK       I    between atoms: C_22  and  N_20 
ROOT
ATOM      1  C   LIG d   1      -2.377  76.953 114.425  0.00  0.00     0.161 C 
ATOM      2  C   LIG d   1      -2.007  75.766 115.077  0.00  0.00     0.016 C 
ATOM      3  C   LIG d   1      -0.988  75.701 116.056  0.00  0.00     0.038 C 
ATOM      4  C   LIG d   1      -0.370  76.855 116.560  0.00  0.00     0.028 C 
ATOM      5  C   LIG d   1      -0.356  78.016 115.572  0.00  0.00    -0.047 C 
ATOM      6  C   LIG d   1      -1.791  78.240 115.042  0.00  0.00     0.091 C 
ENDROOT
BRANCH   1   7
ATOM      7  O   LIG d   1      -3.814  77.043 114.351  0.00  0.00    -0.368 OA
BRANCH   7   8
ATOM      8  C   LIG d   1      -4.553  76.192 115.262  0.00  0.00     0.119 C 
BRANCH   8   9
ATOM      9  C   LIG d   1      -5.598  75.422 114.432  0.00  0.00     0.028 C 
ATOM     10  C   LIG d   1      -5.233  73.938 114.260  0.00  0.00     0.006 C 
ENDBRANCH   8   9
BRANCH   8  11
ATOM     11  C   LIG d   1      -5.362  77.021 116.265  0.00  0.00     0.028 C 
ATOM     12  C   LIG d   1      -6.575  76.260 116.825  0.00  0.00     0.006 C 
ENDBRANCH   8  11
ENDBRANCH   7   8
ENDBRANCH   1   7
BRANCH   6  13
ATOM     13  N   LIG d   1      -1.852  79.304 114.005  0.00  0.00    -0.311 N 
ATOM     14  C   LIG d   1      -2.521  80.445 114.165  0.00  0.00     0.210 C 
ATOM     15  C   LIG d   1      -2.471  81.396 112.965  0.00  0.00     0.109 C 
ATOM     16  O   LIG d   1      -3.124  80.773 115.197  0.00  0.00    -0.276 OA
ATOM     17  H   LIG d   1      -1.365  79.134 113.147  0.00  0.00     0.149 HD
ENDBRANCH   6  13
BRANCH   5  18
ATOM     18  N   LIG d   1       0.192  79.192 116.273  0.00  0.00     0.381 N 
ATOM     19  H   LIG d   1       0.122  79.999 115.686  0.00  0.00    -0.090 HD
ATOM     20  H   LIG d   1       1.163  79.029 116.472  0.00  0.00    -0.090 HD
ATOM     21  H   LIG d   1      -0.307  79.346 117.122  0.00  0.00    -0.090 HD
ENDBRANCH   5  18
BRANCH   3  22
ATOM     22  C   LIG d   1      -0.550  74.466 116.511  0.00  0.00     0.382 C 
ATOM     23  O   LIG d   1      -0.966  74.019 117.607  0.00  0.00    -0.241 OA
ATOM     24  O   LIG d   1       0.289  73.815 115.861  0.00  0.00    -0.241 OA
ENDBRANCH   3  22
TORSDOF 7
ENDMDL
MODEL 3
REMARK VINA RESULT:      -5.3     10.443     13.102
REMARK  7 active torsions:
REMARK  status: ('A' for Active; 'I' for Inactive)
REMARK    1  A    between atoms: C_2  and  C_3 
REMARK    2  A    between atoms: C_3  and  O_6 
REMARK    3  A    between atoms: C_3  and  C_4 
REMARK    4  A    between atoms: C_7  and  O_6 
REMARK    5  A    between atoms: C_9  and  C_10 
REMARK    6  A    between atoms: N_15  and  C_14 
REMARK    7  A    between atoms: N_20  and  C_19 
REMARK       I    between atoms: C_22  and  N_20 
ROOT
ATOM      1  C   LIG d   1       1.324  88.297 116.190  0.00  0.00     0.161 C 
ATOM      2  C   LIG d   1       0.029  88.340 116.734  0.00  0.00     0.016 C 
ATOM      3  C   LIG d   1      -0.528  89.496 117.326  0.00  0.00     0.038 C 
ATOM      4  C   LIG d   1       0.120  90.739 117.279  0.00  0.00     0.028 C 
ATOM      5  C   LIG d   1       1.639  90.628 117.190  0.00  0.00    -0.047 C 
ATOM      6  C   LIG d   1       2.004  89.673 116.030  0.00  0.00     0.091 C 
ENDROOT
BRANCH   1   7
ATOM      7  O   LIG d   1       1.302  87.600 114.929  0.00  0.00    -0.368 OA
BRANCH   7   8
ATOM      8  C   LIG d   1       1.716  86.212 114.960  0.00  0.00     0.119 C 
BRANCH   8   9
ATOM      9  C   LIG d   1       3.091  86.124 114.268  0.00  0.00     0.028 C 
ATOM     10  C   LIG d   1       3.091  86.781 112.878  0.00  0.00     0.006 C 
ENDBRANCH   8   9
BRANCH   8  11
ATOM     11  C   LIG d   1       0.784  85.333 114.122  0.00  0.00     0.028 C 
ATOM     12  C   LIG d   1      -0.697  85.511 114.495  0.00  0.00     0.006 C 
ENDBRANCH   8  11
ENDBRANCH   7   8
ENDBRANCH   1   7
BRANCH   6  13
ATOM     13  N   LIG d   1       3.469  89.442 115.927  0.00  0.00    -0.311 N 
ATOM     14  C   LIG d   1       4.179  89.721 114.835  0.00  0.00     0.210 C 
ATOM     15  C   LIG d   1       5.671  89.387 114.932  0.00  0.00     0.109 C 
ATOM     16  O   LIG d   1       3.722  90.242 113.807  0.00  0.00    -0.276 OA
ATOM     17  H   LIG d   1       3.926  89.050 116.726  0.00  0.00     0.149 HD
ENDBRANCH   6  13
BRANCH   5  18
ATOM     18  N   LIG d   1       2.176  91.990 117.009  0.00  0.00     0.381 N 
ATOM     19  H   LIG d   1       1.572  92.515 116.409  0.00  0.00    -0.090 HD
ATOM     20  H   LIG d   1       3.079  91.928 116.573  0.00  0.00    -0.090 HD
ATOM     21  H   LIG d   1       2.256  92.445 117.892  0.00  0.00    -0.090 HD
ENDBRANCH   5  18
BRANCH   3  22
ATOM     22  C   LIG d   1      -1.731  89.406 118.010  0.00  0.00     0.382 C 
ATOM     23  O   LIG d   1      -2.736  88.909 117.447  0.00  0.00    -0.241 OA
ATOM     24  O   LIG d   1      -1.835  89.856 119.167  0.00  0.00    -0.241 OA
ENDBRANCH   3  22
TORSDOF 7
ENDMDL
MODEL 4
REMARK VINA RESULT:      -5.1      2.835      6.036
REMARK  7 active torsions:
REMARK  status: ('A' for Active; 'I' for Inactive)
REMARK    1  A    between atoms: C_2  and  C_3 
REMARK    2  A    between atoms: C_3  and  O_6 
REMARK    3  A    between atoms: C_3  and  C_4 
REMARK    4  A    between atoms: C_7  and  O_6 
REMARK    5  A    between atoms: C_9  and  C_10 
REMARK    6  A    between atoms: N_15  and  C_14 
REMARK    7  A    between atoms: N_20  and  C_19 
REMARK       I    between atoms: C_22  and  N_20 
ROOT
ATOM      1  C   LIG d   1      -3.795  77.347 115.760  0.00  0.00     0.161 C 
ATOM      2  C   LIG d   1      -4.130  76.181 115.052  0.00  0.00     0.016 C 
ATOM      3  C   LIG d   1      -5.337  75.471 115.248  0.00  0.00     0.038 C 
ATOM      4  C   LIG d   1      -6.364  75.968 116.064  0.00  0.00     0.028 C 
ATOM      5  C   LIG d   1      -5.865  76.877 117.182  0.00  0.00    -0.047 C 
ATOM      6  C   LIG d   1      -4.951  77.965 116.573  0.00  0.00     0.091 C 
ENDROOT
BRANCH   1   7
ATOM      7  O   LIG d   1      -3.239  78.324 114.858  0.00  0.00    -0.368 OA
BRANCH   7   8
ATOM      8  C   LIG d   1      -2.260  77.831 113.910  0.00  0.00     0.119 C 
BRANCH   8   9
ATOM      9  C   LIG d   1      -0.924  77.678 114.661  0.00  0.00     0.028 C 
ATOM     10  C   LIG d   1      -0.367  76.246 114.584  0.00  0.00     0.006 C 
ENDBRANCH   8   9
BRANCH   8  11
ATOM     11  C   LIG d   1      -1.989  78.857 112.805  0.00  0.00     0.028 C 
ATOM     12  C   LIG d   1      -2.368  80.289 113.215  0.00  0.00     0.006 C 
ENDBRANCH   8  11
ENDBRANCH   7   8
ENDBRANCH   1   7
BRANCH   6  13
ATOM     13  N   LIG d   1      -4.353  78.847 117.609  0.00  0.00    -0.311 N 
ATOM     14  C   LIG d   1      -4.925  79.972 118.034  0.00  0.00     0.210 C 
ATOM     15  C   LIG d   1      -4.129  80.742 119.093  0.00  0.00     0.109 C 
ATOM     16  O   LIG d   1      -6.031  80.388 117.658  0.00  0.00    -0.276 OA
ATOM     17  H   LIG d   1      -3.470  78.567 117.991  0.00  0.00     0.149 HD
ENDBRANCH   6  13
BRANCH   5  18
ATOM     18  N   LIG d   1      -7.048  77.432 117.867  0.00  0.00     0.381 N 
ATOM     19  H   LIG d   1      -7.432  78.181 117.326  0.00  0.00    -0.090 HD
ATOM     20  H   LIG d   1      -6.765  77.799 118.758  0.00  0.00    -0.090 HD
ATOM     21  H   LIG d   1      -7.733  76.720 117.995  0.00  0.00    -0.090 HD
ENDBRANCH   5  18
BRANCH   3  22
ATOM     22  C   LIG d   1      -5.508  74.230 114.655  0.00  0.00     0.382 C 
ATOM     23  O   LIG d   1      -6.186  73.346 115.234  0.00  0.00    -0.241 OA
ATOM     24  O   LIG d   1      -4.957  73.967 113.569  0.00  0.00    -0.241 OA
ENDBRANCH   3  22
TORSDOF 7
ENDMDL
MODEL 5
REMARK VINA RESULT:      -5.0      1.881      2.266
REMARK  7 active torsions:
REMARK  status: ('A' for Active; 'I' for Inactive)
REMARK    1  A    between atoms: C_2  and  C_3 
REMARK    2  A    between atoms: C_3  and  O_6 
REMARK    3  A    between atoms: C_3  and  C_4 
REMARK    4  A    between atoms: C_7  and  O_6 
REMARK    5  A    between atoms: C_9  and  C_10 
REMARK    6  A    between atoms: N_15  and  C_14 
REMARK    7  A    between atoms: N_20  and  C_19 
REMARK       I    between atoms: C_22  and  N_20 
ROOT
ATOM      1  C   LIG d   1      -2.885  77.336 116.676  0.00  0.00     0.161 C 
ATOM      2  C   LIG d   1      -3.629  78.455 117.087  0.00  0.00     0.016 C 
ATOM      3  C   LIG d   1      -3.377  79.768 116.629  0.00  0.00     0.038 C 
ATOM      4  C   LIG d   1      -2.453  80.032 115.607  0.00  0.00     0.028 C 
ATOM      5  C   LIG d   1      -1.329  79.005 115.526  0.00  0.00    -0.047 C 
ATOM      6  C   LIG d   1      -1.946  77.589 115.478  0.00  0.00     0.091 C 
ENDROOT
BRANCH   1   7
ATOM      7  O   LIG d   1      -3.772  76.235 116.395  0.00  0.00    -0.368 OA
BRANCH   7   8
ATOM      8  C   LIG d   1      -4.921  76.539 115.566  0.00  0.00     0.119 C 
BRANCH   8   9
ATOM      9  C   LIG d   1      -6.141  75.833 116.190  0.00  0.00     0.028 C 
ATOM     10  C   LIG d   1      -6.799  76.670 117.300  0.00  0.00     0.006 C 
ENDBRANCH   8   9
BRANCH   8  11
ATOM     11  C   LIG d   1      -4.775  75.934 114.167  0.00  0.00     0.028 C 
ATOM     12  C   LIG d   1      -5.173  74.451 114.114  0.00  0.00     0.006 C 
ENDBRANCH   8  11
ENDBRANCH   7   8
ENDBRANCH   1   7
BRANCH   6  13
ATOM     13  N   LIG d   1      -0.913  76.520 115.483  0.00  0.00    -0.311 N 
ATOM     14  C   LIG d   1      -0.449  75.944 114.375  0.00  0.00     0.210 C 
ATOM     15  C   LIG d   1       0.598  74.850 114.605  0.00  0.00     0.109 C 
ATOM     16  O   LIG d   1      -0.782  76.258 113.222  0.00  0.00    -0.276 OA
ATOM     17  H   LIG d   1      -0.565  76.226 116.374  0.00  0.00     0.149 HD
ENDBRANCH   6  13
BRANCH   5  18
ATOM     18  N   LIG d   1      -0.519  79.324 114.335  0.00  0.00     0.381 N 
ATOM     19  H   LIG d   1      -0.778  80.222 113.980  0.00  0.00    -0.090 HD
ATOM     20  H   LIG d   1      -0.703  78.638 113.624  0.00  0.00    -0.090 HD
ATOM     21  H   LIG d   1       0.449  79.318 114.570  0.00  0.00    -0.090 HD
ENDBRANCH   5  18
BRANCH   3  22
ATOM     22  C   LIG d   1      -4.025  80.840 117.224  0.00  0.00     0.382 C 
ATOM     23  O   LIG d   1      -4.448  80.741 118.402  0.00  0.00    -0.241 OA
ATOM     24  O   LIG d   1      -4.231  81.888 116.584  0.00  0.00    -0.241 OA
ENDBRANCH   3  22
TORSDOF 7
ENDMDL
MODEL 6
REMARK VINA RESULT:      -4.9      2.111      4.531
REMARK  7 active torsions:
REMARK  status: ('A' for Active; 'I' for Inactive)
REMARK    1  A    between atoms: C_2  and  C_3 
REMARK    2  A    between atoms: C_3  and  O_6 
REMARK    3  A    between atoms: C_3  and  C_4 
REMARK    4  A    between atoms: C_7  and  O_6 
REMARK    5  A    between atoms: C_9  and  C_10 
REMARK    6  A    between atoms: N_15  and  C_14 
REMARK    7  A    between atoms: N_20  and  C_19 
REMARK       I    between atoms: C_22  and  N_20 
ROOT
ATOM      1  C   LIG d   1      -1.331  77.476 114.624  0.00  0.00     0.161 C 
ATOM      2  C   LIG d   1      -2.663  77.237 114.245  0.00  0.00     0.016 C 
ATOM      3  C   LIG d   1      -3.414  76.129 114.700  0.00  0.00     0.038 C 
ATOM      4  C   LIG d   1      -2.930  75.261 115.691  0.00  0.00     0.028 C 
ATOM      5  C   LIG d   1      -1.408  75.173 115.727  0.00  0.00    -0.047 C 
ATOM      6  C   LIG d   1      -0.823  76.602 115.790  0.00  0.00     0.091 C 
ENDROOT
BRANCH   1   7
ATOM      7  O   LIG d   1      -1.154  78.873 114.931  0.00  0.00    -0.368 OA
BRANCH   7   8
ATOM      8  C   LIG d   1      -2.357  79.681 114.939  0.00  0.00     0.119 C 
BRANCH   8   9
ATOM      9  C   LIG d   1      -2.052  80.973 114.156  0.00  0.00     0.028 C 
ATOM     10  C   LIG d   1      -2.413  82.240 114.951  0.00  0.00     0.006 C 
ENDBRANCH   8   9
BRANCH   8  11
ATOM     11  C   LIG d   1      -2.710  80.140 116.357  0.00  0.00     0.028 C 
ATOM     12  C   LIG d   1      -3.903  79.375 116.951  0.00  0.00     0.006 C 
ENDBRANCH   8  11
ENDBRANCH   7   8
ENDBRANCH   1   7
BRANCH   6  13
ATOM     13  N   LIG d   1       0.662  76.610 115.743  0.00  0.00    -0.311 N 
ATOM     14  C   LIG d   1       1.430  76.533 116.829  0.00  0.00     0.210 C 
ATOM     15  C   LIG d   1       2.937  76.577 116.559  0.00  0.00     0.109 C 
ATOM     16  O   LIG d   1       1.006  76.399 117.987  0.00  0.00    -0.276 OA
ATOM     17  H   LIG d   1       1.090  76.684 114.841  0.00  0.00     0.149 HD
ENDBRANCH   6  13
BRANCH   5  18
ATOM     18  N   LIG d   1      -1.037  74.345 116.890  0.00  0.00     0.381 N 
ATOM     19  H   LIG d   1      -1.853  74.135 117.430  0.00  0.00    -0.090 HD
ATOM     20  H   LIG d   1      -0.401  74.864 117.469  0.00  0.00    -0.090 HD
ATOM     21  H   LIG d   1      -0.606  73.501 116.585  0.00  0.00    -0.090 HD
ENDBRANCH   5  18
BRANCH   3  22
ATOM     22  C   LIG d   1      -4.650  75.857 114.133  0.00  0.00     0.382 C 
ATOM     23  O   LIG d   1      -5.571  76.706 114.201  0.00  0.00    -0.241 OA
ATOM     24  O   LIG d   1      -4.869  74.756 113.594  0.00  0.00    -0.241 OA
ENDBRANCH   3  22
TORSDOF 7
ENDMDL
MODEL 7
REMARK VINA RESULT:      -4.8      2.267      4.170
REMARK  7 active torsions:
REMARK  status: ('A' for Active; 'I' for Inactive)
REMARK    1  A    between atoms: C_2  and  C_3 
REMARK    2  A    between atoms: C_3  and  O_6 
REMARK    3  A    between atoms: C_3  and  C_4 
REMARK    4  A    between atoms: C_7  and  O_6 
REMARK    5  A    between atoms: C_9  and  C_10 
REMARK    6  A    between atoms: N_15  and  C_14 
REMARK    7  A    between atoms: N_20  and  C_19 
REMARK       I    between atoms: C_22  and  N_20 
ROOT
ATOM      1  C   LIG d   1      -2.999  76.714 115.528  0.00  0.00     0.161 C 
ATOM      2  C   LIG d   1      -2.132  75.729 115.027  0.00  0.00     0.016 C 
ATOM      3  C   LIG d   1      -0.733  75.748 115.230  0.00  0.00     0.038 C 
ATOM      4  C   LIG d   1      -0.120  76.678 116.083  0.00  0.00     0.028 C 
ATOM      5  C   LIG d   1      -0.890  77.988 116.204  0.00  0.00    -0.047 C 
ATOM      6  C   LIG d   1      -2.362  77.675 116.554  0.00  0.00     0.091 C 
ENDROOT
BRANCH   1   7
ATOM      7  O   LIG d   1      -4.174  76.092 116.086  0.00  0.00    -0.368 OA
BRANCH   7   8
ATOM      8  C   LIG d   1      -5.386  76.198 115.299  0.00  0.00     0.119 C 
BRANCH   8   9
ATOM      9  C   LIG d   1      -6.575  75.928 116.242  0.00  0.00     0.028 C 
ATOM     10  C   LIG d   1      -6.567  76.847 117.475  0.00  0.00     0.006 C 
ENDBRANCH   8   9
BRANCH   8  11
ATOM     11  C   LIG d   1      -5.455  75.100 114.234  0.00  0.00     0.028 C 
ATOM     12  C   LIG d   1      -5.603  73.694 114.835  0.00  0.00     0.006 C 
ENDBRANCH   8  11
ENDBRANCH   7   8
ENDBRANCH   1   7
BRANCH   6  13
ATOM     13  N   LIG d   1      -3.205  78.898 116.608  0.00  0.00    -0.311 N 
ATOM     14  C   LIG d   1      -3.777  79.345 117.724  0.00  0.00     0.210 C 
ATOM     15  C   LIG d   1      -4.621  80.612 117.556  0.00  0.00     0.109 C 
ATOM     16  O   LIG d   1      -3.640  78.831 118.845  0.00  0.00    -0.276 OA
ATOM     17  H   LIG d   1      -3.343  79.395 115.750  0.00  0.00     0.149 HD
ENDBRANCH   6  13
BRANCH   5  18
ATOM     18  N   LIG d   1      -0.214  78.809 117.226  0.00  0.00     0.381 N 
ATOM     19  H   LIG d   1       0.244  79.584 116.789  0.00  0.00    -0.090 HD
ATOM     20  H   LIG d   1       0.482  78.249 117.685  0.00  0.00    -0.090 HD
ATOM     21  H   LIG d   1      -0.878  79.139 117.892  0.00  0.00    -0.090 HD
ENDBRANCH   5  18
BRANCH   3  22
ATOM     22  C   LIG d   1       0.073  74.852 114.544  0.00  0.00     0.382 C 
ATOM     23  O   LIG d   1       0.312  75.030 113.325  0.00  0.00    -0.241 OA
ATOM     24  O   LIG d   1       0.528  73.844 115.117  0.00  0.00    -0.241 OA
ENDBRANCH   3  22
TORSDOF 7
ENDMDL
MODEL 8
REMARK VINA RESULT:      -4.8      2.726      4.186
REMARK  7 active torsions:
REMARK  status: ('A' for Active; 'I' for Inactive)
REMARK    1  A    between atoms: C_2  and  C_3 
REMARK    2  A    between atoms: C_3  and  O_6 
REMARK    3  A    between atoms: C_3  and  C_4 
REMARK    4  A    between atoms: C_7  and  O_6 
REMARK    5  A    between atoms: C_9  and  C_10 
REMARK    6  A    between atoms: N_15  and  C_14 
REMARK    7  A    between atoms: N_20  and  C_19 
REMARK       I    between atoms: C_22  and  N_20 
ROOT
ATOM      1  C   LIG d   1      -2.864  80.249 116.091  0.00  0.00     0.161 C 
ATOM      2  C   LIG d   1      -2.763  81.646 115.985  0.00  0.00     0.016 C 
ATOM      3  C   LIG d   1      -2.026  82.298 114.970  0.00  0.00     0.038 C 
ATOM      4  C   LIG d   1      -1.460  81.595 113.896  0.00  0.00     0.028 C 
ATOM      5  C   LIG d   1      -1.109  80.151 114.236  0.00  0.00    -0.047 C 
ATOM      6  C   LIG d   1      -2.345  79.468 114.865  0.00  0.00     0.091 C 
ENDROOT
BRANCH   1   7
ATOM      7  O   LIG d   1      -4.226  79.878 116.381  0.00  0.00    -0.368 OA
BRANCH   7   8
ATOM      8  C   LIG d   1      -4.514  79.540 117.760  0.00  0.00     0.119 C 
BRANCH   8   9
ATOM      9  C   LIG d   1      -4.665  78.009 117.841  0.00  0.00     0.028 C 
ATOM     10  C   LIG d   1      -5.424  77.430 116.635  0.00  0.00     0.006 C 
ENDBRANCH   8   9
BRANCH   8  11
ATOM     11  C   LIG d   1      -5.868  80.105 118.201  0.00  0.00     0.028 C 
ATOM     12  C   LIG d   1      -6.002  81.611 117.928  0.00  0.00     0.006 C 
ENDBRANCH   8  11
ENDBRANCH   7   8
ENDBRANCH   1   7
BRANCH   6  13
ATOM     13  N   LIG d   1      -2.063  78.077 115.304  0.00  0.00    -0.311 N 
ATOM     14  C   LIG d   1      -2.311  77.006 114.551  0.00  0.00     0.210 C 
ATOM     15  C   LIG d   1      -1.963  75.664 115.203  0.00  0.00     0.109 C 
ATOM     16  O   LIG d   1      -2.756  77.042 113.394  0.00  0.00    -0.276 OA
ATOM     17  H   LIG d   1      -1.672  77.957 116.218  0.00  0.00     0.149 HD
ENDBRANCH   6  13
BRANCH   5  18
ATOM     18  N   LIG d   1      -0.658  79.497 112.993  0.00  0.00     0.381 N 
ATOM     19  H   LIG d   1       0.341  79.518 112.942  0.00  0.00    -0.090 HD
ATOM     20  H   LIG d   1      -1.024  80.006 112.207  0.00  0.00    -0.090 HD
ATOM     21  H   LIG d   1      -0.979  78.555 112.967  0.00  0.00    -0.090 HD
ENDBRANCH   5  18
BRANCH   3  22
ATOM     22  C   LIG d   1      -1.816  83.667 115.045  0.00  0.00     0.382 C 
ATOM     23  O   LIG d   1      -2.789  84.455 114.976  0.00  0.00    -0.241 OA
ATOM     24  O   LIG d   1      -0.661  84.124 115.136  0.00  0.00    -0.241 OA
ENDBRANCH   3  22
TORSDOF 7
ENDMDL
MODEL 9
REMARK VINA RESULT:      -4.7      9.966     12.922
REMARK  7 active torsions:
REMARK  status: ('A' for Active; 'I' for Inactive)
REMARK    1  A    between atoms: C_2  and  C_3 
REMARK    2  A    between atoms: C_3  and  O_6 
REMARK    3  A    between atoms: C_3  and  C_4 
REMARK    4  A    between atoms: C_7  and  O_6 
REMARK    5  A    between atoms: C_9  and  C_10 
REMARK    6  A    between atoms: N_15  and  C_14 
REMARK    7  A    between atoms: N_20  and  C_19 
REMARK       I    between atoms: C_22  and  N_20 
ROOT
ATOM      1  C   LIG d   1       1.727  88.085 115.465  0.00  0.00     0.161 C 
ATOM      2  C   LIG d   1       2.962  88.275 114.823  0.00  0.00     0.016 C 
ATOM      3  C   LIG d   1       3.690  89.485 114.879  0.00  0.00     0.038 C 
ATOM      4  C   LIG d   1       3.303  90.546 115.711  0.00  0.00     0.028 C 
ATOM      5  C   LIG d   1       1.803  90.586 115.982  0.00  0.00    -0.047 C 
ATOM      6  C   LIG d   1       1.343  89.192 116.468  0.00  0.00     0.091 C 
ENDROOT
BRANCH   1   7
ATOM      7  O   LIG d   1       1.705  86.796 116.109  0.00  0.00    -0.368 OA
BRANCH   7   8
ATOM      8  C   LIG d   1       1.246  85.686 115.299  0.00  0.00     0.119 C 
BRANCH   8   9
ATOM      9  C   LIG d   1      -0.244  85.926 114.987  0.00  0.00     0.028 C 
ATOM     10  C   LIG d   1      -0.598  85.602 113.526  0.00  0.00     0.006 C 
ENDBRANCH   8   9
BRANCH   8  11
ATOM     11  C   LIG d   1       1.289  84.369 116.081  0.00  0.00     0.028 C 
ATOM     12  C   LIG d   1       2.203  84.439 117.314  0.00  0.00     0.006 C 
ENDBRANCH   8  11
ENDBRANCH   7   8
ENDBRANCH   1   7
BRANCH   6  13
ATOM     13  N   LIG d   1      -0.127  89.121 116.676  0.00  0.00    -0.311 N 
ATOM     14  C   LIG d   1      -0.714  89.360 117.847  0.00  0.00     0.210 C 
ATOM     15  C   LIG d   1      -2.239  89.212 117.848  0.00  0.00     0.109 C 
ATOM     16  O   LIG d   1      -0.120  89.713 118.877  0.00  0.00    -0.276 OA
ATOM     17  H   LIG d   1      -0.688  88.872 115.885  0.00  0.00     0.149 HD
ENDBRANCH   6  13
BRANCH   5  18
ATOM     18  N   LIG d   1       1.557  91.653 116.970  0.00  0.00     0.381 N 
ATOM     19  H   LIG d   1       0.796  91.394 117.566  0.00  0.00    -0.090 HD
ATOM     20  H   LIG d   1       1.304  92.495 116.484  0.00  0.00    -0.090 HD
ATOM     21  H   LIG d   1       2.376  91.809 117.515  0.00  0.00    -0.090 HD
ENDBRANCH   5  18
BRANCH   3  22
ATOM     22  C   LIG d   1       4.800  89.658 114.065  0.00  0.00     0.382 C 
ATOM     23  O   LIG d   1       4.657  90.086 112.894  0.00  0.00    -0.241 OA
ATOM     24  O   LIG d   1       5.936  89.351 114.472  0.00  0.00    -0.241 OA
ENDBRANCH   3  22
TORSDOF 7
ENDMDL
