MODEL 1
REMARK VINA RESULT:      -5.1      0.000      0.000
REMARK  7 active torsions:
REMARK  status: ('A' for Active; 'I' for Inactive)
REMARK    1  A    between atoms: C_2  and  C_3 
REMARK    2  A    between atoms: C_3  and  O_6 
REMARK    3  A    between atoms: C_3  and  C_4 
REMARK    4  A    between atoms: C_7  and  O_6 
REMARK    5  A    between atoms: C_9  and  C_10 
REMARK    6  A    between atoms: N_15  and  C_14 
REMARK    7  A    between atoms: N_20  and  C_19 
REMARK       I    between atoms: C_22  and  N_20 
ROOT
ATOM      1  C   LIG d   1      -5.084  76.661 117.251  0.00  0.00     0.161 C 
ATOM      2  C   LIG d   1      -6.037  77.664 117.494  0.00  0.00     0.016 C 
ATOM      3  C   LIG d   1      -5.755  79.046 117.390  0.00  0.00     0.038 C 
ATOM      4  C   LIG d   1      -4.534  79.518 116.887  0.00  0.00     0.028 C 
ATOM      5  C   LIG d   1      -3.374  78.554 117.109  0.00  0.00    -0.047 C 
ATOM      6  C   LIG d   1      -3.779  77.154 116.593  0.00  0.00     0.091 C 
ENDROOT
BRANCH   1   7
ATOM      7  O   LIG d   1      -5.674  75.607 116.465  0.00  0.00    -0.368 OA
BRANCH   7   8
ATOM      8  C   LIG d   1      -7.075  75.768 116.131  0.00  0.00     0.119 C 
BRANCH   8   9
ATOM      9  C   LIG d   1      -7.797  74.463 116.517  0.00  0.00     0.028 C 
ATOM     10  C   LIG d   1      -6.915  73.221 116.309  0.00  0.00     0.006 C 
ENDBRANCH   8   9
BRANCH   8  11
ATOM     11  C   LIG d   1      -7.275  75.910 114.619  0.00  0.00     0.028 C 
ATOM     12  C   LIG d   1      -5.954  75.846 113.835  0.00  0.00     0.006 C 
ENDBRANCH   8  11
ENDBRANCH   7   8
ENDBRANCH   1   7
BRANCH   6  13
ATOM     13  N   LIG d   1      -2.732  76.131 116.849  0.00  0.00    -0.311 N 
ATOM     14  C   LIG d   1      -2.222  75.350 115.898  0.00  0.00     0.210 C 
ATOM     15  C   LIG d   1      -1.167  74.348 116.380  0.00  0.00     0.109 C 
ATOM     16  O   LIG d   1      -2.519  75.414 114.696  0.00  0.00    -0.276 OA
ATOM     17  H   LIG d   1      -2.410  76.033 117.792  0.00  0.00     0.149 HD
ENDBRANCH   6  13
BRANCH   5  18
ATOM     18  N   LIG d   1      -2.195  79.107 116.416  0.00  0.00     0.381 N 
ATOM     19  H   LIG d   1      -1.461  79.272 117.075  0.00  0.00    -0.090 HD
ATOM     20  H   LIG d   1      -2.447  79.985 115.997  0.00  0.00    -0.090 HD
ATOM     21  H   LIG d   1      -1.884  78.473 115.713  0.00  0.00    -0.090 HD
ENDBRANCH   5  18
BRANCH   3  22
ATOM     22  C   LIG d   1      -6.688  79.972 117.831  0.00  0.00     0.382 C 
ATOM     23  O   LIG d   1      -7.509  79.658 118.726  0.00  0.00    -0.241 OA
ATOM     24  O   LIG d   1      -6.747  81.104 117.314  0.00  0.00    -0.241 OA
ENDBRANCH   3  22
TORSDOF 7
ENDMDL
MODEL 2
REMARK VINA RESULT:      -4.6      1.509      2.125
REMARK  7 active torsions:
REMARK  status: ('A' for Active; 'I' for Inactive)
REMARK    1  A    between atoms: C_2  and  C_3 
REMARK    2  A    between atoms: C_3  and  O_6 
REMARK    3  A    between atoms: C_3  and  C_4 
REMARK    4  A    between atoms: C_7  and  O_6 
REMARK    5  A    between atoms: C_9  and  C_10 
REMARK    6  A    between atoms: N_15  and  C_14 
REMARK    7  A    between atoms: N_20  and  C_19 
REMARK       I    between atoms: C_22  and  N_20 
ROOT
ATOM      1  C   LIG d   1      -5.478  77.667 117.206  0.00  0.00     0.161 C 
ATOM      2  C   LIG d   1      -6.255  78.835 117.272  0.00  0.00     0.016 C 
ATOM      3  C   LIG d   1      -5.882  79.977 118.018  0.00  0.00     0.038 C 
ATOM      4  C   LIG d   1      -4.625  80.084 118.630  0.00  0.00     0.028 C 
ATOM      5  C   LIG d   1      -4.019  78.738 119.010  0.00  0.00    -0.047 C 
ATOM      6  C   LIG d   1      -4.051  77.807 117.777  0.00  0.00     0.091 C 
ENDROOT
BRANCH   1   7
ATOM      7  O   LIG d   1      -5.429  77.189 115.847  0.00  0.00    -0.368 OA
BRANCH   7   8
ATOM      8  C   LIG d   1      -5.872  75.825 115.635  0.00  0.00     0.119 C 
BRANCH   8   9
ATOM      9  C   LIG d   1      -5.793  75.543 114.122  0.00  0.00     0.028 C 
ATOM     10  C   LIG d   1      -6.957  76.180 113.345  0.00  0.00     0.006 C 
ENDBRANCH   8   9
BRANCH   8  11
ATOM     11  C   LIG d   1      -7.349  75.655 116.003  0.00  0.00     0.028 C 
ATOM     12  C   LIG d   1      -7.657  74.277 116.608  0.00  0.00     0.006 C 
ENDBRANCH   8  11
ENDBRANCH   7   8
ENDBRANCH   1   7
BRANCH   6  13
ATOM     13  N   LIG d   1      -3.554  76.440 118.084  0.00  0.00    -0.311 N 
ATOM     14  C   LIG d   1      -2.477  75.906 117.512  0.00  0.00     0.210 C 
ATOM     15  C   LIG d   1      -2.150  74.477 117.957  0.00  0.00     0.109 C 
ATOM     16  O   LIG d   1      -1.742  76.491 116.702  0.00  0.00    -0.276 OA
ATOM     17  H   LIG d   1      -4.072  75.907 118.754  0.00  0.00     0.149 HD
ENDBRANCH   6  13
BRANCH   5  18
ATOM     18  N   LIG d   1      -2.654  78.988 119.511  0.00  0.00     0.381 N 
ATOM     19  H   LIG d   1      -2.187  79.637 118.910  0.00  0.00    -0.090 HD
ATOM     20  H   LIG d   1      -2.141  78.124 119.502  0.00  0.00    -0.090 HD
ATOM     21  H   LIG d   1      -2.692  79.350 120.438  0.00  0.00    -0.090 HD
ENDBRANCH   5  18
BRANCH   3  22
ATOM     22  C   LIG d   1      -6.789  81.012 118.190  0.00  0.00     0.382 C 
ATOM     23  O   LIG d   1      -7.303  81.214 119.316  0.00  0.00    -0.241 OA
ATOM     24  O   LIG d   1      -7.133  81.718 117.223  0.00  0.00    -0.241 OA
ENDBRANCH   3  22
TORSDOF 7
ENDMDL
MODEL 3
REMARK VINA RESULT:      -4.6      2.175      4.803
REMARK  7 active torsions:
REMARK  status: ('A' for Active; 'I' for Inactive)
REMARK    1  A    between atoms: C_2  and  C_3 
REMARK    2  A    between atoms: C_3  and  O_6 
REMARK    3  A    between atoms: C_3  and  C_4 
REMARK    4  A    between atoms: C_7  and  O_6 
REMARK    5  A    between atoms: C_9  and  C_10 
REMARK    6  A    between atoms: N_15  and  C_14 
REMARK    7  A    between atoms: N_20  and  C_19 
REMARK       I    between atoms: C_22  and  N_20 
ROOT
ATOM      1  C   LIG d   1      -3.829  76.149 116.144  0.00  0.00     0.161 C 
ATOM      2  C   LIG d   1      -4.972  75.343 116.008  0.00  0.00     0.016 C 
ATOM      3  C   LIG d   1      -6.282  75.800 116.276  0.00  0.00     0.038 C 
ATOM      4  C   LIG d   1      -6.556  77.148 116.555  0.00  0.00     0.028 C 
ATOM      5  C   LIG d   1      -5.384  77.883 117.196  0.00  0.00    -0.047 C 
ATOM      6  C   LIG d   1      -4.118  77.652 116.339  0.00  0.00     0.091 C 
ENDROOT
BRANCH   1   7
ATOM      7  O   LIG d   1      -2.954  75.950 115.016  0.00  0.00    -0.368 OA
BRANCH   7   8
ATOM      8  C   LIG d   1      -1.541  75.833 115.319  0.00  0.00     0.119 C 
BRANCH   8   9
ATOM      9  C   LIG d   1      -0.765  76.112 114.017  0.00  0.00     0.028 C 
ATOM     10  C   LIG d   1      -1.535  77.038 113.061  0.00  0.00     0.006 C 
ENDBRANCH   8   9
BRANCH   8  11
ATOM     11  C   LIG d   1      -1.172  74.400 115.712  0.00  0.00     0.028 C 
ATOM     12  C   LIG d   1      -1.123  74.194 117.234  0.00  0.00     0.006 C 
ENDBRANCH   8  11
ENDBRANCH   7   8
ENDBRANCH   1   7
BRANCH   6  13
ATOM     13  N   LIG d   1      -2.906  78.268 116.941  0.00  0.00    -0.311 N 
ATOM     14  C   LIG d   1      -2.169  79.191 116.324  0.00  0.00     0.210 C 
ATOM     15  C   LIG d   1      -0.951  79.679 117.113  0.00  0.00     0.109 C 
ATOM     16  O   LIG d   1      -2.427  79.674 115.211  0.00  0.00    -0.276 OA
ATOM     17  H   LIG d   1      -2.642  77.957 117.855  0.00  0.00     0.149 HD
ENDBRANCH   6  13
BRANCH   5  18
ATOM     18  N   LIG d   1      -5.756  79.306 117.305  0.00  0.00     0.381 N 
ATOM     19  H   LIG d   1      -5.668  79.749 116.412  0.00  0.00    -0.090 HD
ATOM     20  H   LIG d   1      -5.128  79.759 117.945  0.00  0.00    -0.090 HD
ATOM     21  H   LIG d   1      -6.693  79.389 117.634  0.00  0.00    -0.090 HD
ENDBRANCH   5  18
BRANCH   3  22
ATOM     22  C   LIG d   1      -7.333  74.895 116.306  0.00  0.00     0.382 C 
ATOM     23  O   LIG d   1      -8.517  75.310 116.315  0.00  0.00    -0.241 OA
ATOM     24  O   LIG d   1      -7.111  73.671 116.369  0.00  0.00    -0.241 OA
ENDBRANCH   3  22
TORSDOF 7
ENDMDL
MODEL 4
REMARK VINA RESULT:      -4.4     11.890     14.355
REMARK  7 active torsions:
REMARK  status: ('A' for Active; 'I' for Inactive)
REMARK    1  A    between atoms: C_2  and  C_3 
REMARK    2  A    between atoms: C_3  and  O_6 
REMARK    3  A    between atoms: C_3  and  C_4 
REMARK    4  A    between atoms: C_7  and  O_6 
REMARK    5  A    between atoms: C_9  and  C_10 
REMARK    6  A    between atoms: N_15  and  C_14 
REMARK    7  A    between atoms: N_20  and  C_19 
REMARK       I    between atoms: C_22  and  N_20 
ROOT
ATOM      1  C   LIG d   1       2.829  88.188 117.329  0.00  0.00     0.161 C 
ATOM      2  C   LIG d   1       3.490  89.383 117.659  0.00  0.00     0.016 C 
ATOM      3  C   LIG d   1       4.136  90.203 116.705  0.00  0.00     0.038 C 
ATOM      4  C   LIG d   1       4.034  89.960 115.327  0.00  0.00     0.028 C 
ATOM      5  C   LIG d   1       3.803  88.491 114.987  0.00  0.00    -0.047 C 
ATOM      6  C   LIG d   1       2.611  87.965 115.818  0.00  0.00     0.091 C 
ENDROOT
BRANCH   1   7
ATOM      7  O   LIG d   1       1.572  88.116 118.032  0.00  0.00    -0.368 OA
BRANCH   7   8
ATOM      8  C   LIG d   1       0.430  88.698 117.358  0.00  0.00     0.119 C 
BRANCH   8   9
ATOM      9  C   LIG d   1      -0.023  89.918 118.184  0.00  0.00     0.028 C 
ATOM     10  C   LIG d   1       0.272  91.250 117.474  0.00  0.00     0.006 C 
ENDBRANCH   8   9
BRANCH   8  11
ATOM     11  C   LIG d   1      -0.766  87.741 117.359  0.00  0.00     0.028 C 
ATOM     12  C   LIG d   1      -2.055  88.399 117.874  0.00  0.00     0.006 C 
ENDBRANCH   8  11
ENDBRANCH   7   8
ENDBRANCH   1   7
BRANCH   6  13
ATOM     13  N   LIG d   1       2.371  86.513 115.608  0.00  0.00    -0.311 N 
ATOM     14  C   LIG d   1       1.476  86.035 114.745  0.00  0.00     0.210 C 
ATOM     15  C   LIG d   1       1.374  84.507 114.699  0.00  0.00     0.109 C 
ATOM     16  O   LIG d   1       0.781  86.731 113.990  0.00  0.00    -0.276 OA
ATOM     17  H   LIG d   1       2.915  85.877 116.158  0.00  0.00     0.149 HD
ENDBRANCH   6  13
BRANCH   5  18
ATOM     18  N   LIG d   1       3.578  88.401 113.532  0.00  0.00     0.381 N 
ATOM     19  H   LIG d   1       2.781  88.949 113.278  0.00  0.00    -0.090 HD
ATOM     20  H   LIG d   1       3.392  87.443 113.291  0.00  0.00    -0.090 HD
ATOM     21  H   LIG d   1       4.383  88.724 113.042  0.00  0.00    -0.090 HD
ENDBRANCH   5  18
BRANCH   3  22
ATOM     22  C   LIG d   1       4.928  91.259 117.130  0.00  0.00     0.382 C 
ATOM     23  O   LIG d   1       4.535  92.440 116.974  0.00  0.00    -0.241 OA
ATOM     24  O   LIG d   1       6.050  91.046 117.628  0.00  0.00    -0.241 OA
ENDBRANCH   3  22
TORSDOF 7
ENDMDL
MODEL 5
REMARK VINA RESULT:      -4.4      2.197      4.447
REMARK  7 active torsions:
REMARK  status: ('A' for Active; 'I' for Inactive)
REMARK    1  A    between atoms: C_2  and  C_3 
REMARK    2  A    between atoms: C_3  and  O_6 
REMARK    3  A    between atoms: C_3  and  C_4 
REMARK    4  A    between atoms: C_7  and  O_6 
REMARK    5  A    between atoms: C_9  and  C_10 
REMARK    6  A    between atoms: N_15  and  C_14 
REMARK    7  A    between atoms: N_20  and  C_19 
REMARK       I    between atoms: C_22  and  N_20 
ROOT
ATOM      1  C   LIG d   1      -3.974  76.258 116.623  0.00  0.00     0.161 C 
ATOM      2  C   LIG d   1      -5.122  75.478 116.404  0.00  0.00     0.016 C 
ATOM      3  C   LIG d   1      -6.438  75.989 116.492  0.00  0.00     0.038 C 
ATOM      4  C   LIG d   1      -6.692  77.358 116.659  0.00  0.00     0.028 C 
ATOM      5  C   LIG d   1      -5.574  78.098 117.387  0.00  0.00    -0.047 C 
ATOM      6  C   LIG d   1      -4.229  77.778 116.696  0.00  0.00     0.091 C 
ENDROOT
BRANCH   1   7
ATOM      7  O   LIG d   1      -2.985  75.964 115.617  0.00  0.00    -0.368 OA
BRANCH   7   8
ATOM      8  C   LIG d   1      -2.051  74.901 115.932  0.00  0.00     0.119 C 
BRANCH   8   9
ATOM      9  C   LIG d   1      -1.483  75.186 117.336  0.00  0.00     0.028 C 
ATOM     10  C   LIG d   1      -1.601  73.974 118.275  0.00  0.00     0.006 C 
ENDBRANCH   8   9
BRANCH   8  11
ATOM     11  C   LIG d   1      -0.842  74.925 114.993  0.00  0.00     0.028 C 
ATOM     12  C   LIG d   1      -0.714  76.247 114.220  0.00  0.00     0.006 C 
ENDBRANCH   8  11
ENDBRANCH   7   8
ENDBRANCH   1   7
BRANCH   6  13
ATOM     13  N   LIG d   1      -3.072  78.394 117.397  0.00  0.00    -0.311 N 
ATOM     14  C   LIG d   1      -2.166  79.156 116.786  0.00  0.00     0.210 C 
ATOM     15  C   LIG d   1      -1.043  79.675 117.689  0.00  0.00     0.109 C 
ATOM     16  O   LIG d   1      -2.204  79.477 115.588  0.00  0.00    -0.276 OA
ATOM     17  H   LIG d   1      -2.981  78.211 118.377  0.00  0.00     0.149 HD
ENDBRANCH   6  13
BRANCH   5  18
ATOM     18  N   LIG d   1      -5.906  79.535 117.370  0.00  0.00     0.381 N 
ATOM     19  H   LIG d   1      -5.174  80.046 116.917  0.00  0.00    -0.090 HD
ATOM     20  H   LIG d   1      -5.980  79.863 118.317  0.00  0.00    -0.090 HD
ATOM     21  H   LIG d   1      -6.768  79.680 116.892  0.00  0.00    -0.090 HD
ENDBRANCH   5  18
BRANCH   3  22
ATOM     22  C   LIG d   1      -7.517  75.119 116.454  0.00  0.00     0.382 C 
ATOM     23  O   LIG d   1      -7.326  73.881 116.525  0.00  0.00    -0.241 OA
ATOM     24  O   LIG d   1      -8.674  75.554 116.304  0.00  0.00    -0.241 OA
ENDBRANCH   3  22
TORSDOF 7
ENDMDL
MODEL 6
REMARK VINA RESULT:      -4.3     12.412     14.992
REMARK  7 active torsions:
REMARK  status: ('A' for Active; 'I' for Inactive)
REMARK    1  A    between atoms: C_2  and  C_3 
REMARK    2  A    between atoms: C_3  and  O_6 
REMARK    3  A    between atoms: C_3  and  C_4 
REMARK    4  A    between atoms: C_7  and  O_6 
REMARK    5  A    between atoms: C_9  and  C_10 
REMARK    6  A    between atoms: N_15  and  C_14 
REMARK    7  A    between atoms: N_20  and  C_19 
REMARK       I    between atoms: C_22  and  N_20 
ROOT
ATOM      1  C   LIG d   1       0.986  89.921 117.589  0.00  0.00     0.161 C 
ATOM      2  C   LIG d   1      -0.394  89.724 117.416  0.00  0.00     0.016 C 
ATOM      3  C   LIG d   1      -1.369  90.676 117.795  0.00  0.00     0.038 C 
ATOM      4  C   LIG d   1      -1.019  91.960 118.238  0.00  0.00     0.028 C 
ATOM      5  C   LIG d   1       0.352  92.019 118.903  0.00  0.00    -0.047 C 
ATOM      6  C   LIG d   1       1.392  91.360 117.968  0.00  0.00     0.091 C 
ENDROOT
BRANCH   1   7
ATOM      7  O   LIG d   1       1.692  89.495 116.407  0.00  0.00    -0.368 OA
BRANCH   7   8
ATOM      8  C   LIG d   1       2.451  88.267 116.525  0.00  0.00     0.119 C 
BRANCH   8   9
ATOM      9  C   LIG d   1       3.834  88.514 115.891  0.00  0.00     0.028 C 
ATOM     10  C   LIG d   1       3.783  88.506 114.353  0.00  0.00     0.006 C 
ENDBRANCH   8   9
BRANCH   8  11
ATOM     11  C   LIG d   1       1.822  87.141 115.700  0.00  0.00     0.028 C 
ATOM     12  C   LIG d   1       0.820  86.299 116.507  0.00  0.00     0.006 C 
ENDBRANCH   8  11
ENDBRANCH   7   8
ENDBRANCH   1   7
BRANCH   6  13
ATOM     13  N   LIG d   1       2.745  91.300 118.579  0.00  0.00    -0.311 N 
ATOM     14  C   LIG d   1       3.857  91.650 117.934  0.00  0.00     0.210 C 
ATOM     15  C   LIG d   1       5.149  91.493 118.741  0.00  0.00     0.109 C 
ATOM     16  O   LIG d   1       3.892  92.107 116.782  0.00  0.00    -0.276 OA
ATOM     17  H   LIG d   1       2.806  90.970 119.522  0.00  0.00     0.149 HD
ENDBRANCH   6  13
BRANCH   5  18
ATOM     18  N   LIG d   1       0.648  93.435 119.191  0.00  0.00     0.381 N 
ATOM     19  H   LIG d   1       1.448  93.499 119.787  0.00  0.00    -0.090 HD
ATOM     20  H   LIG d   1      -0.137  93.840 119.671  0.00  0.00    -0.090 HD
ATOM     21  H   LIG d   1       0.816  93.927 118.341  0.00  0.00    -0.090 HD
ENDBRANCH   5  18
BRANCH   3  22
ATOM     22  C   LIG d   1      -2.712  90.331 117.770  0.00  0.00     0.382 C 
ATOM     23  O   LIG d   1      -3.048  89.130 117.634  0.00  0.00    -0.241 OA
ATOM     24  O   LIG d   1      -3.591  91.210 117.838  0.00  0.00    -0.241 OA
ENDBRANCH   3  22
TORSDOF 7
ENDMDL
MODEL 7
REMARK VINA RESULT:      -4.2     14.632     17.734
REMARK  7 active torsions:
REMARK  status: ('A' for Active; 'I' for Inactive)
REMARK    1  A    between atoms: C_2  and  C_3 
REMARK    2  A    between atoms: C_3  and  O_6 
REMARK    3  A    between atoms: C_3  and  C_4 
REMARK    4  A    between atoms: C_7  and  O_6 
REMARK    5  A    between atoms: C_9  and  C_10 
REMARK    6  A    between atoms: N_15  and  C_14 
REMARK    7  A    between atoms: N_20  and  C_19 
REMARK       I    between atoms: C_22  and  N_20 
ROOT
ATOM      1  C   LIG d   1     -16.049  63.522 117.023  0.00  0.00     0.161 C 
ATOM      2  C   LIG d   1     -15.069  64.268 117.700  0.00  0.00     0.016 C 
ATOM      3  C   LIG d   1     -14.705  65.585 117.336  0.00  0.00     0.038 C 
ATOM      4  C   LIG d   1     -15.407  66.305 116.358  0.00  0.00     0.028 C 
ATOM      5  C   LIG d   1     -16.068  65.417 115.309  0.00  0.00    -0.047 C 
ATOM      6  C   LIG d   1     -16.903  64.331 116.026  0.00  0.00     0.091 C 
ENDROOT
BRANCH   1   7
ATOM      7  O   LIG d   1     -16.894  62.849 117.977  0.00  0.00    -0.368 OA
BRANCH   7   8
ATOM      8  C   LIG d   1     -16.688  61.421 118.116  0.00  0.00     0.119 C 
BRANCH   8   9
ATOM      9  C   LIG d   1     -15.770  61.202 119.334  0.00  0.00     0.028 C 
ATOM     10  C   LIG d   1     -14.378  60.685 118.934  0.00  0.00     0.006 C 
ENDBRANCH   8   9
BRANCH   8  11
ATOM     11  C   LIG d   1     -15.919  60.851 116.920  0.00  0.00     0.028 C 
ATOM     12  C   LIG d   1     -16.772  59.905 116.060  0.00  0.00     0.006 C 
ENDBRANCH   8  11
ENDBRANCH   7   8
ENDBRANCH   1   7
BRANCH   6  13
ATOM     13  N   LIG d   1     -17.516  63.367 115.074  0.00  0.00    -0.311 N 
ATOM     14  C   LIG d   1     -18.746  63.504 114.583  0.00  0.00     0.210 C 
ATOM     15  C   LIG d   1     -19.191  62.388 113.632  0.00  0.00     0.109 C 
ATOM     16  O   LIG d   1     -19.500  64.461 114.818  0.00  0.00    -0.276 OA
ATOM     17  H   LIG d   1     -16.962  62.578 114.805  0.00  0.00     0.149 HD
ENDBRANCH   6  13
BRANCH   5  18
ATOM     18  N   LIG d   1     -16.878  66.286 114.435  0.00  0.00     0.381 N 
ATOM     19  H   LIG d   1     -17.705  66.577 114.918  0.00  0.00    -0.090 HD
ATOM     20  H   LIG d   1     -17.155  65.763 113.623  0.00  0.00    -0.090 HD
ATOM     21  H   LIG d   1     -16.347  67.083 114.161  0.00  0.00    -0.090 HD
ENDBRANCH   5  18
BRANCH   3  22
ATOM     22  C   LIG d   1     -13.600  66.180 117.926  0.00  0.00     0.382 C 
ATOM     23  O   LIG d   1     -13.403  66.052 119.158  0.00  0.00    -0.241 OA
ATOM     24  O   LIG d   1     -12.823  66.880 117.249  0.00  0.00    -0.241 OA
ENDBRANCH   3  22
TORSDOF 7
ENDMDL
MODEL 8
REMARK VINA RESULT:      -4.1     15.591     18.527
REMARK  7 active torsions:
REMARK  status: ('A' for Active; 'I' for Inactive)
REMARK    1  A    between atoms: C_2  and  C_3 
REMARK    2  A    between atoms: C_3  and  O_6 
REMARK    3  A    between atoms: C_3  and  C_4 
REMARK    4  A    between atoms: C_7  and  O_6 
REMARK    5  A    between atoms: C_9  and  C_10 
REMARK    6  A    between atoms: N_15  and  C_14 
REMARK    7  A    between atoms: N_20  and  C_19 
REMARK       I    between atoms: C_22  and  N_20 
ROOT
ATOM      1  C   LIG d   1     -16.368  63.928 116.153  0.00  0.00     0.161 C 
ATOM      2  C   LIG d   1     -15.355  63.223 116.824  0.00  0.00     0.016 C 
ATOM      3  C   LIG d   1     -15.462  61.859 117.180  0.00  0.00     0.038 C 
ATOM      4  C   LIG d   1     -16.535  61.063 116.754  0.00  0.00     0.028 C 
ATOM      5  C   LIG d   1     -17.816  61.853 116.510  0.00  0.00    -0.047 C 
ATOM      6  C   LIG d   1     -17.499  63.048 115.582  0.00  0.00     0.091 C 
ENDROOT
BRANCH   1   7
ATOM      7  O   LIG d   1     -15.791  64.741 115.112  0.00  0.00    -0.368 OA
BRANCH   7   8
ATOM      8  C   LIG d   1     -16.076  66.160 115.179  0.00  0.00     0.119 C 
BRANCH   8   9
ATOM      9  C   LIG d   1     -15.061  66.880 114.271  0.00  0.00     0.028 C 
ATOM     10  C   LIG d   1     -15.669  68.102 113.564  0.00  0.00     0.006 C 
ENDBRANCH   8   9
BRANCH   8  11
ATOM     11  C   LIG d   1     -15.826  66.713 116.585  0.00  0.00     0.028 C 
ATOM     12  C   LIG d   1     -16.959  67.628 117.077  0.00  0.00     0.006 C 
ENDBRANCH   8  11
ENDBRANCH   7   8
ENDBRANCH   1   7
BRANCH   6  13
ATOM     13  N   LIG d   1     -18.681  63.922 115.360  0.00  0.00    -0.311 N 
ATOM     14  C   LIG d   1     -19.176  64.194 114.154  0.00  0.00     0.210 C 
ATOM     15  C   LIG d   1     -20.386  65.133 114.148  0.00  0.00     0.109 C 
ATOM     16  O   LIG d   1     -18.748  63.720 113.091  0.00  0.00    -0.276 OA
ATOM     17  H   LIG d   1     -19.110  64.324 116.171  0.00  0.00     0.149 HD
ENDBRANCH   6  13
BRANCH   5  18
ATOM     18  N   LIG d   1     -18.810  60.925 115.939  0.00  0.00     0.381 N 
ATOM     19  H   LIG d   1     -19.240  60.396 116.672  0.00  0.00    -0.090 HD
ATOM     20  H   LIG d   1     -18.342  60.286 115.321  0.00  0.00    -0.090 HD
ATOM     21  H   LIG d   1     -19.504  61.435 115.438  0.00  0.00    -0.090 HD
ENDBRANCH   5  18
BRANCH   3  22
ATOM     22  C   LIG d   1     -14.506  61.288 118.006  0.00  0.00     0.382 C 
ATOM     23  O   LIG d   1     -14.845  60.435 118.862  0.00  0.00    -0.241 OA
ATOM     24  O   LIG d   1     -13.315  61.647 117.937  0.00  0.00    -0.241 OA
ENDBRANCH   3  22
TORSDOF 7
ENDMDL
MODEL 9
REMARK VINA RESULT:      -4.0     14.503     17.631
REMARK  7 active torsions:
REMARK  status: ('A' for Active; 'I' for Inactive)
REMARK    1  A    between atoms: C_2  and  C_3 
REMARK    2  A    between atoms: C_3  and  O_6 
REMARK    3  A    between atoms: C_3  and  C_4 
REMARK    4  A    between atoms: C_7  and  O_6 
REMARK    5  A    between atoms: C_9  and  C_10 
REMARK    6  A    between atoms: N_15  and  C_14 
REMARK    7  A    between atoms: N_20  and  C_19 
REMARK       I    between atoms: C_22  and  N_20 
ROOT
ATOM      1  C   LIG d   1     -16.512  64.539 116.024  0.00  0.00     0.161 C 
ATOM      2  C   LIG d   1     -15.294  64.784 116.681  0.00  0.00     0.016 C 
ATOM      3  C   LIG d   1     -15.052  65.932 117.470  0.00  0.00     0.038 C 
ATOM      4  C   LIG d   1     -16.070  66.846 117.780  0.00  0.00     0.028 C 
ATOM      5  C   LIG d   1     -17.173  66.905 116.729  0.00  0.00    -0.047 C 
ATOM      6  C   LIG d   1     -17.670  65.469 116.442  0.00  0.00     0.091 C 
ENDROOT
BRANCH   1   7
ATOM      7  O   LIG d   1     -16.891  63.159 116.196  0.00  0.00    -0.368 OA
BRANCH   7   8
ATOM      8  C   LIG d   1     -16.698  62.605 117.521  0.00  0.00     0.119 C 
BRANCH   8   9
ATOM      9  C   LIG d   1     -15.980  61.252 117.357  0.00  0.00     0.028 C 
ATOM     10  C   LIG d   1     -14.500  61.319 117.769  0.00  0.00     0.006 C 
ENDBRANCH   8   9
BRANCH   8  11
ATOM     11  C   LIG d   1     -18.037  62.275 118.187  0.00  0.00     0.028 C 
ATOM     12  C   LIG d   1     -17.892  61.302 119.367  0.00  0.00     0.006 C 
ENDBRANCH   8  11
ENDBRANCH   7   8
ENDBRANCH   1   7
BRANCH   6  13
ATOM     13  N   LIG d   1     -18.691  65.428 115.364  0.00  0.00    -0.311 N 
ATOM     14  C   LIG d   1     -20.000  65.349 115.596  0.00  0.00     0.210 C 
ATOM     15  C   LIG d   1     -20.878  65.299 114.342  0.00  0.00     0.109 C 
ATOM     16  O   LIG d   1     -20.520  65.349 116.723  0.00  0.00    -0.276 OA
ATOM     17  H   LIG d   1     -18.359  65.455 114.420  0.00  0.00     0.149 HD
ENDBRANCH   6  13
BRANCH   5  18
ATOM     18  N   LIG d   1     -18.233  67.792 117.244  0.00  0.00     0.381 N 
ATOM     19  H   LIG d   1     -17.924  68.743 117.212  0.00  0.00    -0.090 HD
ATOM     20  H   LIG d   1     -18.419  67.553 118.203  0.00  0.00    -0.090 HD
ATOM     21  H   LIG d   1     -19.061  67.684 116.701  0.00  0.00    -0.090 HD
ENDBRANCH   5  18
BRANCH   3  22
ATOM     22  C   LIG d   1     -13.768  66.196 117.924  0.00  0.00     0.382 C 
ATOM     23  O   LIG d   1     -13.445  65.895 119.098  0.00  0.00    -0.241 OA
ATOM     24  O   LIG d   1     -12.944  66.770 117.188  0.00  0.00    -0.241 OA
ENDBRANCH   3  22
TORSDOF 7
ENDMDL
