MODEL 1
REMARK VINA RESULT:      -5.8      0.000      0.000
REMARK  7 active torsions:
REMARK  status: ('A' for Active; 'I' for Inactive)
REMARK    1  A    between atoms: C_2  and  C_3 
REMARK    2  A    between atoms: C_3  and  O_6 
REMARK    3  A    between atoms: C_3  and  C_4 
REMARK    4  A    between atoms: C_7  and  O_6 
REMARK    5  A    between atoms: C_9  and  C_10 
REMARK    6  A    between atoms: N_15  and  C_14 
REMARK    7  A    between atoms: N_20  and  C_19 
REMARK       I    between atoms: C_22  and  N_20 
ROOT
ATOM      1  C   LIG d   1      -7.939  75.232 118.109  0.00  0.00     0.161 C 
ATOM      2  C   LIG d   1      -9.194  75.783 118.421  0.00  0.00     0.016 C 
ATOM      3  C   LIG d   1      -9.434  77.173 118.506  0.00  0.00     0.038 C 
ATOM      4  C   LIG d   1      -8.465  78.117 118.135  0.00  0.00     0.028 C 
ATOM      5  C   LIG d   1      -7.035  77.614 118.300  0.00  0.00    -0.047 C 
ATOM      6  C   LIG d   1      -6.898  76.247 117.592  0.00  0.00     0.091 C 
ENDROOT
BRANCH   1   7
ATOM      7  O   LIG d   1      -8.100  74.155 117.165  0.00  0.00    -0.368 OA
BRANCH   7   8
ATOM      8  C   LIG d   1      -8.296  72.836 117.732  0.00  0.00     0.119 C 
BRANCH   8   9
ATOM      9  C   LIG d   1      -7.290  71.886 117.052  0.00  0.00     0.028 C 
ATOM     10  C   LIG d   1      -6.418  72.604 116.009  0.00  0.00     0.006 C 
ENDBRANCH   8   9
BRANCH   8  11
ATOM     11  C   LIG d   1      -9.679  72.279 117.382  0.00  0.00     0.028 C 
ATOM     12  C   LIG d   1      -9.731  70.743 117.421  0.00  0.00     0.006 C 
ENDBRANCH   8  11
ENDBRANCH   7   8
ENDBRANCH   1   7
BRANCH   6  13
ATOM     13  N   LIG d   1      -5.552  75.645 117.777  0.00  0.00    -0.311 N 
ATOM     14  C   LIG d   1      -4.562  75.778 116.896  0.00  0.00     0.210 C 
ATOM     15  C   LIG d   1      -3.262  75.060 117.271  0.00  0.00     0.109 C 
ATOM     16  O   LIG d   1      -4.627  76.449 115.855  0.00  0.00    -0.276 OA
ATOM     17  H   LIG d   1      -5.403  75.109 118.609  0.00  0.00     0.149 HD
ENDBRANCH   6  13
BRANCH   5  18
ATOM     18  N   LIG d   1      -6.133  78.644 117.749  0.00  0.00     0.381 N 
ATOM     19  H   LIG d   1      -6.515  79.553 117.917  0.00  0.00    -0.090 HD
ATOM     20  H   LIG d   1      -6.059  78.512 116.756  0.00  0.00    -0.090 HD
ATOM     21  H   LIG d   1      -5.233  78.570 118.170  0.00  0.00    -0.090 HD
ENDBRANCH   5  18
BRANCH   3  22
ATOM     22  C   LIG d   1     -10.643  77.633 119.006  0.00  0.00     0.382 C 
ATOM     23  O   LIG d   1     -11.630  76.861 119.065  0.00  0.00    -0.241 OA
ATOM     24  O   LIG d   1     -10.771  78.821 119.358  0.00  0.00    -0.241 OA
ENDBRANCH   3  22
TORSDOF 7
ENDMDL
MODEL 2
REMARK VINA RESULT:      -5.7      2.412      6.064
REMARK  7 active torsions:
REMARK  status: ('A' for Active; 'I' for Inactive)
REMARK    1  A    between atoms: C_2  and  C_3 
REMARK    2  A    between atoms: C_3  and  O_6 
REMARK    3  A    between atoms: C_3  and  C_4 
REMARK    4  A    between atoms: C_7  and  O_6 
REMARK    5  A    between atoms: C_9  and  C_10 
REMARK    6  A    between atoms: N_15  and  C_14 
REMARK    7  A    between atoms: N_20  and  C_19 
REMARK       I    between atoms: C_22  and  N_20 
ROOT
ATOM      1  C   LIG d   1      -7.307  74.881 117.208  0.00  0.00     0.161 C 
ATOM      2  C   LIG d   1      -6.270  75.631 116.630  0.00  0.00     0.016 C 
ATOM      3  C   LIG d   1      -5.335  75.092 115.716  0.00  0.00     0.038 C 
ATOM      4  C   LIG d   1      -5.467  73.794 115.200  0.00  0.00     0.028 C 
ATOM      5  C   LIG d   1      -6.201  72.841 116.137  0.00  0.00    -0.047 C 
ATOM      6  C   LIG d   1      -7.534  73.493 116.573  0.00  0.00     0.091 C 
ENDROOT
BRANCH   1   7
ATOM      7  O   LIG d   1      -8.530  75.644 117.194  0.00  0.00    -0.368 OA
BRANCH   7   8
ATOM      8  C   LIG d   1      -8.954  76.193 118.466  0.00  0.00     0.119 C 
BRANCH   8   9
ATOM      9  C   LIG d   1     -10.340  75.599 118.787  0.00  0.00     0.028 C 
ATOM     10  C   LIG d   1     -11.335  76.664 119.277  0.00  0.00     0.006 C 
ENDBRANCH   8   9
BRANCH   8  11
ATOM     11  C   LIG d   1      -9.173  77.706 118.376  0.00  0.00     0.028 C 
ATOM     12  C   LIG d   1      -7.856  78.498 118.362  0.00  0.00     0.006 C 
ENDBRANCH   8  11
ENDBRANCH   7   8
ENDBRANCH   1   7
BRANCH   6  13
ATOM     13  N   LIG d   1      -8.276  72.663 117.557  0.00  0.00    -0.311 N 
ATOM     14  C   LIG d   1      -9.174  71.743 117.211  0.00  0.00     0.210 C 
ATOM     15  C   LIG d   1      -9.838  71.014 118.383  0.00  0.00     0.109 C 
ATOM     16  O   LIG d   1      -9.460  71.438 116.043  0.00  0.00    -0.276 OA
ATOM     17  H   LIG d   1      -8.082  72.823 118.526  0.00  0.00     0.149 HD
ENDBRANCH   6  13
BRANCH   5  18
ATOM     18  N   LIG d   1      -6.389  71.567 115.419  0.00  0.00     0.381 N 
ATOM     19  H   LIG d   1      -5.601  71.392 114.828  0.00  0.00    -0.090 HD
ATOM     20  H   LIG d   1      -7.208  71.636 114.842  0.00  0.00    -0.090 HD
ATOM     21  H   LIG d   1      -6.496  70.821 116.071  0.00  0.00    -0.090 HD
ENDBRANCH   5  18
BRANCH   3  22
ATOM     22  C   LIG d   1      -4.231  75.842 115.340  0.00  0.00     0.382 C 
ATOM     23  O   LIG d   1      -3.609  76.514 116.197  0.00  0.00    -0.241 OA
ATOM     24  O   LIG d   1      -3.876  75.889 114.147  0.00  0.00    -0.241 OA
ENDBRANCH   3  22
TORSDOF 7
ENDMDL
MODEL 3
REMARK VINA RESULT:      -5.5      2.160      4.027
REMARK  7 active torsions:
REMARK  status: ('A' for Active; 'I' for Inactive)
REMARK    1  A    between atoms: C_2  and  C_3 
REMARK    2  A    between atoms: C_3  and  O_6 
REMARK    3  A    between atoms: C_3  and  C_4 
REMARK    4  A    between atoms: C_7  and  O_6 
REMARK    5  A    between atoms: C_9  and  C_10 
REMARK    6  A    between atoms: N_15  and  C_14 
REMARK    7  A    between atoms: N_20  and  C_19 
REMARK       I    between atoms: C_22  and  N_20 
ROOT
ATOM      1  C   LIG d   1      -7.433  76.422 117.517  0.00  0.00     0.161 C 
ATOM      2  C   LIG d   1      -7.204  77.798 117.681  0.00  0.00     0.016 C 
ATOM      3  C   LIG d   1      -6.003  78.438 117.299  0.00  0.00     0.038 C 
ATOM      4  C   LIG d   1      -5.000  77.767 116.584  0.00  0.00     0.028 C 
ATOM      5  C   LIG d   1      -4.973  76.264 116.843  0.00  0.00    -0.047 C 
ATOM      6  C   LIG d   1      -6.395  75.694 116.637  0.00  0.00     0.091 C 
ENDROOT
BRANCH   1   7
ATOM      7  O   LIG d   1      -8.763  76.206 117.005  0.00  0.00    -0.368 OA
BRANCH   7   8
ATOM      8  C   LIG d   1      -9.624  75.357 117.804  0.00  0.00     0.119 C 
BRANCH   8   9
ATOM      9  C   LIG d   1     -10.134  74.225 116.891  0.00  0.00     0.028 C 
ATOM     10  C   LIG d   1      -9.855  72.829 117.475  0.00  0.00     0.006 C 
ENDBRANCH   8   9
BRANCH   8  11
ATOM     11  C   LIG d   1     -10.879  76.107 118.260  0.00  0.00     0.028 C 
ATOM     12  C   LIG d   1     -10.616  77.037 119.455  0.00  0.00     0.006 C 
ENDBRANCH   8  11
ENDBRANCH   7   8
ENDBRANCH   1   7
BRANCH   6  13
ATOM     13  N   LIG d   1      -6.476  74.244 116.953  0.00  0.00    -0.311 N 
ATOM     14  C   LIG d   1      -6.220  73.285 116.065  0.00  0.00     0.210 C 
ATOM     15  C   LIG d   1      -6.382  71.856 116.592  0.00  0.00     0.109 C 
ATOM     16  O   LIG d   1      -5.843  73.482 114.900  0.00  0.00    -0.276 OA
ATOM     17  H   LIG d   1      -6.744  73.994 117.884  0.00  0.00     0.149 HD
ENDBRANCH   6  13
BRANCH   5  18
ATOM     18  N   LIG d   1      -3.975  75.672 115.933  0.00  0.00     0.381 N 
ATOM     19  H   LIG d   1      -3.992  74.675 116.015  0.00  0.00    -0.090 HD
ATOM     20  H   LIG d   1      -3.061  75.995 116.198  0.00  0.00    -0.090 HD
ATOM     21  H   LIG d   1      -4.170  75.939 114.993  0.00  0.00    -0.090 HD
ENDBRANCH   5  18
BRANCH   3  22
ATOM     22  C   LIG d   1      -5.778  79.755 117.669  0.00  0.00     0.382 C 
ATOM     23  O   LIG d   1      -6.668  80.620 117.481  0.00  0.00    -0.241 OA
ATOM     24  O   LIG d   1      -4.681  80.099 118.147  0.00  0.00    -0.241 OA
ENDBRANCH   3  22
TORSDOF 7
ENDMDL
MODEL 4
REMARK VINA RESULT:      -5.4      2.310      4.696
REMARK  7 active torsions:
REMARK  status: ('A' for Active; 'I' for Inactive)
REMARK    1  A    between atoms: C_2  and  C_3 
REMARK    2  A    between atoms: C_3  and  O_6 
REMARK    3  A    between atoms: C_3  and  C_4 
REMARK    4  A    between atoms: C_7  and  O_6 
REMARK    5  A    between atoms: C_9  and  C_10 
REMARK    6  A    between atoms: N_15  and  C_14 
REMARK    7  A    between atoms: N_20  and  C_19 
REMARK       I    between atoms: C_22  and  N_20 
ROOT
ATOM      1  C   LIG d   1      -7.176  75.008 117.926  0.00  0.00     0.161 C 
ATOM      2  C   LIG d   1      -7.540  73.721 117.494  0.00  0.00     0.016 C 
ATOM      3  C   LIG d   1      -8.881  73.296 117.360  0.00  0.00     0.038 C 
ATOM      4  C   LIG d   1      -9.959  74.182 117.506  0.00  0.00     0.028 C 
ATOM      5  C   LIG d   1      -9.657  75.355 118.433  0.00  0.00    -0.047 C 
ATOM      6  C   LIG d   1      -8.337  76.023 117.983  0.00  0.00     0.091 C 
ENDROOT
BRANCH   1   7
ATOM      7  O   LIG d   1      -6.107  75.515 117.104  0.00  0.00    -0.368 OA
BRANCH   7   8
ATOM      8  C   LIG d   1      -5.425  74.544 116.273  0.00  0.00     0.119 C 
BRANCH   8   9
ATOM      9  C   LIG d   1      -3.953  74.498 116.727  0.00  0.00     0.028 C 
ATOM     10  C   LIG d   1      -3.569  75.707 117.596  0.00  0.00     0.006 C 
ENDBRANCH   8   9
BRANCH   8  11
ATOM     11  C   LIG d   1      -5.385  74.993 114.810  0.00  0.00     0.028 C 
ATOM     12  C   LIG d   1      -6.593  75.859 114.418  0.00  0.00     0.006 C 
ENDBRANCH   8  11
ENDBRANCH   7   8
ENDBRANCH   1   7
BRANCH   6  13
ATOM     13  N   LIG d   1      -7.924  77.128 118.887  0.00  0.00    -0.311 N 
ATOM     14  C   LIG d   1      -7.391  78.269 118.454  0.00  0.00     0.210 C 
ATOM     15  C   LIG d   1      -7.018  79.267 119.555  0.00  0.00     0.109 C 
ATOM     16  O   LIG d   1      -7.222  78.562 117.261  0.00  0.00    -0.276 OA
ATOM     17  H   LIG d   1      -8.055  76.987 119.870  0.00  0.00     0.149 HD
ENDBRANCH   6  13
BRANCH   5  18
ATOM     18  N   LIG d   1     -10.813  76.270 118.385  0.00  0.00     0.381 N 
ATOM     19  H   LIG d   1     -10.785  76.892 119.169  0.00  0.00    -0.090 HD
ATOM     20  H   LIG d   1     -11.658  75.729 118.442  0.00  0.00    -0.090 HD
ATOM     21  H   LIG d   1     -10.801  76.792 117.537  0.00  0.00    -0.090 HD
ENDBRANCH   5  18
BRANCH   3  22
ATOM     22  C   LIG d   1      -9.157  71.959 117.116  0.00  0.00     0.382 C 
ATOM     23  O   LIG d   1      -8.505  71.333 116.246  0.00  0.00    -0.241 OA
ATOM     24  O   LIG d   1     -10.080  71.383 117.723  0.00  0.00    -0.241 OA
ENDBRANCH   3  22
TORSDOF 7
ENDMDL
MODEL 5
REMARK VINA RESULT:      -5.4      2.266      4.307
REMARK  7 active torsions:
REMARK  status: ('A' for Active; 'I' for Inactive)
REMARK    1  A    between atoms: C_2  and  C_3 
REMARK    2  A    between atoms: C_3  and  O_6 
REMARK    3  A    between atoms: C_3  and  C_4 
REMARK    4  A    between atoms: C_7  and  O_6 
REMARK    5  A    between atoms: C_9  and  C_10 
REMARK    6  A    between atoms: N_15  and  C_14 
REMARK    7  A    between atoms: N_20  and  C_19 
REMARK       I    between atoms: C_22  and  N_20 
ROOT
ATOM      1  C   LIG d   1      -7.623  76.256 117.386  0.00  0.00     0.161 C 
ATOM      2  C   LIG d   1      -7.286  77.601 117.614  0.00  0.00     0.016 C 
ATOM      3  C   LIG d   1      -8.096  78.492 118.354  0.00  0.00     0.038 C 
ATOM      4  C   LIG d   1      -9.233  78.056 119.050  0.00  0.00     0.028 C 
ATOM      5  C   LIG d   1      -9.884  76.822 118.435  0.00  0.00    -0.047 C 
ATOM      6  C   LIG d   1      -8.804  75.734 118.231  0.00  0.00     0.091 C 
ENDROOT
BRANCH   1   7
ATOM      7  O   LIG d   1      -6.463  75.423 117.578  0.00  0.00    -0.368 OA
BRANCH   7   8
ATOM      8  C   LIG d   1      -5.580  75.288 116.437  0.00  0.00     0.119 C 
BRANCH   8   9
ATOM      9  C   LIG d   1      -6.261  74.336 115.435  0.00  0.00     0.028 C 
ATOM     10  C   LIG d   1      -6.100  72.858 115.827  0.00  0.00     0.006 C 
ENDBRANCH   8   9
BRANCH   8  11
ATOM     11  C   LIG d   1      -4.269  74.597 116.826  0.00  0.00     0.028 C 
ATOM     12  C   LIG d   1      -3.353  75.493 117.674  0.00  0.00     0.006 C 
ENDBRANCH   8  11
ENDBRANCH   7   8
ENDBRANCH   1   7
BRANCH   6  13
ATOM     13  N   LIG d   1      -9.339  74.523 117.556  0.00  0.00    -0.311 N 
ATOM     14  C   LIG d   1      -9.015  73.282 117.912  0.00  0.00     0.210 C 
ATOM     15  C   LIG d   1      -9.664  72.178 117.071  0.00  0.00     0.109 C 
ATOM     16  O   LIG d   1      -8.276  72.989 118.864  0.00  0.00    -0.276 OA
ATOM     17  H   LIG d   1      -9.970  74.669 116.792  0.00  0.00     0.149 HD
ENDBRANCH   6  13
BRANCH   5  18
ATOM     18  N   LIG d   1     -10.971  76.395 119.336  0.00  0.00     0.381 N 
ATOM     19  H   LIG d   1     -11.178  75.428 119.183  0.00  0.00    -0.090 HD
ATOM     20  H   LIG d   1     -11.795  76.931 119.127  0.00  0.00    -0.090 HD
ATOM     21  H   LIG d   1     -10.704  76.539 120.285  0.00  0.00    -0.090 HD
ENDBRANCH   5  18
BRANCH   3  22
ATOM     22  C   LIG d   1      -7.793  79.845 118.371  0.00  0.00     0.382 C 
ATOM     23  O   LIG d   1      -6.999  80.320 117.523  0.00  0.00    -0.241 OA
ATOM     24  O   LIG d   1      -8.268  80.588 119.250  0.00  0.00    -0.241 OA
ENDBRANCH   3  22
TORSDOF 7
ENDMDL
MODEL 6
REMARK VINA RESULT:      -5.3      2.073      4.852
REMARK  7 active torsions:
REMARK  status: ('A' for Active; 'I' for Inactive)
REMARK    1  A    between atoms: C_2  and  C_3 
REMARK    2  A    between atoms: C_3  and  O_6 
REMARK    3  A    between atoms: C_3  and  C_4 
REMARK    4  A    between atoms: C_7  and  O_6 
REMARK    5  A    between atoms: C_9  and  C_10 
REMARK    6  A    between atoms: N_15  and  C_14 
REMARK    7  A    between atoms: N_20  and  C_19 
REMARK       I    between atoms: C_22  and  N_20 
ROOT
ATOM      1  C   LIG d   1      -7.159  75.472 117.324  0.00  0.00     0.161 C 
ATOM      2  C   LIG d   1      -6.339  74.853 116.366  0.00  0.00     0.016 C 
ATOM      3  C   LIG d   1      -4.958  75.123 116.233  0.00  0.00     0.038 C 
ATOM      4  C   LIG d   1      -4.266  75.924 117.154  0.00  0.00     0.028 C 
ATOM      5  C   LIG d   1      -5.149  76.966 117.833  0.00  0.00    -0.047 C 
ATOM      6  C   LIG d   1      -6.400  76.265 118.409  0.00  0.00     0.091 C 
ENDROOT
BRANCH   1   7
ATOM      7  O   LIG d   1      -8.025  74.493 117.932  0.00  0.00    -0.368 OA
BRANCH   7   8
ATOM      8  C   LIG d   1      -9.185  74.101 117.159  0.00  0.00     0.119 C 
BRANCH   8   9
ATOM      9  C   LIG d   1     -10.230  75.226 117.288  0.00  0.00     0.028 C 
ATOM     10  C   LIG d   1     -10.511  75.600 118.753  0.00  0.00     0.006 C 
ENDBRANCH   8   9
BRANCH   8  11
ATOM     11  C   LIG d   1      -9.854  72.857 117.750  0.00  0.00     0.028 C 
ATOM     12  C   LIG d   1      -9.662  71.606 116.878  0.00  0.00     0.006 C 
ENDBRANCH   8  11
ENDBRANCH   7   8
ENDBRANCH   1   7
BRANCH   6  13
ATOM     13  N   LIG d   1      -7.358  77.225 119.018  0.00  0.00    -0.311 N 
ATOM     14  C   LIG d   1      -7.605  78.432 118.513  0.00  0.00     0.210 C 
ATOM     15  C   LIG d   1      -8.612  79.271 119.307  0.00  0.00     0.109 C 
ATOM     16  O   LIG d   1      -7.111  78.876 117.466  0.00  0.00    -0.276 OA
ATOM     17  H   LIG d   1      -7.827  76.934 119.853  0.00  0.00     0.149 HD
ENDBRANCH   6  13
BRANCH   5  18
ATOM     18  N   LIG d   1      -4.335  77.635 118.865  0.00  0.00     0.381 N 
ATOM     19  H   LIG d   1      -4.060  76.973 119.562  0.00  0.00    -0.090 HD
ATOM     20  H   LIG d   1      -4.890  78.347 119.306  0.00  0.00    -0.090 HD
ATOM     21  H   LIG d   1      -3.527  78.045 118.449  0.00  0.00    -0.090 HD
ENDBRANCH   5  18
BRANCH   3  22
ATOM     22  C   LIG d   1      -4.261  74.620 115.144  0.00  0.00     0.382 C 
ATOM     23  O   LIG d   1      -3.024  74.805 115.052  0.00  0.00    -0.241 OA
ATOM     24  O   LIG d   1      -4.862  74.022 114.232  0.00  0.00    -0.241 OA
ENDBRANCH   3  22
TORSDOF 7
ENDMDL
MODEL 7
REMARK VINA RESULT:      -5.3      1.959      4.483
REMARK  7 active torsions:
REMARK  status: ('A' for Active; 'I' for Inactive)
REMARK    1  A    between atoms: C_2  and  C_3 
REMARK    2  A    between atoms: C_3  and  O_6 
REMARK    3  A    between atoms: C_3  and  C_4 
REMARK    4  A    between atoms: C_7  and  O_6 
REMARK    5  A    between atoms: C_9  and  C_10 
REMARK    6  A    between atoms: N_15  and  C_14 
REMARK    7  A    between atoms: N_20  and  C_19 
REMARK       I    between atoms: C_22  and  N_20 
ROOT
ATOM      1  C   LIG d   1      -7.750  76.145 117.355  0.00  0.00     0.161 C 
ATOM      2  C   LIG d   1      -8.637  77.040 117.976  0.00  0.00     0.016 C 
ATOM      3  C   LIG d   1      -9.869  76.643 118.545  0.00  0.00     0.038 C 
ATOM      4  C   LIG d   1     -10.230  75.293 118.667  0.00  0.00     0.028 C 
ATOM      5  C   LIG d   1      -9.599  74.400 117.605  0.00  0.00    -0.047 C 
ATOM      6  C   LIG d   1      -8.074  74.653 117.577  0.00  0.00     0.091 C 
ENDROOT
BRANCH   1   7
ATOM      7  O   LIG d   1      -6.399  76.431 117.769  0.00  0.00    -0.368 OA
BRANCH   7   8
ATOM      8  C   LIG d   1      -5.658  77.354 116.933  0.00  0.00     0.119 C 
BRANCH   8   9
ATOM      9  C   LIG d   1      -4.496  76.568 116.294  0.00  0.00     0.028 C 
ATOM     10  C   LIG d   1      -4.102  75.330 117.117  0.00  0.00     0.006 C 
ENDBRANCH   8   9
BRANCH   8  11
ATOM     11  C   LIG d   1      -4.993  78.452 117.768  0.00  0.00     0.028 C 
ATOM     12  C   LIG d   1      -5.459  79.863 117.376  0.00  0.00     0.006 C 
ENDBRANCH   8  11
ENDBRANCH   7   8
ENDBRANCH   1   7
BRANCH   6  13
ATOM     13  N   LIG d   1      -7.390  73.880 116.507  0.00  0.00    -0.311 N 
ATOM     14  C   LIG d   1      -6.980  72.622 116.660  0.00  0.00     0.210 C 
ATOM     15  C   LIG d   1      -6.280  72.018 115.438  0.00  0.00     0.109 C 
ATOM     16  O   LIG d   1      -7.159  71.939 117.679  0.00  0.00    -0.276 OA
ATOM     17  H   LIG d   1      -7.233  74.348 115.636  0.00  0.00     0.149 HD
ENDBRANCH   6  13
BRANCH   5  18
ATOM     18  N   LIG d   1      -9.947  73.004 117.932  0.00  0.00     0.381 N 
ATOM     19  H   LIG d   1     -10.760  72.985 118.515  0.00  0.00    -0.090 HD
ATOM     20  H   LIG d   1      -9.185  72.590 118.441  0.00  0.00    -0.090 HD
ATOM     21  H   LIG d   1     -10.116  72.490 117.096  0.00  0.00    -0.090 HD
ENDBRANCH   5  18
BRANCH   3  22
ATOM     22  C   LIG d   1     -10.774  77.607 118.965  0.00  0.00     0.382 C 
ATOM     23  O   LIG d   1     -11.866  77.261 119.476  0.00  0.00    -0.241 OA
ATOM     24  O   LIG d   1     -10.531  78.817 118.798  0.00  0.00    -0.241 OA
ENDBRANCH   3  22
TORSDOF 7
ENDMDL
MODEL 8
REMARK VINA RESULT:      -5.3      1.824      4.966
REMARK  7 active torsions:
REMARK  status: ('A' for Active; 'I' for Inactive)
REMARK    1  A    between atoms: C_2  and  C_3 
REMARK    2  A    between atoms: C_3  and  O_6 
REMARK    3  A    between atoms: C_3  and  C_4 
REMARK    4  A    between atoms: C_7  and  O_6 
REMARK    5  A    between atoms: C_9  and  C_10 
REMARK    6  A    between atoms: N_15  and  C_14 
REMARK    7  A    between atoms: N_20  and  C_19 
REMARK       I    between atoms: C_22  and  N_20 
ROOT
ATOM      1  C   LIG d   1      -8.424  75.057 117.585  0.00  0.00     0.161 C 
ATOM      2  C   LIG d   1      -9.183  73.877 117.653  0.00  0.00     0.016 C 
ATOM      3  C   LIG d   1      -8.654  72.594 117.382  0.00  0.00     0.038 C 
ATOM      4  C   LIG d   1      -7.283  72.388 117.169  0.00  0.00     0.028 C 
ATOM      5  C   LIG d   1      -6.569  73.607 116.594  0.00  0.00    -0.047 C 
ATOM      6  C   LIG d   1      -6.901  74.841 117.463  0.00  0.00     0.091 C 
ENDROOT
BRANCH   1   7
ATOM      7  O   LIG d   1      -8.722  75.896 118.718  0.00  0.00    -0.368 OA
BRANCH   7   8
ATOM      8  C   LIG d   1      -9.475  77.102 118.438  0.00  0.00     0.119 C 
BRANCH   8   9
ATOM      9  C   LIG d   1      -8.483  78.281 118.452  0.00  0.00     0.028 C 
ATOM     10  C   LIG d   1      -9.158  79.612 118.823  0.00  0.00     0.006 C 
ENDBRANCH   8   9
BRANCH   8  11
ATOM     11  C   LIG d   1     -10.479  77.404 119.555  0.00  0.00     0.028 C 
ATOM     12  C   LIG d   1     -11.824  76.687 119.357  0.00  0.00     0.006 C 
ENDBRANCH   8  11
ENDBRANCH   7   8
ENDBRANCH   1   7
BRANCH   6  13
ATOM     13  N   LIG d   1      -6.311  76.092 116.921  0.00  0.00    -0.311 N 
ATOM     14  C   LIG d   1      -5.119  76.560 117.289  0.00  0.00     0.210 C 
ATOM     15  C   LIG d   1      -4.708  77.876 116.623  0.00  0.00     0.109 C 
ATOM     16  O   LIG d   1      -4.350  75.992 118.079  0.00  0.00    -0.276 OA
ATOM     17  H   LIG d   1      -6.854  76.600 116.251  0.00  0.00     0.149 HD
ENDBRANCH   6  13
BRANCH   5  18
ATOM     18  N   LIG d   1      -5.126  73.300 116.552  0.00  0.00     0.381 N 
ATOM     19  H   LIG d   1      -4.773  73.208 117.484  0.00  0.00    -0.090 HD
ATOM     20  H   LIG d   1      -4.645  74.061 116.106  0.00  0.00    -0.090 HD
ATOM     21  H   LIG d   1      -4.972  72.456 116.046  0.00  0.00    -0.090 HD
ENDBRANCH   5  18
BRANCH   3  22
ATOM     22  C   LIG d   1      -9.507  71.506 117.282  0.00  0.00     0.382 C 
ATOM     23  O   LIG d   1      -9.833  71.067 116.153  0.00  0.00    -0.241 OA
ATOM     24  O   LIG d   1      -9.989  70.985 118.305  0.00  0.00    -0.241 OA
ENDBRANCH   3  22
TORSDOF 7
ENDMDL
MODEL 9
REMARK VINA RESULT:      -5.0      1.968      4.303
REMARK  7 active torsions:
REMARK  status: ('A' for Active; 'I' for Inactive)
REMARK    1  A    between atoms: C_2  and  C_3 
REMARK    2  A    between atoms: C_3  and  O_6 
REMARK    3  A    between atoms: C_3  and  C_4 
REMARK    4  A    between atoms: C_7  and  O_6 
REMARK    5  A    between atoms: C_9  and  C_10 
REMARK    6  A    between atoms: N_15  and  C_14 
REMARK    7  A    between atoms: N_20  and  C_19 
REMARK       I    between atoms: C_22  and  N_20 
ROOT
ATOM      1  C   LIG d   1      -6.681  76.271 117.449  0.00  0.00     0.161 C 
ATOM      2  C   LIG d   1      -6.917  77.615 117.783  0.00  0.00     0.016 C 
ATOM      3  C   LIG d   1      -8.152  78.087 118.286  0.00  0.00     0.038 C 
ATOM      4  C   LIG d   1      -9.193  77.213 118.635  0.00  0.00     0.028 C 
ATOM      5  C   LIG d   1      -9.180  75.910 117.843  0.00  0.00    -0.047 C 
ATOM      6  C   LIG d   1      -7.768  75.286 117.926  0.00  0.00     0.091 C 
ENDROOT
BRANCH   1   7
ATOM      7  O   LIG d   1      -5.388  75.866 117.938  0.00  0.00    -0.368 OA
BRANCH   7   8
ATOM      8  C   LIG d   1      -4.510  75.236 116.973  0.00  0.00     0.119 C 
BRANCH   8   9
ATOM      9  C   LIG d   1      -3.085  75.765 117.229  0.00  0.00     0.028 C 
ATOM     10  C   LIG d   1      -3.082  77.076 118.033  0.00  0.00     0.006 C 
ENDBRANCH   8   9
BRANCH   8  11
ATOM     11  C   LIG d   1      -4.852  75.667 115.544  0.00  0.00     0.028 C 
ATOM     12  C   LIG d   1      -5.164  74.478 114.622  0.00  0.00     0.006 C 
ENDBRANCH   8  11
ENDBRANCH   7   8
ENDBRANCH   1   7
BRANCH   6  13
ATOM     13  N   LIG d   1      -7.646  74.050 117.110  0.00  0.00    -0.311 N 
ATOM     14  C   LIG d   1      -7.767  72.823 117.613  0.00  0.00     0.210 C 
ATOM     15  C   LIG d   1      -7.585  71.688 116.601  0.00  0.00     0.109 C 
ATOM     16  O   LIG d   1      -8.040  72.568 118.796  0.00  0.00    -0.276 OA
ATOM     17  H   LIG d   1      -7.456  74.166 116.133  0.00  0.00     0.149 HD
ENDBRANCH   6  13
BRANCH   5  18
ATOM     18  N   LIG d   1     -10.231  75.039 118.402  0.00  0.00     0.381 N 
ATOM     19  H   LIG d   1     -10.659  74.510 117.668  0.00  0.00    -0.090 HD
ATOM     20  H   LIG d   1     -10.937  75.614 118.829  0.00  0.00    -0.090 HD
ATOM     21  H   LIG d   1      -9.839  74.423 119.080  0.00  0.00    -0.090 HD
ENDBRANCH   5  18
BRANCH   3  22
ATOM     22  C   LIG d   1      -8.368  79.451 118.408  0.00  0.00     0.382 C 
ATOM     23  O   LIG d   1      -7.646  80.259 117.776  0.00  0.00    -0.241 OA
ATOM     24  O   LIG d   1      -9.247  79.885 119.177  0.00  0.00    -0.241 OA
ENDBRANCH   3  22
TORSDOF 7
ENDMDL
