MODEL 1
REMARK VINA RESULT:      -6.2      0.000      0.000
REMARK  7 active torsions:
REMARK  status: ('A' for Active; 'I' for Inactive)
REMARK    1  A    between atoms: C_2  and  C_3 
REMARK    2  A    between atoms: C_3  and  O_6 
REMARK    3  A    between atoms: C_3  and  C_4 
REMARK    4  A    between atoms: C_7  and  O_6 
REMARK    5  A    between atoms: C_9  and  C_10 
REMARK    6  A    between atoms: N_15  and  C_14 
REMARK    7  A    between atoms: N_20  and  C_19 
REMARK       I    between atoms: C_22  and  N_20 
ROOT
ATOM      1  C   LIG d   1      -7.497  75.216 116.036  0.00  0.00     0.161 C 
ATOM      2  C   LIG d   1      -6.464  74.827 115.166  0.00  0.00     0.016 C 
ATOM      3  C   LIG d   1      -5.253  75.543 115.027  0.00  0.00     0.038 C 
ATOM      4  C   LIG d   1      -4.927  76.619 115.866  0.00  0.00     0.028 C 
ATOM      5  C   LIG d   1      -6.148  77.354 116.410  0.00  0.00    -0.047 C 
ATOM      6  C   LIG d   1      -7.114  76.324 117.039  0.00  0.00     0.091 C 
ENDROOT
BRANCH   1   7
ATOM      7  O   LIG d   1      -8.008  74.063 116.733  0.00  0.00    -0.368 OA
BRANCH   7   8
ATOM      8  C   LIG d   1      -8.713  73.090 115.924  0.00  0.00     0.119 C 
BRANCH   8   9
ATOM      9  C   LIG d   1     -10.135  72.950 116.503  0.00  0.00     0.028 C 
ATOM     10  C   LIG d   1     -10.754  74.308 116.872  0.00  0.00     0.006 C 
ENDBRANCH   8   9
BRANCH   8  11
ATOM     11  C   LIG d   1      -8.085  71.699 116.052  0.00  0.00     0.028 C 
ATOM     12  C   LIG d   1      -9.088  70.633 116.519  0.00  0.00     0.006 C 
ENDBRANCH   8  11
ENDBRANCH   7   8
ENDBRANCH   1   7
BRANCH   6  13
ATOM     13  N   LIG d   1      -8.373  76.949 117.521  0.00  0.00    -0.311 N 
ATOM     14  C   LIG d   1      -8.502  77.507 118.723  0.00  0.00     0.210 C 
ATOM     15  C   LIG d   1      -9.891  78.076 119.027  0.00  0.00     0.109 C 
ATOM     16  O   LIG d   1      -7.588  77.613 119.555  0.00  0.00    -0.276 OA
ATOM     17  H   LIG d   1      -9.157  76.935 116.897  0.00  0.00     0.149 HD
ENDBRANCH   6  13
BRANCH   5  18
ATOM     18  N   LIG d   1      -5.668  78.361 117.375  0.00  0.00     0.381 N 
ATOM     19  H   LIG d   1      -5.045  77.933 118.030  0.00  0.00    -0.090 HD
ATOM     20  H   LIG d   1      -6.455  78.727 117.881  0.00  0.00    -0.090 HD
ATOM     21  H   LIG d   1      -5.201  79.098 116.895  0.00  0.00    -0.090 HD
ENDBRANCH   5  18
BRANCH   3  22
ATOM     22  C   LIG d   1      -4.368  75.207 114.013  0.00  0.00     0.382 C 
ATOM     23  O   LIG d   1      -3.170  74.954 114.285  0.00  0.00    -0.241 OA
ATOM     24  O   LIG d   1      -4.743  75.198 112.826  0.00  0.00    -0.241 OA
ENDBRANCH   3  22
TORSDOF 7
ENDMDL
MODEL 2
REMARK VINA RESULT:      -6.1      1.608      4.985
REMARK  7 active torsions:
REMARK  status: ('A' for Active; 'I' for Inactive)
REMARK    1  A    between atoms: C_2  and  C_3 
REMARK    2  A    between atoms: C_3  and  O_6 
REMARK    3  A    between atoms: C_3  and  C_4 
REMARK    4  A    between atoms: C_7  and  O_6 
REMARK    5  A    between atoms: C_9  and  C_10 
REMARK    6  A    between atoms: N_15  and  C_14 
REMARK    7  A    between atoms: N_20  and  C_19 
REMARK       I    between atoms: C_22  and  N_20 
ROOT
ATOM      1  C   LIG d   1      -7.693  75.989 117.245  0.00  0.00     0.161 C 
ATOM      2  C   LIG d   1      -8.768  76.665 117.847  0.00  0.00     0.016 C 
ATOM      3  C   LIG d   1      -8.759  78.052 118.121  0.00  0.00     0.038 C 
ATOM      4  C   LIG d   1      -7.728  78.890 117.670  0.00  0.00     0.028 C 
ATOM      5  C   LIG d   1      -6.392  78.173 117.506  0.00  0.00    -0.047 C 
ATOM      6  C   LIG d   1      -6.606  76.906 116.647  0.00  0.00     0.091 C 
ENDROOT
BRANCH   1   7
ATOM      7  O   LIG d   1      -8.188  75.079 116.243  0.00  0.00    -0.368 OA
BRANCH   7   8
ATOM      8  C   LIG d   1      -8.193  73.676 116.604  0.00  0.00     0.119 C 
BRANCH   8   9
ATOM      9  C   LIG d   1      -7.123  72.973 115.745  0.00  0.00     0.028 C 
ATOM     10  C   LIG d   1      -6.882  71.519 116.183  0.00  0.00     0.006 C 
ENDBRANCH   8   9
BRANCH   8  11
ATOM     11  C   LIG d   1      -9.519  73.008 116.226  0.00  0.00     0.028 C 
ATOM     12  C   LIG d   1     -10.744  73.815 116.683  0.00  0.00     0.006 C 
ENDBRANCH   8  11
ENDBRANCH   7   8
ENDBRANCH   1   7
BRANCH   6  13
ATOM     13  N   LIG d   1      -5.365  76.100 116.507  0.00  0.00    -0.311 N 
ATOM     14  C   LIG d   1      -4.804  75.816 115.333  0.00  0.00     0.210 C 
ATOM     15  C   LIG d   1      -3.540  74.954 115.412  0.00  0.00     0.109 C 
ATOM     16  O   LIG d   1      -5.215  76.222 114.236  0.00  0.00    -0.276 OA
ATOM     17  H   LIG d   1      -4.947  75.757 117.349  0.00  0.00     0.149 HD
ENDBRANCH   6  13
BRANCH   5  18
ATOM     18  N   LIG d   1      -5.445  79.128 116.902  0.00  0.00     0.381 N 
ATOM     19  H   LIG d   1      -5.530  79.106 115.905  0.00  0.00    -0.090 HD
ATOM     20  H   LIG d   1      -4.509  78.856 117.145  0.00  0.00    -0.090 HD
ATOM     21  H   LIG d   1      -5.628  80.049 117.237  0.00  0.00    -0.090 HD
ENDBRANCH   5  18
BRANCH   3  22
ATOM     22  C   LIG d   1      -9.772  78.608 118.887  0.00  0.00     0.382 C 
ATOM     23  O   LIG d   1     -10.649  77.869 119.397  0.00  0.00    -0.241 OA
ATOM     24  O   LIG d   1      -9.845  79.842 119.039  0.00  0.00    -0.241 OA
ENDBRANCH   3  22
TORSDOF 7
ENDMDL
MODEL 3
REMARK VINA RESULT:      -6.0      1.304      2.062
REMARK  7 active torsions:
REMARK  status: ('A' for Active; 'I' for Inactive)
REMARK    1  A    between atoms: C_2  and  C_3 
REMARK    2  A    between atoms: C_3  and  O_6 
REMARK    3  A    between atoms: C_3  and  C_4 
REMARK    4  A    between atoms: C_7  and  O_6 
REMARK    5  A    between atoms: C_9  and  C_10 
REMARK    6  A    between atoms: N_15  and  C_14 
REMARK    7  A    between atoms: N_20  and  C_19 
REMARK       I    between atoms: C_22  and  N_20 
ROOT
ATOM      1  C   LIG d   1      -6.644  75.903 115.552  0.00  0.00     0.161 C 
ATOM      2  C   LIG d   1      -5.480  75.295 115.055  0.00  0.00     0.016 C 
ATOM      3  C   LIG d   1      -4.264  75.239 115.773  0.00  0.00     0.038 C 
ATOM      4  C   LIG d   1      -4.172  75.657 117.109  0.00  0.00     0.028 C 
ATOM      5  C   LIG d   1      -5.185  76.736 117.477  0.00  0.00    -0.047 C 
ATOM      6  C   LIG d   1      -6.594  76.267 117.051  0.00  0.00     0.091 C 
ENDROOT
BRANCH   1   7
ATOM      7  O   LIG d   1      -7.787  75.069 115.277  0.00  0.00    -0.368 OA
BRANCH   7   8
ATOM      8  C   LIG d   1      -8.217  74.200 116.353  0.00  0.00     0.119 C 
BRANCH   8   9
ATOM      9  C   LIG d   1      -8.032  72.747 115.877  0.00  0.00     0.028 C 
ATOM     10  C   LIG d   1      -6.806  72.071 116.515  0.00  0.00     0.006 C 
ENDBRANCH   8   9
BRANCH   8  11
ATOM     11  C   LIG d   1      -9.716  74.350 116.626  0.00  0.00     0.028 C 
ATOM     12  C   LIG d   1     -10.476  73.018 116.527  0.00  0.00     0.006 C 
ENDBRANCH   8  11
ENDBRANCH   7   8
ENDBRANCH   1   7
BRANCH   6  13
ATOM     13  N   LIG d   1      -7.634  77.299 117.298  0.00  0.00    -0.311 N 
ATOM     14  C   LIG d   1      -8.359  77.358 118.414  0.00  0.00     0.210 C 
ATOM     15  C   LIG d   1      -9.390  78.490 118.457  0.00  0.00     0.109 C 
ATOM     16  O   LIG d   1      -8.222  76.600 119.386  0.00  0.00    -0.276 OA
ATOM     17  H   LIG d   1      -7.789  77.974 116.574  0.00  0.00     0.149 HD
ENDBRANCH   6  13
BRANCH   5  18
ATOM     18  N   LIG d   1      -5.070  76.979 118.927  0.00  0.00     0.381 N 
ATOM     19  H   LIG d   1      -5.974  76.926 119.352  0.00  0.00    -0.090 HD
ATOM     20  H   LIG d   1      -4.706  77.905 119.074  0.00  0.00    -0.090 HD
ATOM     21  H   LIG d   1      -4.461  76.307 119.339  0.00  0.00    -0.090 HD
ENDBRANCH   5  18
BRANCH   3  22
ATOM     22  C   LIG d   1      -3.112  74.795 115.141  0.00  0.00     0.382 C 
ATOM     23  O   LIG d   1      -2.957  74.990 113.911  0.00  0.00    -0.241 OA
ATOM     24  O   LIG d   1      -2.246  74.165 115.776  0.00  0.00    -0.241 OA
ENDBRANCH   3  22
TORSDOF 7
ENDMDL
MODEL 4
REMARK VINA RESULT:      -5.8      2.006      5.110
REMARK  7 active torsions:
REMARK  status: ('A' for Active; 'I' for Inactive)
REMARK    1  A    between atoms: C_2  and  C_3 
REMARK    2  A    between atoms: C_3  and  O_6 
REMARK    3  A    between atoms: C_3  and  C_4 
REMARK    4  A    between atoms: C_7  and  O_6 
REMARK    5  A    between atoms: C_9  and  C_10 
REMARK    6  A    between atoms: N_15  and  C_14 
REMARK    7  A    between atoms: N_20  and  C_19 
REMARK       I    between atoms: C_22  and  N_20 
ROOT
ATOM      1  C   LIG d   1      -6.026  74.654 116.165  0.00  0.00     0.161 C 
ATOM      2  C   LIG d   1      -6.756  73.500 115.836  0.00  0.00     0.016 C 
ATOM      3  C   LIG d   1      -8.097  73.288 116.231  0.00  0.00     0.038 C 
ATOM      4  C   LIG d   1      -8.852  74.290 116.859  0.00  0.00     0.028 C 
ATOM      5  C   LIG d   1      -8.005  75.276 117.657  0.00  0.00    -0.047 C 
ATOM      6  C   LIG d   1      -6.867  75.805 116.754  0.00  0.00     0.091 C 
ENDROOT
BRANCH   1   7
ATOM      7  O   LIG d   1      -5.288  75.110 115.014  0.00  0.00    -0.368 OA
BRANCH   7   8
ATOM      8  C   LIG d   1      -3.891  75.424 115.236  0.00  0.00     0.119 C 
BRANCH   8   9
ATOM      9  C   LIG d   1      -3.136  75.128 113.925  0.00  0.00     0.028 C 
ATOM     10  C   LIG d   1      -1.763  75.819 113.870  0.00  0.00     0.006 C 
ENDBRANCH   8   9
BRANCH   8  11
ATOM     11  C   LIG d   1      -3.269  74.492 116.281  0.00  0.00     0.028 C 
ATOM     12  C   LIG d   1      -2.587  75.253 117.428  0.00  0.00     0.006 C 
ENDBRANCH   8  11
ENDBRANCH   7   8
ENDBRANCH   1   7
BRANCH   6  13
ATOM     13  N   LIG d   1      -5.941  76.712 117.482  0.00  0.00    -0.311 N 
ATOM     14  C   LIG d   1      -6.092  78.035 117.522  0.00  0.00     0.210 C 
ATOM     15  C   LIG d   1      -5.014  78.785 118.311  0.00  0.00     0.109 C 
ATOM     16  O   LIG d   1      -7.033  78.656 117.005  0.00  0.00    -0.276 OA
ATOM     17  H   LIG d   1      -5.167  76.289 117.955  0.00  0.00     0.149 HD
ENDBRANCH   6  13
BRANCH   5  18
ATOM     18  N   LIG d   1      -8.901  76.342 118.142  0.00  0.00     0.381 N 
ATOM     19  H   LIG d   1      -8.839  77.138 117.539  0.00  0.00    -0.090 HD
ATOM     20  H   LIG d   1      -8.608  76.620 119.062  0.00  0.00    -0.090 HD
ATOM     21  H   LIG d   1      -9.840  76.011 118.171  0.00  0.00    -0.090 HD
ENDBRANCH   5  18
BRANCH   3  22
ATOM     22  C   LIG d   1      -8.684  72.047 116.034  0.00  0.00     0.382 C 
ATOM     23  O   LIG d   1      -7.971  71.054 115.751  0.00  0.00    -0.241 OA
ATOM     24  O   LIG d   1      -9.921  71.917 116.093  0.00  0.00    -0.241 OA
ENDBRANCH   3  22
TORSDOF 7
ENDMDL
MODEL 5
REMARK VINA RESULT:      -5.5      2.509      5.489
REMARK  7 active torsions:
REMARK  status: ('A' for Active; 'I' for Inactive)
REMARK    1  A    between atoms: C_2  and  C_3 
REMARK    2  A    between atoms: C_3  and  O_6 
REMARK    3  A    between atoms: C_3  and  C_4 
REMARK    4  A    between atoms: C_7  and  O_6 
REMARK    5  A    between atoms: C_9  and  C_10 
REMARK    6  A    between atoms: N_15  and  C_14 
REMARK    7  A    between atoms: N_20  and  C_19 
REMARK       I    between atoms: C_22  and  N_20 
ROOT
ATOM      1  C   LIG d   1      -6.548  77.637 117.289  0.00  0.00     0.161 C 
ATOM      2  C   LIG d   1      -7.859  77.834 117.756  0.00  0.00     0.016 C 
ATOM      3  C   LIG d   1      -8.396  79.109 118.049  0.00  0.00     0.038 C 
ATOM      4  C   LIG d   1      -7.705  80.292 117.749  0.00  0.00     0.028 C 
ATOM      5  C   LIG d   1      -6.189  80.124 117.749  0.00  0.00    -0.047 C 
ATOM      6  C   LIG d   1      -5.817  78.923 116.850  0.00  0.00     0.091 C 
ENDROOT
BRANCH   1   7
ATOM      7  O   LIG d   1      -6.552  76.672 116.218  0.00  0.00    -0.368 OA
BRANCH   7   8
ATOM      8  C   LIG d   1      -6.997  75.338 116.563  0.00  0.00     0.119 C 
BRANCH   8   9
ATOM      9  C   LIG d   1      -5.868  74.360 116.185  0.00  0.00     0.028 C 
ATOM     10  C   LIG d   1      -6.316  72.890 116.253  0.00  0.00     0.006 C 
ENDBRANCH   8   9
BRANCH   8  11
ATOM     11  C   LIG d   1      -8.201  74.915 115.715  0.00  0.00     0.028 C 
ATOM     12  C   LIG d   1      -9.472  74.700 116.551  0.00  0.00     0.006 C 
ENDBRANCH   8  11
ENDBRANCH   7   8
ENDBRANCH   1   7
BRANCH   6  13
ATOM     13  N   LIG d   1      -4.359  78.637 116.861  0.00  0.00    -0.311 N 
ATOM     14  C   LIG d   1      -3.512  79.109 115.948  0.00  0.00     0.210 C 
ATOM     15  C   LIG d   1      -2.054  78.677 116.133  0.00  0.00     0.109 C 
ATOM     16  O   LIG d   1      -3.825  79.870 115.020  0.00  0.00    -0.276 OA
ATOM     17  H   LIG d   1      -4.014  78.052 117.597  0.00  0.00     0.149 HD
ENDBRANCH   6  13
BRANCH   5  18
ATOM     18  N   LIG d   1      -5.600  81.396 117.287  0.00  0.00     0.381 N 
ATOM     19  H   LIG d   1      -4.626  81.419 117.513  0.00  0.00    -0.090 HD
ATOM     20  H   LIG d   1      -6.053  82.156 117.764  0.00  0.00    -0.090 HD
ATOM     21  H   LIG d   1      -5.723  81.491 116.303  0.00  0.00    -0.090 HD
ENDBRANCH   5  18
BRANCH   3  22
ATOM     22  C   LIG d   1      -9.624  79.207 118.685  0.00  0.00     0.382 C 
ATOM     23  O   LIG d   1     -10.020  80.317 119.116  0.00  0.00    -0.241 OA
ATOM     24  O   LIG d   1     -10.320  78.192 118.875  0.00  0.00    -0.241 OA
ENDBRANCH   3  22
TORSDOF 7
ENDMDL
MODEL 6
REMARK VINA RESULT:      -5.4      1.910      4.964
REMARK  7 active torsions:
REMARK  status: ('A' for Active; 'I' for Inactive)
REMARK    1  A    between atoms: C_2  and  C_3 
REMARK    2  A    between atoms: C_3  and  O_6 
REMARK    3  A    between atoms: C_3  and  C_4 
REMARK    4  A    between atoms: C_7  and  O_6 
REMARK    5  A    between atoms: C_9  and  C_10 
REMARK    6  A    between atoms: N_15  and  C_14 
REMARK    7  A    between atoms: N_20  and  C_19 
REMARK       I    between atoms: C_22  and  N_20 
ROOT
ATOM      1  C   LIG d   1      -6.908  75.910 118.330  0.00  0.00     0.161 C 
ATOM      2  C   LIG d   1      -8.182  76.495 118.413  0.00  0.00     0.016 C 
ATOM      3  C   LIG d   1      -8.429  77.862 118.150  0.00  0.00     0.038 C 
ATOM      4  C   LIG d   1      -7.436  78.709 117.636  0.00  0.00     0.028 C 
ATOM      5  C   LIG d   1      -6.022  78.286 118.018  0.00  0.00    -0.047 C 
ATOM      6  C   LIG d   1      -5.832  76.793 117.664  0.00  0.00     0.091 C 
ENDROOT
BRANCH   1   7
ATOM      7  O   LIG d   1      -6.996  74.637 117.659  0.00  0.00    -0.368 OA
BRANCH   7   8
ATOM      8  C   LIG d   1      -7.728  74.626 116.409  0.00  0.00     0.119 C 
BRANCH   8   9
ATOM      9  C   LIG d   1      -8.744  73.469 116.478  0.00  0.00     0.028 C 
ATOM     10  C   LIG d   1      -8.197  72.170 115.861  0.00  0.00     0.006 C 
ENDBRANCH   8   9
BRANCH   8  11
ATOM     11  C   LIG d   1      -6.811  74.290 115.230  0.00  0.00     0.028 C 
ATOM     12  C   LIG d   1      -6.646  75.463 114.250  0.00  0.00     0.006 C 
ENDBRANCH   8  11
ENDBRANCH   7   8
ENDBRANCH   1   7
BRANCH   6  13
ATOM     13  N   LIG d   1      -4.503  76.276 118.082  0.00  0.00    -0.311 N 
ATOM     14  C   LIG d   1      -3.557  75.905 117.222  0.00  0.00     0.210 C 
ATOM     15  C   LIG d   1      -2.268  75.382 117.863  0.00  0.00     0.109 C 
ATOM     16  O   LIG d   1      -3.651  75.989 115.988  0.00  0.00    -0.276 OA
ATOM     17  H   LIG d   1      -4.330  76.204 119.066  0.00  0.00     0.149 HD
ENDBRANCH   6  13
BRANCH   5  18
ATOM     18  N   LIG d   1      -5.084  79.173 117.305  0.00  0.00     0.381 N 
ATOM     19  H   LIG d   1      -4.319  79.410 117.905  0.00  0.00    -0.090 HD
ATOM     20  H   LIG d   1      -5.563  80.020 117.055  0.00  0.00    -0.090 HD
ATOM     21  H   LIG d   1      -4.744  78.721 116.484  0.00  0.00    -0.090 HD
ENDBRANCH   5  18
BRANCH   3  22
ATOM     22  C   LIG d   1      -9.673  78.403 118.439  0.00  0.00     0.382 C 
ATOM     23  O   LIG d   1      -9.936  79.583 118.102  0.00  0.00    -0.241 OA
ATOM     24  O   LIG d   1     -10.518  77.742 119.071  0.00  0.00    -0.241 OA
ENDBRANCH   3  22
TORSDOF 7
ENDMDL
MODEL 7
REMARK VINA RESULT:      -5.3      2.249      5.477
REMARK  7 active torsions:
REMARK  status: ('A' for Active; 'I' for Inactive)
REMARK    1  A    between atoms: C_2  and  C_3 
REMARK    2  A    between atoms: C_3  and  O_6 
REMARK    3  A    between atoms: C_3  and  C_4 
REMARK    4  A    between atoms: C_7  and  O_6 
REMARK    5  A    between atoms: C_9  and  C_10 
REMARK    6  A    between atoms: N_15  and  C_14 
REMARK    7  A    between atoms: N_20  and  C_19 
REMARK       I    between atoms: C_22  and  N_20 
ROOT
ATOM      1  C   LIG d   1      -6.301  75.929 116.509  0.00  0.00     0.161 C 
ATOM      2  C   LIG d   1      -6.234  77.285 116.872  0.00  0.00     0.016 C 
ATOM      3  C   LIG d   1      -7.302  77.980 117.484  0.00  0.00     0.038 C 
ATOM      4  C   LIG d   1      -8.464  77.323 117.914  0.00  0.00     0.028 C 
ATOM      5  C   LIG d   1      -8.779  76.063 117.115  0.00  0.00    -0.047 C 
ATOM      6  C   LIG d   1      -7.520  75.169 117.071  0.00  0.00     0.091 C 
ENDROOT
BRANCH   1   7
ATOM      7  O   LIG d   1      -5.078  75.262 116.882  0.00  0.00    -0.368 OA
BRANCH   7   8
ATOM      8  C   LIG d   1      -4.398  74.542 115.825  0.00  0.00     0.119 C 
BRANCH   8   9
ATOM      9  C   LIG d   1      -2.900  74.894 115.915  0.00  0.00     0.028 C 
ATOM     10  C   LIG d   1      -2.436  75.120 117.364  0.00  0.00     0.006 C 
ENDBRANCH   8   9
BRANCH   8  11
ATOM     11  C   LIG d   1      -4.846  75.025 114.443  0.00  0.00     0.028 C 
ATOM     12  C   LIG d   1      -3.750  75.805 113.700  0.00  0.00     0.006 C 
ENDBRANCH   8  11
ENDBRANCH   7   8
ENDBRANCH   1   7
BRANCH   6  13
ATOM     13  N   LIG d   1      -7.716  73.954 116.238  0.00  0.00    -0.311 N 
ATOM     14  C   LIG d   1      -7.576  72.714 116.704  0.00  0.00     0.210 C 
ATOM     15  C   LIG d   1      -7.804  71.605 115.672  0.00  0.00     0.109 C 
ATOM     16  O   LIG d   1      -7.317  72.427 117.882  0.00  0.00    -0.276 OA
ATOM     17  H   LIG d   1      -7.959  74.095 115.277  0.00  0.00     0.149 HD
ENDBRANCH   6  13
BRANCH   5  18
ATOM     18  N   LIG d   1      -9.934  75.406 117.756  0.00  0.00     0.381 N 
ATOM     19  H   LIG d   1      -9.633  74.914 118.574  0.00  0.00    -0.090 HD
ATOM     20  H   LIG d   1     -10.326  74.740 117.114  0.00  0.00    -0.090 HD
ATOM     21  H   LIG d   1     -10.620  76.085 118.002  0.00  0.00    -0.090 HD
ENDBRANCH   5  18
BRANCH   3  22
ATOM     22  C   LIG d   1      -7.229  79.357 117.634  0.00  0.00     0.382 C 
ATOM     23  O   LIG d   1      -7.940  79.932 118.493  0.00  0.00    -0.241 OA
ATOM     24  O   LIG d   1      -6.494  80.035 116.892  0.00  0.00    -0.241 OA
ENDBRANCH   3  22
TORSDOF 7
ENDMDL
MODEL 8
REMARK VINA RESULT:      -5.2      1.760      2.604
REMARK  7 active torsions:
REMARK  status: ('A' for Active; 'I' for Inactive)
REMARK    1  A    between atoms: C_2  and  C_3 
REMARK    2  A    between atoms: C_3  and  O_6 
REMARK    3  A    between atoms: C_3  and  C_4 
REMARK    4  A    between atoms: C_7  and  O_6 
REMARK    5  A    between atoms: C_9  and  C_10 
REMARK    6  A    between atoms: N_15  and  C_14 
REMARK    7  A    between atoms: N_20  and  C_19 
REMARK       I    between atoms: C_22  and  N_20 
ROOT
ATOM      1  C   LIG d   1      -5.422  75.566 116.057  0.00  0.00     0.161 C 
ATOM      2  C   LIG d   1      -4.303  75.008 115.417  0.00  0.00     0.016 C 
ATOM      3  C   LIG d   1      -3.122  75.734 115.141  0.00  0.00     0.038 C 
ATOM      4  C   LIG d   1      -2.921  77.035 115.624  0.00  0.00     0.028 C 
ATOM      5  C   LIG d   1      -4.218  77.809 115.836  0.00  0.00    -0.047 C 
ATOM      6  C   LIG d   1      -5.180  76.952 116.690  0.00  0.00     0.091 C 
ENDROOT
BRANCH   1   7
ATOM      7  O   LIG d   1      -5.931  74.646 117.043  0.00  0.00    -0.368 OA
BRANCH   7   8
ATOM      8  C   LIG d   1      -7.143  73.937 116.687  0.00  0.00     0.119 C 
BRANCH   8   9
ATOM      9  C   LIG d   1      -6.754  72.824 115.695  0.00  0.00     0.028 C 
ATOM     10  C   LIG d   1      -7.590  71.547 115.888  0.00  0.00     0.006 C 
ENDBRANCH   8   9
BRANCH   8  11
ATOM     11  C   LIG d   1      -8.114  74.842 115.922  0.00  0.00     0.028 C 
ATOM     12  C   LIG d   1      -9.373  75.186 116.734  0.00  0.00     0.006 C 
ENDBRANCH   8  11
ENDBRANCH   7   8
ENDBRANCH   1   7
BRANCH   6  13
ATOM     13  N   LIG d   1      -6.504  77.600 116.875  0.00  0.00    -0.311 N 
ATOM     14  C   LIG d   1      -6.817  78.340 117.937  0.00  0.00     0.210 C 
ATOM     15  C   LIG d   1      -8.243  78.899 117.938  0.00  0.00     0.109 C 
ATOM     16  O   LIG d   1      -6.039  78.613 118.863  0.00  0.00    -0.276 OA
ATOM     17  H   LIG d   1      -7.186  77.456 116.156  0.00  0.00     0.149 HD
ENDBRANCH   6  13
BRANCH   5  18
ATOM     18  N   LIG d   1      -3.871  79.095 116.471  0.00  0.00     0.381 N 
ATOM     19  H   LIG d   1      -3.585  78.939 117.417  0.00  0.00    -0.090 HD
ATOM     20  H   LIG d   1      -4.685  79.683 116.480  0.00  0.00    -0.090 HD
ATOM     21  H   LIG d   1      -3.137  79.539 115.963  0.00  0.00    -0.090 HD
ENDBRANCH   5  18
BRANCH   3  22
ATOM     22  C   LIG d   1      -2.141  75.171 114.338  0.00  0.00     0.382 C 
ATOM     23  O   LIG d   1      -1.533  74.142 114.719  0.00  0.00    -0.241 OA
ATOM     24  O   LIG d   1      -1.825  75.705 113.258  0.00  0.00    -0.241 OA
ENDBRANCH   3  22
TORSDOF 7
ENDMDL
MODEL 9
REMARK VINA RESULT:      -5.2      2.453      5.361
REMARK  7 active torsions:
REMARK  status: ('A' for Active; 'I' for Inactive)
REMARK    1  A    between atoms: C_2  and  C_3 
REMARK    2  A    between atoms: C_3  and  O_6 
REMARK    3  A    between atoms: C_3  and  C_4 
REMARK    4  A    between atoms: C_7  and  O_6 
REMARK    5  A    between atoms: C_9  and  C_10 
REMARK    6  A    between atoms: N_15  and  C_14 
REMARK    7  A    between atoms: N_20  and  C_19 
REMARK       I    between atoms: C_22  and  N_20 
ROOT
ATOM      1  C   LIG d   1      -6.422  77.067 116.733  0.00  0.00     0.161 C 
ATOM      2  C   LIG d   1      -7.720  77.103 117.269  0.00  0.00     0.016 C 
ATOM      3  C   LIG d   1      -8.252  78.226 117.945  0.00  0.00     0.038 C 
ATOM      4  C   LIG d   1      -7.570  79.451 117.998  0.00  0.00     0.028 C 
ATOM      5  C   LIG d   1      -6.055  79.305 117.910  0.00  0.00    -0.047 C 
ATOM      6  C   LIG d   1      -5.704  78.432 116.683  0.00  0.00     0.091 C 
ENDROOT
BRANCH   1   7
ATOM      7  O   LIG d   1      -6.452  76.469 115.422  0.00  0.00    -0.368 OA
BRANCH   7   8
ATOM      8  C   LIG d   1      -5.968  75.106 115.332  0.00  0.00     0.119 C 
BRANCH   8   9
ATOM      9  C   LIG d   1      -7.190  74.173 115.432  0.00  0.00     0.028 C 
ATOM     10  C   LIG d   1      -6.800  72.734 115.811  0.00  0.00     0.006 C 
ENDBRANCH   8   9
BRANCH   8  11
ATOM     11  C   LIG d   1      -5.085  74.748 116.531  0.00  0.00     0.028 C 
ATOM     12  C   LIG d   1      -3.599  74.617 116.158  0.00  0.00     0.006 C 
ENDBRANCH   8  11
ENDBRANCH   7   8
ENDBRANCH   1   7
BRANCH   6  13
ATOM     13  N   LIG d   1      -4.246  78.170 116.572  0.00  0.00    -0.311 N 
ATOM     14  C   LIG d   1      -3.436  78.860 115.770  0.00  0.00     0.210 C 
ATOM     15  C   LIG d   1      -1.971  78.414 115.792  0.00  0.00     0.109 C 
ATOM     16  O   LIG d   1      -3.786  79.820 115.067  0.00  0.00    -0.276 OA
ATOM     17  H   LIG d   1      -3.872  77.429 117.131  0.00  0.00     0.149 HD
ENDBRANCH   6  13
BRANCH   5  18
ATOM     18  N   LIG d   1      -5.480  80.662 117.837  0.00  0.00     0.381 N 
ATOM     19  H   LIG d   1      -5.312  81.008 118.761  0.00  0.00    -0.090 HD
ATOM     20  H   LIG d   1      -6.140  81.271 117.387  0.00  0.00    -0.090 HD
ATOM     21  H   LIG d   1      -4.628  80.644 117.322  0.00  0.00    -0.090 HD
ENDBRANCH   5  18
BRANCH   3  22
ATOM     22  C   LIG d   1      -9.462  78.116 118.612  0.00  0.00     0.382 C 
ATOM     23  O   LIG d   1     -10.230  77.155 118.364  0.00  0.00    -0.241 OA
ATOM     24  O   LIG d   1      -9.817  78.990 119.425  0.00  0.00    -0.241 OA
ENDBRANCH   3  22
TORSDOF 7
ENDMDL
