MODEL 1
REMARK VINA RESULT:      -5.6      0.000      0.000
REMARK  7 active torsions:
REMARK  status: ('A' for Active; 'I' for Inactive)
REMARK    1  A    between atoms: C_2  and  C_3 
REMARK    2  A    between atoms: C_3  and  O_6 
REMARK    3  A    between atoms: C_3  and  C_4 
REMARK    4  A    between atoms: C_7  and  O_6 
REMARK    5  A    between atoms: C_9  and  C_10 
REMARK    6  A    between atoms: N_15  and  C_14 
REMARK    7  A    between atoms: N_20  and  C_19 
REMARK       I    between atoms: C_22  and  N_20 
ROOT
ATOM      1  C   LIG d   1      -7.029  77.375 117.529  0.00  0.00     0.161 C 
ATOM      2  C   LIG d   1      -8.231  78.020 117.864  0.00  0.00     0.016 C 
ATOM      3  C   LIG d   1      -8.323  79.406 118.128  0.00  0.00     0.038 C 
ATOM      4  C   LIG d   1      -7.238  80.272 117.928  0.00  0.00     0.028 C 
ATOM      5  C   LIG d   1      -5.882  79.591 118.079  0.00  0.00    -0.047 C 
ATOM      6  C   LIG d   1      -5.857  78.322 117.197  0.00  0.00     0.091 C 
ENDROOT
BRANCH   1   7
ATOM      7  O   LIG d   1      -7.254  76.455 116.442  0.00  0.00    -0.368 OA
BRANCH   7   8
ATOM      8  C   LIG d   1      -7.037  75.054 116.738  0.00  0.00     0.119 C 
BRANCH   8   9
ATOM      9  C   LIG d   1      -6.366  74.419 115.504  0.00  0.00     0.028 C 
ATOM     10  C   LIG d   1      -5.683  75.463 114.605  0.00  0.00     0.006 C 
ENDBRANCH   8   9
BRANCH   8  11
ATOM     11  C   LIG d   1      -8.364  74.308 116.906  0.00  0.00     0.028 C 
ATOM     12  C   LIG d   1      -8.231  72.794 116.678  0.00  0.00     0.006 C 
ENDBRANCH   8  11
ENDBRANCH   7   8
ENDBRANCH   1   7
BRANCH   6  13
ATOM     13  N   LIG d   1      -4.597  77.550 117.351  0.00  0.00    -0.311 N 
ATOM     14  C   LIG d   1      -3.550  77.685 116.539  0.00  0.00     0.210 C 
ATOM     15  C   LIG d   1      -2.358  76.778 116.863  0.00  0.00     0.109 C 
ATOM     16  O   LIG d   1      -3.483  78.492 115.600  0.00  0.00    -0.276 OA
ATOM     17  H   LIG d   1      -4.553  76.894 118.107  0.00  0.00     0.149 HD
ENDBRANCH   6  13
BRANCH   5  18
ATOM     18  N   LIG d   1      -4.846  80.573 117.709  0.00  0.00     0.381 N 
ATOM     19  H   LIG d   1      -5.273  81.372 117.285  0.00  0.00    -0.090 HD
ATOM     20  H   LIG d   1      -4.225  80.154 117.040  0.00  0.00    -0.090 HD
ATOM     21  H   LIG d   1      -4.335  80.851 118.518  0.00  0.00    -0.090 HD
ENDBRANCH   5  18
BRANCH   3  22
ATOM     22  C   LIG d   1      -9.500  79.931 118.638  0.00  0.00     0.382 C 
ATOM     23  O   LIG d   1     -10.561  79.264 118.580  0.00  0.00    -0.241 OA
ATOM     24  O   LIG d   1      -9.524  81.082 119.114  0.00  0.00    -0.241 OA
ENDBRANCH   3  22
TORSDOF 7
ENDMDL
MODEL 2
REMARK VINA RESULT:      -5.2      3.421      5.868
REMARK  7 active torsions:
REMARK  status: ('A' for Active; 'I' for Inactive)
REMARK    1  A    between atoms: C_2  and  C_3 
REMARK    2  A    between atoms: C_3  and  O_6 
REMARK    3  A    between atoms: C_3  and  C_4 
REMARK    4  A    between atoms: C_7  and  O_6 
REMARK    5  A    between atoms: C_9  and  C_10 
REMARK    6  A    between atoms: N_15  and  C_14 
REMARK    7  A    between atoms: N_20  and  C_19 
REMARK       I    between atoms: C_22  and  N_20 
ROOT
ATOM      1  C   LIG d   1      -2.890  77.407 116.764  0.00  0.00     0.161 C 
ATOM      2  C   LIG d   1      -3.046  78.355 115.739  0.00  0.00     0.016 C 
ATOM      3  C   LIG d   1      -2.172  78.454 114.632  0.00  0.00     0.038 C 
ATOM      4  C   LIG d   1      -1.165  77.507 114.395  0.00  0.00     0.028 C 
ATOM      5  C   LIG d   1      -0.655  76.834 115.665  0.00  0.00    -0.047 C 
ATOM      6  C   LIG d   1      -1.863  76.295 116.465  0.00  0.00     0.091 C 
ENDROOT
BRANCH   1   7
ATOM      7  O   LIG d   1      -4.169  76.831 117.095  0.00  0.00    -0.368 OA
BRANCH   7   8
ATOM      8  C   LIG d   1      -5.243  77.079 116.154  0.00  0.00     0.119 C 
BRANCH   8   9
ATOM      9  C   LIG d   1      -6.381  77.777 116.924  0.00  0.00     0.028 C 
ATOM     10  C   LIG d   1      -7.630  76.890 117.057  0.00  0.00     0.006 C 
ENDBRANCH   8   9
BRANCH   8  11
ATOM     11  C   LIG d   1      -5.846  75.769 115.639  0.00  0.00     0.028 C 
ATOM     12  C   LIG d   1      -4.848  74.935 114.821  0.00  0.00     0.006 C 
ENDBRANCH   8  11
ENDBRANCH   7   8
ENDBRANCH   1   7
BRANCH   6  13
ATOM     13  N   LIG d   1      -1.459  75.695 117.764  0.00  0.00    -0.311 N 
ATOM     14  C   LIG d   1      -1.250  74.391 117.935  0.00  0.00     0.210 C 
ATOM     15  C   LIG d   1      -0.860  73.980 119.359  0.00  0.00     0.109 C 
ATOM     16  O   LIG d   1      -1.318  73.539 117.036  0.00  0.00    -0.276 OA
ATOM     17  H   LIG d   1      -1.351  76.318 118.540  0.00  0.00     0.149 HD
ENDBRANCH   6  13
BRANCH   5  18
ATOM     18  N   LIG d   1       0.289  75.776 115.260  0.00  0.00     0.381 N 
ATOM     19  H   LIG d   1       0.323  75.716 114.262  0.00  0.00    -0.090 HD
ATOM     20  H   LIG d   1      -0.036  74.895 115.618  0.00  0.00    -0.090 HD
ATOM     21  H   LIG d   1       1.197  75.974 115.619  0.00  0.00    -0.090 HD
ENDBRANCH   5  18
BRANCH   3  22
ATOM     22  C   LIG d   1      -2.278  79.534 113.768  0.00  0.00     0.382 C 
ATOM     23  O   LIG d   1      -1.605  80.572 113.977  0.00  0.00    -0.241 OA
ATOM     24  O   LIG d   1      -3.070  79.500 112.808  0.00  0.00    -0.241 OA
ENDBRANCH   3  22
TORSDOF 7
ENDMDL
MODEL 3
REMARK VINA RESULT:      -5.1     13.269     16.349
REMARK  7 active torsions:
REMARK  status: ('A' for Active; 'I' for Inactive)
REMARK    1  A    between atoms: C_2  and  C_3 
REMARK    2  A    between atoms: C_3  and  O_6 
REMARK    3  A    between atoms: C_3  and  C_4 
REMARK    4  A    between atoms: C_7  and  O_6 
REMARK    5  A    between atoms: C_9  and  C_10 
REMARK    6  A    between atoms: N_15  and  C_14 
REMARK    7  A    between atoms: N_20  and  C_19 
REMARK       I    between atoms: C_22  and  N_20 
ROOT
ATOM      1  C   LIG d   1      -6.385  93.405 117.325  0.00  0.00     0.161 C 
ATOM      2  C   LIG d   1      -7.294  92.488 116.770  0.00  0.00     0.016 C 
ATOM      3  C   LIG d   1      -6.931  91.185 116.360  0.00  0.00     0.038 C 
ATOM      4  C   LIG d   1      -5.658  90.654 116.617  0.00  0.00     0.028 C 
ATOM      5  C   LIG d   1      -4.568  91.716 116.716  0.00  0.00    -0.047 C 
ATOM      6  C   LIG d   1      -5.018  92.806 117.715  0.00  0.00     0.091 C 
ENDROOT
BRANCH   1   7
ATOM      7  O   LIG d   1      -6.986  94.064 118.458  0.00  0.00    -0.368 OA
BRANCH   7   8
ATOM      8  C   LIG d   1      -7.243  95.481 118.309  0.00  0.00     0.119 C 
BRANCH   8   9
ATOM      9  C   LIG d   1      -6.411  96.218 119.377  0.00  0.00     0.028 C 
ATOM     10  C   LIG d   1      -5.739  97.487 118.825  0.00  0.00     0.006 C 
ENDBRANCH   8   9
BRANCH   8  11
ATOM     11  C   LIG d   1      -8.703  95.820 118.627  0.00  0.00     0.028 C 
ATOM     12  C   LIG d   1      -9.443  94.666 119.323  0.00  0.00     0.006 C 
ENDBRANCH   8  11
ENDBRANCH   7   8
ENDBRANCH   1   7
BRANCH   6  13
ATOM     13  N   LIG d   1      -4.046  93.926 117.809  0.00  0.00    -0.311 N 
ATOM     14  C   LIG d   1      -3.075  93.980 118.719  0.00  0.00     0.210 C 
ATOM     15  C   LIG d   1      -2.196  95.233 118.653  0.00  0.00     0.109 C 
ATOM     16  O   LIG d   1      -2.839  93.095 119.555  0.00  0.00    -0.276 OA
ATOM     17  H   LIG d   1      -4.145  94.672 117.149  0.00  0.00     0.149 HD
ENDBRANCH   6  13
BRANCH   5  18
ATOM     18  N   LIG d   1      -3.322  91.038 117.122  0.00  0.00     0.381 N 
ATOM     19  H   LIG d   1      -3.184  91.146 118.108  0.00  0.00    -0.090 HD
ATOM     20  H   LIG d   1      -2.548  91.468 116.647  0.00  0.00    -0.090 HD
ATOM     21  H   LIG d   1      -3.368  90.071 116.890  0.00  0.00    -0.090 HD
ENDBRANCH   5  18
BRANCH   3  22
ATOM     22  C   LIG d   1      -7.835  90.412 115.647  0.00  0.00     0.382 C 
ATOM     23  O   LIG d   1      -8.149  90.734 114.476  0.00  0.00    -0.241 OA
ATOM     24  O   LIG d   1      -8.374  89.422 116.177  0.00  0.00    -0.241 OA
ENDBRANCH   3  22
TORSDOF 7
ENDMDL
MODEL 4
REMARK VINA RESULT:      -5.0     12.446     14.684
REMARK  7 active torsions:
REMARK  status: ('A' for Active; 'I' for Inactive)
REMARK    1  A    between atoms: C_2  and  C_3 
REMARK    2  A    between atoms: C_3  and  O_6 
REMARK    3  A    between atoms: C_3  and  C_4 
REMARK    4  A    between atoms: C_7  and  O_6 
REMARK    5  A    between atoms: C_9  and  C_10 
REMARK    6  A    between atoms: N_15  and  C_14 
REMARK    7  A    between atoms: N_20  and  C_19 
REMARK       I    between atoms: C_22  and  N_20 
ROOT
ATOM      1  C   LIG d   1      -4.935  91.432 117.381  0.00  0.00     0.161 C 
ATOM      2  C   LIG d   1      -5.800  90.596 116.656  0.00  0.00     0.016 C 
ATOM      3  C   LIG d   1      -6.945  91.066 115.973  0.00  0.00     0.038 C 
ATOM      4  C   LIG d   1      -7.221  92.435 115.842  0.00  0.00     0.028 C 
ATOM      5  C   LIG d   1      -6.656  93.278 116.981  0.00  0.00    -0.047 C 
ATOM      6  C   LIG d   1      -5.157  92.942 117.157  0.00  0.00     0.091 C 
ENDROOT
BRANCH   1   7
ATOM      7  O   LIG d   1      -3.566  91.080 117.100  0.00  0.00    -0.368 OA
BRANCH   7   8
ATOM      8  C   LIG d   1      -2.799  90.562 118.215  0.00  0.00     0.119 C 
BRANCH   8   9
ATOM      9  C   LIG d   1      -1.367  91.115 118.088  0.00  0.00     0.028 C 
ATOM     10  C   LIG d   1      -0.306  90.001 118.080  0.00  0.00     0.006 C 
ENDBRANCH   8   9
BRANCH   8  11
ATOM     11  C   LIG d   1      -2.655  89.040 118.132  0.00  0.00     0.028 C 
ATOM     12  C   LIG d   1      -3.122  88.326 119.411  0.00  0.00     0.006 C 
ENDBRANCH   8  11
ENDBRANCH   7   8
ENDBRANCH   1   7
BRANCH   6  13
ATOM     13  N   LIG d   1      -4.547  93.662 118.306  0.00  0.00    -0.311 N 
ATOM     14  C   LIG d   1      -3.353  94.248 118.253  0.00  0.00     0.210 C 
ATOM     15  C   LIG d   1      -2.902  94.918 119.555  0.00  0.00     0.109 C 
ATOM     16  O   LIG d   1      -2.637  94.305 117.241  0.00  0.00    -0.276 OA
ATOM     17  H   LIG d   1      -5.074  93.692 119.157  0.00  0.00     0.149 HD
ENDBRANCH   6  13
BRANCH   5  18
ATOM     18  N   LIG d   1      -6.896  94.695 116.647  0.00  0.00     0.381 N 
ATOM     19  H   LIG d   1      -7.414  94.759 115.794  0.00  0.00    -0.090 HD
ATOM     20  H   LIG d   1      -6.011  95.152 116.515  0.00  0.00    -0.090 HD
ATOM     21  H   LIG d   1      -7.400  95.138 117.384  0.00  0.00    -0.090 HD
ENDBRANCH   5  18
BRANCH   3  22
ATOM     22  C   LIG d   1      -7.851  90.158 115.445  0.00  0.00     0.382 C 
ATOM     23  O   LIG d   1      -8.555  89.457 116.211  0.00  0.00    -0.241 OA
ATOM     24  O   LIG d   1      -7.942  90.000 114.213  0.00  0.00    -0.241 OA
ENDBRANCH   3  22
TORSDOF 7
ENDMDL
MODEL 5
REMARK VINA RESULT:      -4.8      1.625      2.039
REMARK  7 active torsions:
REMARK  status: ('A' for Active; 'I' for Inactive)
REMARK    1  A    between atoms: C_2  and  C_3 
REMARK    2  A    between atoms: C_3  and  O_6 
REMARK    3  A    between atoms: C_3  and  C_4 
REMARK    4  A    between atoms: C_7  and  O_6 
REMARK    5  A    between atoms: C_9  and  C_10 
REMARK    6  A    between atoms: N_15  and  C_14 
REMARK    7  A    between atoms: N_20  and  C_19 
REMARK       I    between atoms: C_22  and  N_20 
ROOT
ATOM      1  C   LIG d   1      -5.734  76.899 116.897  0.00  0.00     0.161 C 
ATOM      2  C   LIG d   1      -6.699  77.821 117.334  0.00  0.00     0.016 C 
ATOM      3  C   LIG d   1      -6.413  79.180 117.599  0.00  0.00     0.038 C 
ATOM      4  C   LIG d   1      -5.166  79.748 117.297  0.00  0.00     0.028 C 
ATOM      5  C   LIG d   1      -4.019  78.743 117.330  0.00  0.00    -0.047 C 
ATOM      6  C   LIG d   1      -4.395  77.524 116.456  0.00  0.00     0.091 C 
ENDROOT
BRANCH   1   7
ATOM      7  O   LIG d   1      -6.280  76.085 115.839  0.00  0.00    -0.368 OA
BRANCH   7   8
ATOM      8  C   LIG d   1      -6.481  74.685 116.152  0.00  0.00     0.119 C 
BRANCH   8   9
ATOM      9  C   LIG d   1      -5.904  73.863 114.983  0.00  0.00     0.028 C 
ATOM     10  C   LIG d   1      -6.278  72.374 115.072  0.00  0.00     0.006 C 
ENDBRANCH   8   9
BRANCH   8  11
ATOM     11  C   LIG d   1      -7.971  74.333 116.198  0.00  0.00     0.028 C 
ATOM     12  C   LIG d   1      -8.326  73.398 117.365  0.00  0.00     0.006 C 
ENDBRANCH   8  11
ENDBRANCH   7   8
ENDBRANCH   1   7
BRANCH   6  13
ATOM     13  N   LIG d   1      -3.363  76.455 116.500  0.00  0.00    -0.311 N 
ATOM     14  C   LIG d   1      -2.883  75.854 115.413  0.00  0.00     0.210 C 
ATOM     15  C   LIG d   1      -1.840  74.765 115.683  0.00  0.00     0.109 C 
ATOM     16  O   LIG d   1      -3.200  76.140 114.248  0.00  0.00    -0.276 OA
ATOM     17  H   LIG d   1      -3.027  76.182 117.403  0.00  0.00     0.149 HD
ENDBRANCH   6  13
BRANCH   5  18
ATOM     18  N   LIG d   1      -2.804  79.437 116.863  0.00  0.00     0.381 N 
ATOM     19  H   LIG d   1      -2.044  79.245 117.484  0.00  0.00    -0.090 HD
ATOM     20  H   LIG d   1      -2.974  80.428 116.868  0.00  0.00    -0.090 HD
ATOM     21  H   LIG d   1      -2.573  79.137 115.941  0.00  0.00    -0.090 HD
ENDBRANCH   5  18
BRANCH   3  22
ATOM     22  C   LIG d   1      -7.369  79.978 118.209  0.00  0.00     0.382 C 
ATOM     23  O   LIG d   1      -7.718  79.744 119.391  0.00  0.00    -0.241 OA
ATOM     24  O   LIG d   1      -7.918  80.901 117.578  0.00  0.00    -0.241 OA
ENDBRANCH   3  22
TORSDOF 7
ENDMDL
MODEL 6
REMARK VINA RESULT:      -4.8      2.257      5.911
REMARK  7 active torsions:
REMARK  status: ('A' for Active; 'I' for Inactive)
REMARK    1  A    between atoms: C_2  and  C_3 
REMARK    2  A    between atoms: C_3  and  O_6 
REMARK    3  A    between atoms: C_3  and  C_4 
REMARK    4  A    between atoms: C_7  and  O_6 
REMARK    5  A    between atoms: C_9  and  C_10 
REMARK    6  A    between atoms: N_15  and  C_14 
REMARK    7  A    between atoms: N_20  and  C_19 
REMARK       I    between atoms: C_22  and  N_20 
ROOT
ATOM      1  C   LIG d   1      -4.582  77.655 116.584  0.00  0.00     0.161 C 
ATOM      2  C   LIG d   1      -4.721  76.442 115.890  0.00  0.00     0.016 C 
ATOM      3  C   LIG d   1      -5.943  75.737 115.794  0.00  0.00     0.038 C 
ATOM      4  C   LIG d   1      -7.150  76.277 116.262  0.00  0.00     0.028 C 
ATOM      5  C   LIG d   1      -6.967  77.262 117.412  0.00  0.00    -0.047 C 
ATOM      6  C   LIG d   1      -5.911  78.316 117.007  0.00  0.00     0.091 C 
ENDROOT
BRANCH   1   7
ATOM      7  O   LIG d   1      -3.790  78.575 115.807  0.00  0.00    -0.368 OA
BRANCH   7   8
ATOM      8  C   LIG d   1      -2.355  78.490 115.985  0.00  0.00     0.119 C 
BRANCH   8   9
ATOM      9  C   LIG d   1      -2.069  78.604 117.495  0.00  0.00     0.028 C 
ATOM     10  C   LIG d   1      -2.021  80.064 117.976  0.00  0.00     0.006 C 
ENDBRANCH   8   9
BRANCH   8  11
ATOM     11  C   LIG d   1      -1.642  79.686 115.347  0.00  0.00     0.028 C 
ATOM     12  C   LIG d   1      -0.450  79.270 114.471  0.00  0.00     0.006 C 
ENDBRANCH   8  11
ENDBRANCH   7   8
ENDBRANCH   1   7
BRANCH   6  13
ATOM     13  N   LIG d   1      -5.610  79.269 118.107  0.00  0.00    -0.311 N 
ATOM     14  C   LIG d   1      -6.247  80.427 118.268  0.00  0.00     0.210 C 
ATOM     15  C   LIG d   1      -5.768  81.269 119.455  0.00  0.00     0.109 C 
ATOM     16  O   LIG d   1      -7.185  80.823 117.560  0.00  0.00    -0.276 OA
ATOM     17  H   LIG d   1      -4.884  79.012 118.747  0.00  0.00     0.149 HD
ENDBRANCH   6  13
BRANCH   5  18
ATOM     18  N   LIG d   1      -8.287  77.851 117.709  0.00  0.00     0.381 N 
ATOM     19  H   LIG d   1      -8.171  78.774 118.076  0.00  0.00    -0.090 HD
ATOM     20  H   LIG d   1      -8.744  77.289 118.406  0.00  0.00    -0.090 HD
ATOM     21  H   LIG d   1      -8.840  77.882 116.881  0.00  0.00    -0.090 HD
ENDBRANCH   5  18
BRANCH   3  22
ATOM     22  C   LIG d   1      -5.958  74.458 115.259  0.00  0.00     0.382 C 
ATOM     23  O   LIG d   1      -6.756  73.600 115.708  0.00  0.00    -0.241 OA
ATOM     24  O   LIG d   1      -5.152  74.138 114.364  0.00  0.00    -0.241 OA
ENDBRANCH   3  22
TORSDOF 7
ENDMDL
MODEL 7
REMARK VINA RESULT:      -4.6      2.766      5.629
REMARK  7 active torsions:
REMARK  status: ('A' for Active; 'I' for Inactive)
REMARK    1  A    between atoms: C_2  and  C_3 
REMARK    2  A    between atoms: C_3  and  O_6 
REMARK    3  A    between atoms: C_3  and  C_4 
REMARK    4  A    between atoms: C_7  and  O_6 
REMARK    5  A    between atoms: C_9  and  C_10 
REMARK    6  A    between atoms: N_15  and  C_14 
REMARK    7  A    between atoms: N_20  and  C_19 
REMARK       I    between atoms: C_22  and  N_20 
ROOT
ATOM      1  C   LIG d   1      -3.662  77.577 117.353  0.00  0.00     0.161 C 
ATOM      2  C   LIG d   1      -2.790  78.651 117.598  0.00  0.00     0.016 C 
ATOM      3  C   LIG d   1      -1.980  79.239 116.600  0.00  0.00     0.038 C 
ATOM      4  C   LIG d   1      -2.100  78.890 115.247  0.00  0.00     0.028 C 
ATOM      5  C   LIG d   1      -2.602  77.466 115.031  0.00  0.00    -0.047 C 
ATOM      6  C   LIG d   1      -3.889  77.256 115.861  0.00  0.00     0.091 C 
ENDROOT
BRANCH   1   7
ATOM      7  O   LIG d   1      -4.923  77.811 118.012  0.00  0.00    -0.368 OA
BRANCH   7   8
ATOM      8  C   LIG d   1      -5.904  78.566 117.261  0.00  0.00     0.119 C 
BRANCH   8   9
ATOM      9  C   LIG d   1      -5.792  80.039 117.703  0.00  0.00     0.028 C 
ATOM     10  C   LIG d   1      -7.153  80.641 118.090  0.00  0.00     0.006 C 
ENDBRANCH   8   9
BRANCH   8  11
ATOM     11  C   LIG d   1      -7.330  78.142 117.623  0.00  0.00     0.028 C 
ATOM     12  C   LIG d   1      -7.662  76.714 117.164  0.00  0.00     0.006 C 
ENDBRANCH   8  11
ENDBRANCH   7   8
ENDBRANCH   1   7
BRANCH   6  13
ATOM     13  N   LIG d   1      -4.399  75.862 115.773  0.00  0.00    -0.311 N 
ATOM     14  C   LIG d   1      -5.238  75.447 114.826  0.00  0.00     0.210 C 
ATOM     15  C   LIG d   1      -5.655  73.977 114.931  0.00  0.00     0.109 C 
ATOM     16  O   LIG d   1      -5.650  76.148 113.890  0.00  0.00    -0.276 OA
ATOM     17  H   LIG d   1      -4.090  75.219 116.475  0.00  0.00     0.149 HD
ENDBRANCH   6  13
BRANCH   5  18
ATOM     18  N   LIG d   1      -2.811  77.281 113.582  0.00  0.00     0.381 N 
ATOM     19  H   LIG d   1      -2.421  78.055 113.083  0.00  0.00    -0.090 HD
ATOM     20  H   LIG d   1      -3.799  77.252 113.398  0.00  0.00    -0.090 HD
ATOM     21  H   LIG d   1      -2.385  76.433 113.281  0.00  0.00    -0.090 HD
ENDBRANCH   5  18
BRANCH   3  22
ATOM     22  C   LIG d   1      -1.009  80.161 116.958  0.00  0.00     0.382 C 
ATOM     23  O   LIG d   1      -1.003  80.648 118.115  0.00  0.00    -0.241 OA
ATOM     24  O   LIG d   1      -0.165  80.546 116.126  0.00  0.00    -0.241 OA
ENDBRANCH   3  22
TORSDOF 7
ENDMDL
MODEL 8
REMARK VINA RESULT:      -4.6     13.979     17.106
REMARK  7 active torsions:
REMARK  status: ('A' for Active; 'I' for Inactive)
REMARK    1  A    between atoms: C_2  and  C_3 
REMARK    2  A    between atoms: C_3  and  O_6 
REMARK    3  A    between atoms: C_3  and  C_4 
REMARK    4  A    between atoms: C_7  and  O_6 
REMARK    5  A    between atoms: C_9  and  C_10 
REMARK    6  A    between atoms: N_15  and  C_14 
REMARK    7  A    between atoms: N_20  and  C_19 
REMARK       I    between atoms: C_22  and  N_20 
ROOT
ATOM      1  C   LIG d   1      -5.143  93.449 117.787  0.00  0.00     0.161 C 
ATOM      2  C   LIG d   1      -5.043  92.233 117.091  0.00  0.00     0.016 C 
ATOM      3  C   LIG d   1      -6.067  91.725 116.259  0.00  0.00     0.038 C 
ATOM      4  C   LIG d   1      -7.208  92.478 115.945  0.00  0.00     0.028 C 
ATOM      5  C   LIG d   1      -7.581  93.491 117.022  0.00  0.00    -0.047 C 
ATOM      6  C   LIG d   1      -6.334  94.337 117.369  0.00  0.00     0.091 C 
ENDROOT
BRANCH   1   7
ATOM      7  O   LIG d   1      -3.908  94.182 117.671  0.00  0.00    -0.368 OA
BRANCH   7   8
ATOM      8  C   LIG d   1      -2.869  93.835 118.620  0.00  0.00     0.119 C 
BRANCH   8   9
ATOM      9  C   LIG d   1      -2.674  95.044 119.555  0.00  0.00     0.028 C 
ATOM     10  C   LIG d   1      -3.136  96.363 118.913  0.00  0.00     0.006 C 
ENDBRANCH   8   9
BRANCH   8  11
ATOM     11  C   LIG d   1      -1.520  93.639 117.922  0.00  0.00     0.028 C 
ATOM     12  C   LIG d   1      -0.395  93.255 118.897  0.00  0.00     0.006 C 
ENDBRANCH   8  11
ENDBRANCH   7   8
ENDBRANCH   1   7
BRANCH   6  13
ATOM     13  N   LIG d   1      -6.590  95.296 118.474  0.00  0.00    -0.311 N 
ATOM     14  C   LIG d   1      -7.026  96.540 118.280  0.00  0.00     0.210 C 
ATOM     15  C   LIG d   1      -7.205  97.369 119.555  0.00  0.00     0.109 C 
ATOM     16  O   LIG d   1      -7.313  97.024 117.174  0.00  0.00    -0.276 OA
ATOM     17  H   LIG d   1      -6.413  94.976 119.406  0.00  0.00     0.149 HD
ENDBRANCH   6  13
BRANCH   5  18
ATOM     18  N   LIG d   1      -8.702  94.299 116.505  0.00  0.00     0.381 N 
ATOM     19  H   LIG d   1      -8.525  94.555 115.555  0.00  0.00    -0.090 HD
ATOM     20  H   LIG d   1      -8.775  95.140 117.050  0.00  0.00    -0.090 HD
ATOM     21  H   LIG d   1      -9.551  93.781 116.565  0.00  0.00    -0.090 HD
ENDBRANCH   5  18
BRANCH   3  22
ATOM     22  C   LIG d   1      -5.973  90.434 115.763  0.00  0.00     0.382 C 
ATOM     23  O   LIG d   1      -7.012  89.809 115.439  0.00  0.00    -0.241 OA
ATOM     24  O   LIG d   1      -4.866  89.869 115.678  0.00  0.00    -0.241 OA
ENDBRANCH   3  22
TORSDOF 7
ENDMDL
MODEL 9
REMARK VINA RESULT:      -4.5     12.799     16.094
REMARK  7 active torsions:
REMARK  status: ('A' for Active; 'I' for Inactive)
REMARK    1  A    between atoms: C_2  and  C_3 
REMARK    2  A    between atoms: C_3  and  O_6 
REMARK    3  A    between atoms: C_3  and  C_4 
REMARK    4  A    between atoms: C_7  and  O_6 
REMARK    5  A    between atoms: C_9  and  C_10 
REMARK    6  A    between atoms: N_15  and  C_14 
REMARK    7  A    between atoms: N_20  and  C_19 
REMARK       I    between atoms: C_22  and  N_20 
ROOT
ATOM      1  C   LIG d   1     -17.110  66.080 115.926  0.00  0.00     0.161 C 
ATOM      2  C   LIG d   1     -16.200  66.660 115.027  0.00  0.00     0.016 C 
ATOM      3  C   LIG d   1     -15.363  67.750 115.361  0.00  0.00     0.038 C 
ATOM      4  C   LIG d   1     -15.271  68.239 116.672  0.00  0.00     0.028 C 
ATOM      5  C   LIG d   1     -16.537  68.017 117.492  0.00  0.00    -0.047 C 
ATOM      6  C   LIG d   1     -16.944  66.529 117.393  0.00  0.00     0.091 C 
ENDROOT
BRANCH   1   7
ATOM      7  O   LIG d   1     -17.043  64.644 115.830  0.00  0.00    -0.368 OA
BRANCH   7   8
ATOM      8  C   LIG d   1     -18.185  63.992 115.222  0.00  0.00     0.119 C 
BRANCH   8   9
ATOM      9  C   LIG d   1     -17.701  63.338 113.913  0.00  0.00     0.028 C 
ATOM     10  C   LIG d   1     -17.723  61.801 113.982  0.00  0.00     0.006 C 
ENDBRANCH   8   9
BRANCH   8  11
ATOM     11  C   LIG d   1     -19.247  65.010 114.798  0.00  0.00     0.028 C 
ATOM     12  C   LIG d   1     -19.498  65.013 113.281  0.00  0.00     0.006 C 
ENDBRANCH   8  11
ENDBRANCH   7   8
ENDBRANCH   1   7
BRANCH   6  13
ATOM     13  N   LIG d   1     -18.221  66.242 118.098  0.00  0.00    -0.311 N 
ATOM     14  C   LIG d   1     -18.375  65.233 118.954  0.00  0.00     0.210 C 
ATOM     15  C   LIG d   1     -19.778  65.104 119.555  0.00  0.00     0.109 C 
ATOM     16  O   LIG d   1     -17.474  64.453 119.298  0.00  0.00    -0.276 OA
ATOM     17  H   LIG d   1     -18.995  66.845 117.902  0.00  0.00     0.149 HD
ENDBRANCH   6  13
BRANCH   5  18
ATOM     18  N   LIG d   1     -16.255  68.449 118.874  0.00  0.00     0.381 N 
ATOM     19  H   LIG d   1     -16.544  69.399 118.997  0.00  0.00    -0.090 HD
ATOM     20  H   LIG d   1     -15.265  68.396 119.035  0.00  0.00    -0.090 HD
ATOM     21  H   LIG d   1     -16.736  67.861 119.519  0.00  0.00    -0.090 HD
ENDBRANCH   5  18
BRANCH   3  22
ATOM     22  C   LIG d   1     -14.635  68.388 114.367  0.00  0.00     0.382 C 
ATOM     23  O   LIG d   1     -14.727  68.001 113.177  0.00  0.00    -0.241 OA
ATOM     24  O   LIG d   1     -13.855  69.315 114.653  0.00  0.00    -0.241 OA
ENDBRANCH   3  22
TORSDOF 7
ENDMDL
