MODEL 1
REMARK VINA RESULT:      -5.3      0.000      0.000
REMARK  7 active torsions:
REMARK  status: ('A' for Active; 'I' for Inactive)
REMARK    1  A    between atoms: C_2  and  C_3 
REMARK    2  A    between atoms: C_3  and  O_6 
REMARK    3  A    between atoms: C_3  and  C_4 
REMARK    4  A    between atoms: C_7  and  O_6 
REMARK    5  A    between atoms: C_9  and  C_10 
REMARK    6  A    between atoms: N_15  and  C_14 
REMARK    7  A    between atoms: N_20  and  C_19 
REMARK       I    between atoms: C_22  and  N_20 
ROOT
ATOM      1  C   LIG d   1      -5.578  74.962 116.661  0.00  0.00     0.161 C 
ATOM      2  C   LIG d   1      -6.346  73.822 116.372  0.00  0.00     0.016 C 
ATOM      3  C   LIG d   1      -7.682  73.654 116.803  0.00  0.00     0.038 C 
ATOM      4  C   LIG d   1      -8.395  74.688 117.427  0.00  0.00     0.028 C 
ATOM      5  C   LIG d   1      -7.505  75.666 118.185  0.00  0.00    -0.047 C 
ATOM      6  C   LIG d   1      -6.375  76.147 117.246  0.00  0.00     0.091 C 
ENDROOT
BRANCH   1   7
ATOM      7  O   LIG d   1      -4.856  75.376 115.484  0.00  0.00    -0.368 OA
BRANCH   7   8
ATOM      8  C   LIG d   1      -3.467  74.969 115.413  0.00  0.00     0.119 C 
BRANCH   8   9
ATOM      9  C   LIG d   1      -2.950  74.834 116.859  0.00  0.00     0.028 C 
ATOM     10  C   LIG d   1      -1.472  74.410 116.916  0.00  0.00     0.006 C 
ENDBRANCH   8   9
BRANCH   8  11
ATOM     11  C   LIG d   1      -2.600  76.057 114.772  0.00  0.00     0.028 C 
ATOM     12  C   LIG d   1      -2.949  77.468 115.271  0.00  0.00     0.006 C 
ENDBRANCH   8  11
ENDBRANCH   7   8
ENDBRANCH   1   7
BRANCH   6  13
ATOM     13  N   LIG d   1      -5.409  77.043 117.933  0.00  0.00    -0.311 N 
ATOM     14  C   LIG d   1      -5.486  78.372 117.893  0.00  0.00     0.210 C 
ATOM     15  C   LIG d   1      -4.377  79.107 118.654  0.00  0.00     0.109 C 
ATOM     16  O   LIG d   1      -6.385  79.012 117.327  0.00  0.00    -0.276 OA
ATOM     17  H   LIG d   1      -4.665  76.607 118.442  0.00  0.00     0.149 HD
ENDBRANCH   6  13
BRANCH   5  18
ATOM     18  N   LIG d   1      -8.361  76.766 118.669  0.00  0.00     0.381 N 
ATOM     19  H   LIG d   1      -7.942  77.194 119.470  0.00  0.00    -0.090 HD
ATOM     20  H   LIG d   1      -9.251  76.388 118.942  0.00  0.00    -0.090 HD
ATOM     21  H   LIG d   1      -8.486  77.443 117.949  0.00  0.00    -0.090 HD
ENDBRANCH   5  18
BRANCH   3  22
ATOM     22  C   LIG d   1      -8.306  72.425 116.645  0.00  0.00     0.382 C 
ATOM     23  O   LIG d   1      -9.302  72.133 117.349  0.00  0.00    -0.241 OA
ATOM     24  O   LIG d   1      -7.858  71.589 115.838  0.00  0.00    -0.241 OA
ENDBRANCH   3  22
TORSDOF 7
ENDMDL
MODEL 2
REMARK VINA RESULT:      -5.0      3.133      6.363
REMARK  7 active torsions:
REMARK  status: ('A' for Active; 'I' for Inactive)
REMARK    1  A    between atoms: C_2  and  C_3 
REMARK    2  A    between atoms: C_3  and  O_6 
REMARK    3  A    between atoms: C_3  and  C_4 
REMARK    4  A    between atoms: C_7  and  O_6 
REMARK    5  A    between atoms: C_9  and  C_10 
REMARK    6  A    between atoms: N_15  and  C_14 
REMARK    7  A    between atoms: N_20  and  C_19 
REMARK       I    between atoms: C_22  and  N_20 
ROOT
ATOM      1  C   LIG d   1      -3.699  77.092 117.647  0.00  0.00     0.161 C 
ATOM      2  C   LIG d   1      -4.003  78.315 117.025  0.00  0.00     0.016 C 
ATOM      3  C   LIG d   1      -3.129  78.969 116.126  0.00  0.00     0.038 C 
ATOM      4  C   LIG d   1      -1.949  78.365 115.669  0.00  0.00     0.028 C 
ATOM      5  C   LIG d   1      -1.360  77.360 116.654  0.00  0.00    -0.047 C 
ATOM      6  C   LIG d   1      -2.465  76.364 117.074  0.00  0.00     0.091 C 
ENDROOT
BRANCH   1   7
ATOM      7  O   LIG d   1      -4.852  76.227 117.612  0.00  0.00    -0.368 OA
BRANCH   7   8
ATOM      8  C   LIG d   1      -5.698  76.339 116.441  0.00  0.00     0.119 C 
BRANCH   8   9
ATOM      9  C   LIG d   1      -7.158  76.183 116.909  0.00  0.00     0.028 C 
ATOM     10  C   LIG d   1      -7.277  76.087 118.439  0.00  0.00     0.006 C 
ENDBRANCH   8   9
BRANCH   8  11
ATOM     11  C   LIG d   1      -5.458  75.181 115.468  0.00  0.00     0.028 C 
ATOM     12  C   LIG d   1      -4.954  75.653 114.094  0.00  0.00     0.006 C 
ENDBRANCH   8  11
ENDBRANCH   7   8
ENDBRANCH   1   7
BRANCH   6  13
ATOM     13  N   LIG d   1      -1.996  75.398 118.102  0.00  0.00    -0.311 N 
ATOM     14  C   LIG d   1      -1.517  74.191 117.808  0.00  0.00     0.210 C 
ATOM     15  C   LIG d   1      -1.108  73.345 119.018  0.00  0.00     0.109 C 
ATOM     16  O   LIG d   1      -1.362  73.751 116.659  0.00  0.00    -0.276 OA
ATOM     17  H   LIG d   1      -2.057  75.685 119.059  0.00  0.00     0.149 HD
ENDBRANCH   6  13
BRANCH   5  18
ATOM     18  N   LIG d   1      -0.214  76.708 115.994  0.00  0.00     0.381 N 
ATOM     19  H   LIG d   1      -0.282  76.824 115.003  0.00  0.00    -0.090 HD
ATOM     20  H   LIG d   1      -0.238  75.724 116.198  0.00  0.00    -0.090 HD
ATOM     21  H   LIG d   1       0.639  77.102 116.324  0.00  0.00    -0.090 HD
ENDBRANCH   5  18
BRANCH   3  22
ATOM     22  C   LIG d   1      -3.415  80.259 115.707  0.00  0.00     0.382 C 
ATOM     23  O   LIG d   1      -3.874  81.096 116.521  0.00  0.00    -0.241 OA
ATOM     24  O   LIG d   1      -3.260  80.584 114.514  0.00  0.00    -0.241 OA
ENDBRANCH   3  22
TORSDOF 7
ENDMDL
MODEL 3
REMARK VINA RESULT:      -4.9      2.835      6.224
REMARK  7 active torsions:
REMARK  status: ('A' for Active; 'I' for Inactive)
REMARK    1  A    between atoms: C_2  and  C_3 
REMARK    2  A    between atoms: C_3  and  O_6 
REMARK    3  A    between atoms: C_3  and  C_4 
REMARK    4  A    between atoms: C_7  and  O_6 
REMARK    5  A    between atoms: C_9  and  C_10 
REMARK    6  A    between atoms: N_15  and  C_14 
REMARK    7  A    between atoms: N_20  and  C_19 
REMARK       I    between atoms: C_22  and  N_20 
ROOT
ATOM      1  C   LIG d   1      -4.653  77.494 116.784  0.00  0.00     0.161 C 
ATOM      2  C   LIG d   1      -5.295  78.692 117.138  0.00  0.00     0.016 C 
ATOM      3  C   LIG d   1      -4.706  79.968 116.979  0.00  0.00     0.038 C 
ATOM      4  C   LIG d   1      -3.485  80.143 116.311  0.00  0.00     0.028 C 
ATOM      5  C   LIG d   1      -2.572  78.924 116.389  0.00  0.00    -0.047 C 
ATOM      6  C   LIG d   1      -3.366  77.673 115.951  0.00  0.00     0.091 C 
ENDROOT
BRANCH   1   7
ATOM      7  O   LIG d   1      -5.578  76.628 116.097  0.00  0.00    -0.368 OA
BRANCH   7   8
ATOM      8  C   LIG d   1      -5.900  75.383 116.764  0.00  0.00     0.119 C 
BRANCH   8   9
ATOM      9  C   LIG d   1      -5.697  74.246 115.745  0.00  0.00     0.028 C 
ATOM     10  C   LIG d   1      -5.345  74.770 114.343  0.00  0.00     0.006 C 
ENDBRANCH   8   9
BRANCH   8  11
ATOM     11  C   LIG d   1      -7.382  75.324 117.148  0.00  0.00     0.028 C 
ATOM     12  C   LIG d   1      -7.701  76.127 118.419  0.00  0.00     0.006 C 
ENDBRANCH   8  11
ENDBRANCH   7   8
ENDBRANCH   1   7
BRANCH   6  13
ATOM     13  N   LIG d   1      -2.571  76.423 116.078  0.00  0.00    -0.311 N 
ATOM     14  C   LIG d   1      -1.896  75.878 115.068  0.00  0.00     0.210 C 
ATOM     15  C   LIG d   1      -1.159  74.579 115.409  0.00  0.00     0.109 C 
ATOM     16  O   LIG d   1      -1.811  76.363 113.930  0.00  0.00    -0.276 OA
ATOM     17  H   LIG d   1      -2.560  75.979 116.975  0.00  0.00     0.149 HD
ENDBRANCH   6  13
BRANCH   5  18
ATOM     18  N   LIG d   1      -1.398  79.191 115.537  0.00  0.00     0.381 N 
ATOM     19  H   LIG d   1      -0.712  79.702 116.057  0.00  0.00    -0.090 HD
ATOM     20  H   LIG d   1      -1.684  79.754 114.756  0.00  0.00    -0.090 HD
ATOM     21  H   LIG d   1      -1.009  78.333 115.213  0.00  0.00    -0.090 HD
ENDBRANCH   5  18
BRANCH   3  22
ATOM     22  C   LIG d   1      -5.322  81.082 117.529  0.00  0.00     0.382 C 
ATOM     23  O   LIG d   1      -4.871  81.591 118.583  0.00  0.00    -0.241 OA
ATOM     24  O   LIG d   1      -6.348  81.558 117.007  0.00  0.00    -0.241 OA
ENDBRANCH   3  22
TORSDOF 7
ENDMDL
MODEL 4
REMARK VINA RESULT:      -4.6      3.702      5.513
REMARK  7 active torsions:
REMARK  status: ('A' for Active; 'I' for Inactive)
REMARK    1  A    between atoms: C_2  and  C_3 
REMARK    2  A    between atoms: C_3  and  O_6 
REMARK    3  A    between atoms: C_3  and  C_4 
REMARK    4  A    between atoms: C_7  and  O_6 
REMARK    5  A    between atoms: C_9  and  C_10 
REMARK    6  A    between atoms: N_15  and  C_14 
REMARK    7  A    between atoms: N_20  and  C_19 
REMARK       I    between atoms: C_22  and  N_20 
ROOT
ATOM      1  C   LIG d   1      -1.842  77.160 115.511  0.00  0.00     0.161 C 
ATOM      2  C   LIG d   1      -3.010  76.917 114.770  0.00  0.00     0.016 C 
ATOM      3  C   LIG d   1      -3.814  75.766 114.939  0.00  0.00     0.038 C 
ATOM      4  C   LIG d   1      -3.585  74.848 115.974  0.00  0.00     0.028 C 
ATOM      5  C   LIG d   1      -2.128  74.790 116.421  0.00  0.00    -0.047 C 
ATOM      6  C   LIG d   1      -1.638  76.225 116.721  0.00  0.00     0.091 C 
ENDROOT
BRANCH   1   7
ATOM      7  O   LIG d   1      -1.809  78.538 115.932  0.00  0.00    -0.368 OA
BRANCH   7   8
ATOM      8  C   LIG d   1      -3.049  79.075 116.456  0.00  0.00     0.119 C 
BRANCH   8   9
ATOM      9  C   LIG d   1      -3.254  80.466 115.826  0.00  0.00     0.028 C 
ATOM     10  C   LIG d   1      -2.512  80.619 114.487  0.00  0.00     0.006 C 
ENDBRANCH   8   9
BRANCH   8  11
ATOM     11  C   LIG d   1      -2.955  79.323 117.965  0.00  0.00     0.028 C 
ATOM     12  C   LIG d   1      -3.443  80.723 118.370  0.00  0.00     0.006 C 
ENDBRANCH   8  11
ENDBRANCH   7   8
ENDBRANCH   1   7
BRANCH   6  13
ATOM     13  N   LIG d   1      -0.197  76.267 117.084  0.00  0.00    -0.311 N 
ATOM     14  C   LIG d   1       0.243  76.257 118.341  0.00  0.00     0.210 C 
ATOM     15  C   LIG d   1       1.766  76.327 118.494  0.00  0.00     0.109 C 
ATOM     16  O   LIG d   1      -0.481  76.164 119.343  0.00  0.00    -0.276 OA
ATOM     17  H   LIG d   1       0.462  76.312 116.331  0.00  0.00     0.149 HD
ENDBRANCH   6  13
BRANCH   5  18
ATOM     18  N   LIG d   1      -2.056  73.897 117.593  0.00  0.00     0.381 N 
ATOM     19  H   LIG d   1      -2.945  73.870 118.053  0.00  0.00    -0.090 HD
ATOM     20  H   LIG d   1      -1.378  74.262 118.239  0.00  0.00    -0.090 HD
ATOM     21  H   LIG d   1      -1.794  72.980 117.308  0.00  0.00    -0.090 HD
ENDBRANCH   5  18
BRANCH   3  22
ATOM     22  C   LIG d   1      -4.838  75.505 114.041  0.00  0.00     0.382 C 
ATOM     23  O   LIG d   1      -5.493  74.439 114.131  0.00  0.00    -0.241 OA
ATOM     24  O   LIG d   1      -5.085  76.301 113.116  0.00  0.00    -0.241 OA
ENDBRANCH   3  22
TORSDOF 7
ENDMDL
MODEL 5
REMARK VINA RESULT:      -4.5      3.003      4.707
REMARK  7 active torsions:
REMARK  status: ('A' for Active; 'I' for Inactive)
REMARK    1  A    between atoms: C_2  and  C_3 
REMARK    2  A    between atoms: C_3  and  O_6 
REMARK    3  A    between atoms: C_3  and  C_4 
REMARK    4  A    between atoms: C_7  and  O_6 
REMARK    5  A    between atoms: C_9  and  C_10 
REMARK    6  A    between atoms: N_15  and  C_14 
REMARK    7  A    between atoms: N_20  and  C_19 
REMARK       I    between atoms: C_22  and  N_20 
ROOT
ATOM      1  C   LIG d   1      -3.432  78.493 116.320  0.00  0.00     0.161 C 
ATOM      2  C   LIG d   1      -3.025  77.246 115.818  0.00  0.00     0.016 C 
ATOM      3  C   LIG d   1      -3.651  76.026 116.163  0.00  0.00     0.038 C 
ATOM      4  C   LIG d   1      -4.830  75.986 116.921  0.00  0.00     0.028 C 
ATOM      5  C   LIG d   1      -4.985  77.175 117.863  0.00  0.00    -0.047 C 
ATOM      6  C   LIG d   1      -4.786  78.481 117.060  0.00  0.00     0.091 C 
ENDROOT
BRANCH   1   7
ATOM      7  O   LIG d   1      -3.451  79.465 115.256  0.00  0.00    -0.368 OA
BRANCH   7   8
ATOM      8  C   LIG d   1      -2.288  80.323 115.156  0.00  0.00     0.119 C 
BRANCH   8   9
ATOM      9  C   LIG d   1      -2.683  81.705 115.711  0.00  0.00     0.028 C 
ATOM     10  C   LIG d   1      -2.108  81.960 117.115  0.00  0.00     0.006 C 
ENDBRANCH   8   9
BRANCH   8  11
ATOM     11  C   LIG d   1      -1.901  80.569 113.695  0.00  0.00     0.028 C 
ATOM     12  C   LIG d   1      -2.093  82.032 113.265  0.00  0.00     0.006 C 
ENDBRANCH   8  11
ENDBRANCH   7   8
ENDBRANCH   1   7
BRANCH   6  13
ATOM     13  N   LIG d   1      -4.837  79.690 117.923  0.00  0.00    -0.311 N 
ATOM     14  C   LIG d   1      -5.926  80.445 118.063  0.00  0.00     0.210 C 
ATOM     15  C   LIG d   1      -5.757  81.657 118.985  0.00  0.00     0.109 C 
ATOM     16  O   LIG d   1      -7.024  80.207 117.538  0.00  0.00    -0.276 OA
ATOM     17  H   LIG d   1      -3.999  79.939 118.411  0.00  0.00     0.149 HD
ENDBRANCH   6  13
BRANCH   5  18
ATOM     18  N   LIG d   1      -6.318  77.078 118.488  0.00  0.00     0.381 N 
ATOM     19  H   LIG d   1      -6.843  76.346 118.054  0.00  0.00    -0.090 HD
ATOM     20  H   LIG d   1      -6.807  77.944 118.346  0.00  0.00    -0.090 HD
ATOM     21  H   LIG d   1      -6.225  76.898 119.464  0.00  0.00    -0.090 HD
ENDBRANCH   5  18
BRANCH   3  22
ATOM     22  C   LIG d   1      -3.073  74.825 115.781  0.00  0.00     0.382 C 
ATOM     23  O   LIG d   1      -3.135  74.452 114.584  0.00  0.00    -0.241 OA
ATOM     24  O   LIG d   1      -2.529  74.088 116.625  0.00  0.00    -0.241 OA
ENDBRANCH   3  22
TORSDOF 7
ENDMDL
MODEL 6
REMARK VINA RESULT:      -4.5     12.559     16.020
REMARK  7 active torsions:
REMARK  status: ('A' for Active; 'I' for Inactive)
REMARK    1  A    between atoms: C_2  and  C_3 
REMARK    2  A    between atoms: C_3  and  O_6 
REMARK    3  A    between atoms: C_3  and  C_4 
REMARK    4  A    between atoms: C_7  and  O_6 
REMARK    5  A    between atoms: C_9  and  C_10 
REMARK    6  A    between atoms: N_15  and  C_14 
REMARK    7  A    between atoms: N_20  and  C_19 
REMARK       I    between atoms: C_22  and  N_20 
ROOT
ATOM      1  C   LIG d   1       1.741  88.343 116.052  0.00  0.00     0.161 C 
ATOM      2  C   LIG d   1       0.824  88.643 117.074  0.00  0.00     0.016 C 
ATOM      3  C   LIG d   1       0.823  89.865 117.784  0.00  0.00     0.038 C 
ATOM      4  C   LIG d   1       1.650  90.937 117.416  0.00  0.00     0.028 C 
ATOM      5  C   LIG d   1       2.935  90.500 116.721  0.00  0.00    -0.047 C 
ATOM      6  C   LIG d   1       2.578  89.542 115.562  0.00  0.00     0.091 C 
ENDROOT
BRANCH   1   7
ATOM      7  O   LIG d   1       1.054  87.725 114.946  0.00  0.00    -0.368 OA
BRANCH   7   8
ATOM      8  C   LIG d   1       0.733  86.320 115.099  0.00  0.00     0.119 C 
BRANCH   8   9
ATOM      9  C   LIG d   1       1.573  85.538 114.071  0.00  0.00     0.028 C 
ATOM     10  C   LIG d   1       2.037  86.420 112.900  0.00  0.00     0.006 C 
ENDBRANCH   8   9
BRANCH   8  11
ATOM     11  C   LIG d   1      -0.726  86.039 114.729  0.00  0.00     0.028 C 
ATOM     12  C   LIG d   1      -1.064  84.540 114.734  0.00  0.00     0.006 C 
ENDBRANCH   8  11
ENDBRANCH   7   8
ENDBRANCH   1   7
BRANCH   6  13
ATOM     13  N   LIG d   1       3.783  89.001 114.882  0.00  0.00    -0.311 N 
ATOM     14  C   LIG d   1       4.292  89.523 113.767  0.00  0.00     0.210 C 
ATOM     15  C   LIG d   1       5.527  88.800 113.219  0.00  0.00     0.109 C 
ATOM     16  O   LIG d   1       3.858  90.535 113.197  0.00  0.00    -0.276 OA
ATOM     17  H   LIG d   1       4.218  88.199 115.294  0.00  0.00     0.149 HD
ENDBRANCH   6  13
BRANCH   5  18
ATOM     18  N   LIG d   1       3.634  91.719 116.270  0.00  0.00     0.381 N 
ATOM     19  H   LIG d   1       3.067  92.522 116.453  0.00  0.00    -0.090 HD
ATOM     20  H   LIG d   1       3.785  91.658 115.279  0.00  0.00    -0.090 HD
ATOM     21  H   LIG d   1       4.507  91.805 116.742  0.00  0.00    -0.090 HD
ENDBRANCH   5  18
BRANCH   3  22
ATOM     22  C   LIG d   1       0.016  90.010 118.903  0.00  0.00     0.382 C 
ATOM     23  O   LIG d   1      -0.320  91.155 119.290  0.00  0.00    -0.241 OA
ATOM     24  O   LIG d   1      -0.344  89.011 119.555  0.00  0.00    -0.241 OA
ENDBRANCH   3  22
TORSDOF 7
ENDMDL
MODEL 7
REMARK VINA RESULT:      -4.4     13.088     16.672
REMARK  7 active torsions:
REMARK  status: ('A' for Active; 'I' for Inactive)
REMARK    1  A    between atoms: C_2  and  C_3 
REMARK    2  A    between atoms: C_3  and  O_6 
REMARK    3  A    between atoms: C_3  and  C_4 
REMARK    4  A    between atoms: C_7  and  O_6 
REMARK    5  A    between atoms: C_9  and  C_10 
REMARK    6  A    between atoms: N_15  and  C_14 
REMARK    7  A    between atoms: N_20  and  C_19 
REMARK       I    between atoms: C_22  and  N_20 
ROOT
ATOM      1  C   LIG d   1       2.467  89.286 115.376  0.00  0.00     0.161 C 
ATOM      2  C   LIG d   1       3.193  90.416 115.790  0.00  0.00     0.016 C 
ATOM      3  C   LIG d   1       2.977  91.070 117.025  0.00  0.00     0.038 C 
ATOM      4  C   LIG d   1       2.119  90.544 118.003  0.00  0.00     0.028 C 
ATOM      5  C   LIG d   1       0.995  89.690 117.426  0.00  0.00    -0.047 C 
ATOM      6  C   LIG d   1       1.604  88.633 116.476  0.00  0.00     0.091 C 
ENDROOT
BRANCH   1   7
ATOM      7  O   LIG d   1       3.362  88.315 114.798  0.00  0.00    -0.368 OA
BRANCH   7   8
ATOM      8  C   LIG d   1       3.490  88.347 113.356  0.00  0.00     0.119 C 
BRANCH   8   9
ATOM      9  C   LIG d   1       2.850  87.058 112.805  0.00  0.00     0.028 C 
ATOM     10  C   LIG d   1       3.461  85.789 113.424  0.00  0.00     0.006 C 
ENDBRANCH   8   9
BRANCH   8  11
ATOM     11  C   LIG d   1       4.959  88.285 112.926  0.00  0.00     0.028 C 
ATOM     12  C   LIG d   1       5.928  88.658 114.059  0.00  0.00     0.006 C 
ENDBRANCH   8  11
ENDBRANCH   7   8
ENDBRANCH   1   7
BRANCH   6  13
ATOM     13  N   LIG d   1       0.566  87.809 115.804  0.00  0.00    -0.311 N 
ATOM     14  C   LIG d   1       0.597  86.478 115.767  0.00  0.00     0.210 C 
ATOM     15  C   LIG d   1      -0.561  85.826 115.005  0.00  0.00     0.109 C 
ATOM     16  O   LIG d   1       1.456  85.775 116.320  0.00  0.00    -0.276 OA
ATOM     17  H   LIG d   1      -0.184  88.298 115.356  0.00  0.00     0.149 HD
ENDBRANCH   6  13
BRANCH   5  18
ATOM     18  N   LIG d   1       0.262  89.095 118.559  0.00  0.00     0.381 N 
ATOM     19  H   LIG d   1      -0.122  89.820 119.132  0.00  0.00    -0.090 HD
ATOM     20  H   LIG d   1       0.903  88.558 119.116  0.00  0.00    -0.090 HD
ATOM     21  H   LIG d   1      -0.469  88.507 118.221  0.00  0.00    -0.090 HD
ENDBRANCH   5  18
BRANCH   3  22
ATOM     22  C   LIG d   1       3.595  92.285 117.276  0.00  0.00     0.382 C 
ATOM     23  O   LIG d   1       3.285  93.297 116.602  0.00  0.00    -0.241 OA
ATOM     24  O   LIG d   1       4.491  92.373 118.137  0.00  0.00    -0.241 OA
ENDBRANCH   3  22
TORSDOF 7
ENDMDL
MODEL 8
REMARK VINA RESULT:      -4.3      3.098      5.339
REMARK  7 active torsions:
REMARK  status: ('A' for Active; 'I' for Inactive)
REMARK    1  A    between atoms: C_2  and  C_3 
REMARK    2  A    between atoms: C_3  and  O_6 
REMARK    3  A    between atoms: C_3  and  C_4 
REMARK    4  A    between atoms: C_7  and  O_6 
REMARK    5  A    between atoms: C_9  and  C_10 
REMARK    6  A    between atoms: N_15  and  C_14 
REMARK    7  A    between atoms: N_20  and  C_19 
REMARK       I    between atoms: C_22  and  N_20 
ROOT
ATOM      1  C   LIG d   1      -3.137  77.465 116.962  0.00  0.00     0.161 C 
ATOM      2  C   LIG d   1      -3.855  77.158 115.794  0.00  0.00     0.016 C 
ATOM      3  C   LIG d   1      -3.986  75.846 115.284  0.00  0.00     0.038 C 
ATOM      4  C   LIG d   1      -3.532  74.725 115.994  0.00  0.00     0.028 C 
ATOM      5  C   LIG d   1      -2.362  75.030 116.923  0.00  0.00    -0.047 C 
ATOM      6  C   LIG d   1      -2.728  76.242 117.810  0.00  0.00     0.091 C 
ENDROOT
BRANCH   1   7
ATOM      7  O   LIG d   1      -3.883  78.403 117.762  0.00  0.00    -0.368 OA
BRANCH   7   8
ATOM      8  C   LIG d   1      -5.310  78.456 117.517  0.00  0.00     0.119 C 
BRANCH   8   9
ATOM      9  C   LIG d   1      -5.751  79.925 117.667  0.00  0.00     0.028 C 
ATOM     10  C   LIG d   1      -4.719  80.909 117.091  0.00  0.00     0.006 C 
ENDBRANCH   8   9
BRANCH   8  11
ATOM     11  C   LIG d   1      -6.089  77.687 118.588  0.00  0.00     0.028 C 
ATOM     12  C   LIG d   1      -6.866  76.491 118.016  0.00  0.00     0.006 C 
ENDBRANCH   8  11
ENDBRANCH   7   8
ENDBRANCH   1   7
BRANCH   6  13
ATOM     13  N   LIG d   1      -1.606  76.660 118.691  0.00  0.00    -0.311 N 
ATOM     14  C   LIG d   1      -0.404  77.004 118.232  0.00  0.00     0.210 C 
ATOM     15  C   LIG d   1       0.615  77.383 119.311  0.00  0.00     0.109 C 
ATOM     16  O   LIG d   1      -0.094  77.063 117.033  0.00  0.00    -0.276 OA
ATOM     17  H   LIG d   1      -1.780  76.671 119.677  0.00  0.00     0.149 HD
ENDBRANCH   6  13
BRANCH   5  18
ATOM     18  N   LIG d   1      -2.080  73.809 117.701  0.00  0.00     0.381 N 
ATOM     19  H   LIG d   1      -1.244  73.934 118.238  0.00  0.00    -0.090 HD
ATOM     20  H   LIG d   1      -1.934  73.045 117.065  0.00  0.00    -0.090 HD
ATOM     21  H   LIG d   1      -2.844  73.606 118.307  0.00  0.00    -0.090 HD
ENDBRANCH   5  18
BRANCH   3  22
ATOM     22  C   LIG d   1      -4.543  75.649 114.030  0.00  0.00     0.382 C 
ATOM     23  O   LIG d   1      -4.925  74.504 113.685  0.00  0.00    -0.241 OA
ATOM     24  O   LIG d   1      -4.629  76.593 113.221  0.00  0.00    -0.241 OA
ENDBRANCH   3  22
TORSDOF 7
ENDMDL
MODEL 9
REMARK VINA RESULT:      -4.3      2.373      5.113
REMARK  7 active torsions:
REMARK  status: ('A' for Active; 'I' for Inactive)
REMARK    1  A    between atoms: C_2  and  C_3 
REMARK    2  A    between atoms: C_3  and  O_6 
REMARK    3  A    between atoms: C_3  and  C_4 
REMARK    4  A    between atoms: C_7  and  O_6 
REMARK    5  A    between atoms: C_9  and  C_10 
REMARK    6  A    between atoms: N_15  and  C_14 
REMARK    7  A    between atoms: N_20  and  C_19 
REMARK       I    between atoms: C_22  and  N_20 
ROOT
ATOM      1  C   LIG d   1      -4.170  76.373 117.519  0.00  0.00     0.161 C 
ATOM      2  C   LIG d   1      -2.862  75.866 117.442  0.00  0.00     0.016 C 
ATOM      3  C   LIG d   1      -2.410  75.035 116.391  0.00  0.00     0.038 C 
ATOM      4  C   LIG d   1      -3.198  74.776 115.259  0.00  0.00     0.028 C 
ATOM      5  C   LIG d   1      -4.696  74.853 115.534  0.00  0.00    -0.047 C 
ATOM      6  C   LIG d   1      -5.010  76.193 116.237  0.00  0.00     0.091 C 
ENDROOT
BRANCH   1   7
ATOM      7  O   LIG d   1      -4.133  77.762 117.903  0.00  0.00    -0.368 OA
BRANCH   7   8
ATOM      8  C   LIG d   1      -2.947  78.499 117.516  0.00  0.00     0.119 C 
BRANCH   8   9
ATOM      9  C   LIG d   1      -2.663  79.532 118.623  0.00  0.00     0.028 C 
ATOM     10  C   LIG d   1      -2.984  80.970 118.182  0.00  0.00     0.006 C 
ENDBRANCH   8   9
BRANCH   8  11
ATOM     11  C   LIG d   1      -3.192  79.322 116.247  0.00  0.00     0.028 C 
ATOM     12  C   LIG d   1      -2.467  78.751 115.018  0.00  0.00     0.006 C 
ENDBRANCH   8  11
ENDBRANCH   7   8
ENDBRANCH   1   7
BRANCH   6  13
ATOM     13  N   LIG d   1      -6.442  76.312 116.617  0.00  0.00    -0.311 N 
ATOM     14  C   LIG d   1      -7.170  75.289 117.061  0.00  0.00     0.210 C 
ATOM     15  C   LIG d   1      -8.631  75.625 117.378  0.00  0.00     0.109 C 
ATOM     16  O   LIG d   1      -6.737  74.143 117.253  0.00  0.00    -0.276 OA
ATOM     17  H   LIG d   1      -6.865  77.214 116.523  0.00  0.00     0.149 HD
ENDBRANCH   6  13
BRANCH   5  18
ATOM     18  N   LIG d   1      -5.394  74.700 114.243  0.00  0.00     0.381 N 
ATOM     19  H   LIG d   1      -4.897  74.053 113.664  0.00  0.00    -0.090 HD
ATOM     20  H   LIG d   1      -5.415  75.590 113.777  0.00  0.00    -0.090 HD
ATOM     21  H   LIG d   1      -6.324  74.374 114.395  0.00  0.00    -0.090 HD
ENDBRANCH   5  18
BRANCH   3  22
ATOM     22  C   LIG d   1      -1.171  74.420 116.485  0.00  0.00     0.382 C 
ATOM     23  O   LIG d   1      -0.812  73.595 115.610  0.00  0.00    -0.241 OA
ATOM     24  O   LIG d   1      -0.426  74.645 117.457  0.00  0.00    -0.241 OA
ENDBRANCH   3  22
TORSDOF 7
ENDMDL
