MODEL 1
REMARK VINA RESULT:      -5.1      0.000      0.000
REMARK  7 active torsions:
REMARK  status: ('A' for Active; 'I' for Inactive)
REMARK    1  A    between atoms: C_2  and  C_3 
REMARK    2  A    between atoms: C_3  and  O_6 
REMARK    3  A    between atoms: C_3  and  C_4 
REMARK    4  A    between atoms: C_7  and  O_6 
REMARK    5  A    between atoms: C_9  and  C_10 
REMARK    6  A    between atoms: N_15  and  C_14 
REMARK    7  A    between atoms: N_20  and  C_19 
REMARK       I    between atoms: C_22  and  N_20 
ROOT
ATOM      1  C   LIG d   1      -4.027  76.046 117.031  0.00  0.00     0.161 C 
ATOM      2  C   LIG d   1      -5.293  76.619 117.237  0.00  0.00     0.016 C 
ATOM      3  C   LIG d   1      -5.603  77.960 116.912  0.00  0.00     0.038 C 
ATOM      4  C   LIG d   1      -4.704  78.781 116.216  0.00  0.00     0.028 C 
ATOM      5  C   LIG d   1      -3.243  78.405 116.440  0.00  0.00    -0.047 C 
ATOM      6  C   LIG d   1      -3.066  76.893 116.170  0.00  0.00     0.091 C 
ENDROOT
BRANCH   1   7
ATOM      7  O   LIG d   1      -4.172  74.727 116.469  0.00  0.00    -0.368 OA
BRANCH   7   8
ATOM      8  C   LIG d   1      -5.385  74.486 115.714  0.00  0.00     0.119 C 
BRANCH   8   9
ATOM      9  C   LIG d   1      -5.781  73.013 115.932  0.00  0.00     0.028 C 
ATOM     10  C   LIG d   1      -6.778  72.839 117.090  0.00  0.00     0.006 C 
ENDBRANCH   8   9
BRANCH   8  11
ATOM     11  C   LIG d   1      -5.141  74.622 114.208  0.00  0.00     0.028 C 
ATOM     12  C   LIG d   1      -5.843  75.846 113.598  0.00  0.00     0.006 C 
ENDBRANCH   8  11
ENDBRANCH   7   8
ENDBRANCH   1   7
BRANCH   6  13
ATOM     13  N   LIG d   1      -1.683  76.426 116.448  0.00  0.00    -0.311 N 
ATOM     14  C   LIG d   1      -0.935  75.778 115.556  0.00  0.00     0.210 C 
ATOM     15  C   LIG d   1       0.454  75.368 116.053  0.00  0.00     0.109 C 
ATOM     16  O   LIG d   1      -1.279  75.533 114.390  0.00  0.00    -0.276 OA
ATOM     17  H   LIG d   1      -1.313  76.611 117.360  0.00  0.00     0.149 HD
ENDBRANCH   6  13
BRANCH   5  18
ATOM     18  N   LIG d   1      -2.424  79.250 115.550  0.00  0.00     0.381 N 
ATOM     19  H   LIG d   1      -2.443  80.198 115.871  0.00  0.00    -0.090 HD
ATOM     20  H   LIG d   1      -2.816  79.223 114.625  0.00  0.00    -0.090 HD
ATOM     21  H   LIG d   1      -1.486  78.917 115.531  0.00  0.00    -0.090 HD
ENDBRANCH   5  18
BRANCH   3  22
ATOM     22  C   LIG d   1      -6.811  78.504 117.321  0.00  0.00     0.382 C 
ATOM     23  O   LIG d   1      -7.690  77.768 117.830  0.00  0.00    -0.241 OA
ATOM     24  O   LIG d   1      -7.049  79.714 117.148  0.00  0.00    -0.241 OA
ENDBRANCH   3  22
TORSDOF 7
ENDMDL
MODEL 2
REMARK VINA RESULT:      -5.0      2.958      5.484
REMARK  7 active torsions:
REMARK  status: ('A' for Active; 'I' for Inactive)
REMARK    1  A    between atoms: C_2  and  C_3 
REMARK    2  A    between atoms: C_3  and  O_6 
REMARK    3  A    between atoms: C_3  and  C_4 
REMARK    4  A    between atoms: C_7  and  O_6 
REMARK    5  A    between atoms: C_9  and  C_10 
REMARK    6  A    between atoms: N_15  and  C_14 
REMARK    7  A    between atoms: N_20  and  C_19 
REMARK       I    between atoms: C_22  and  N_20 
ROOT
ATOM      1  C   LIG d   1      -2.953  74.770 116.156  0.00  0.00     0.161 C 
ATOM      2  C   LIG d   1      -2.134  75.724 115.529  0.00  0.00     0.016 C 
ATOM      3  C   LIG d   1      -2.574  76.551 114.470  0.00  0.00     0.038 C 
ATOM      4  C   LIG d   1      -3.916  76.584 114.063  0.00  0.00     0.028 C 
ATOM      5  C   LIG d   1      -4.661  75.280 114.325  0.00  0.00    -0.047 C 
ATOM      6  C   LIG d   1      -4.451  74.870 115.801  0.00  0.00     0.091 C 
ENDROOT
BRANCH   1   7
ATOM      7  O   LIG d   1      -2.772  74.833 117.585  0.00  0.00    -0.368 OA
BRANCH   7   8
ATOM      8  C   LIG d   1      -1.466  75.264 118.043  0.00  0.00     0.119 C 
BRANCH   8   9
ATOM      9  C   LIG d   1      -0.751  74.030 118.626  0.00  0.00     0.028 C 
ATOM     10  C   LIG d   1       0.328  73.475 117.681  0.00  0.00     0.006 C 
ENDBRANCH   8   9
BRANCH   8  11
ATOM     11  C   LIG d   1      -1.582  76.253 119.206  0.00  0.00     0.028 C 
ATOM     12  C   LIG d   1      -2.804  77.178 119.082  0.00  0.00     0.006 C 
ENDBRANCH   8  11
ENDBRANCH   7   8
ENDBRANCH   1   7
BRANCH   6  13
ATOM     13  N   LIG d   1      -5.078  73.561 116.120  0.00  0.00    -0.311 N 
ATOM     14  C   LIG d   1      -6.339  73.432 116.528  0.00  0.00     0.210 C 
ATOM     15  C   LIG d   1      -6.780  71.994 116.822  0.00  0.00     0.109 C 
ATOM     16  O   LIG d   1      -7.145  74.368 116.644  0.00  0.00    -0.276 OA
ATOM     17  H   LIG d   1      -4.505  72.745 116.024  0.00  0.00     0.149 HD
ENDBRANCH   6  13
BRANCH   5  18
ATOM     18  N   LIG d   1      -6.079  75.500 113.982  0.00  0.00     0.381 N 
ATOM     19  H   LIG d   1      -6.144  76.034 113.139  0.00  0.00    -0.090 HD
ATOM     20  H   LIG d   1      -6.515  76.023 114.721  0.00  0.00    -0.090 HD
ATOM     21  H   LIG d   1      -6.542  74.626 113.867  0.00  0.00    -0.090 HD
ENDBRANCH   5  18
BRANCH   3  22
ATOM     22  C   LIG d   1      -1.656  77.327 113.778  0.00  0.00     0.382 C 
ATOM     23  O   LIG d   1      -1.031  76.840 112.805  0.00  0.00    -0.241 OA
ATOM     24  O   LIG d   1      -1.414  78.493 114.142  0.00  0.00    -0.241 OA
ENDBRANCH   3  22
TORSDOF 7
ENDMDL
MODEL 3
REMARK VINA RESULT:      -4.8      2.654      5.138
REMARK  7 active torsions:
REMARK  status: ('A' for Active; 'I' for Inactive)
REMARK    1  A    between atoms: C_2  and  C_3 
REMARK    2  A    between atoms: C_3  and  O_6 
REMARK    3  A    between atoms: C_3  and  C_4 
REMARK    4  A    between atoms: C_7  and  O_6 
REMARK    5  A    between atoms: C_9  and  C_10 
REMARK    6  A    between atoms: N_15  and  C_14 
REMARK    7  A    between atoms: N_20  and  C_19 
REMARK       I    between atoms: C_22  and  N_20 
ROOT
ATOM      1  C   LIG d   1      -3.442  75.204 115.690  0.00  0.00     0.161 C 
ATOM      2  C   LIG d   1      -2.892  76.483 115.506  0.00  0.00     0.016 C 
ATOM      3  C   LIG d   1      -3.657  77.672 115.542  0.00  0.00     0.038 C 
ATOM      4  C   LIG d   1      -5.008  77.673 115.916  0.00  0.00     0.028 C 
ATOM      5  C   LIG d   1      -5.721  76.358 115.617  0.00  0.00    -0.047 C 
ATOM      6  C   LIG d   1      -4.895  75.193 116.209  0.00  0.00     0.091 C 
ENDROOT
BRANCH   1   7
ATOM      7  O   LIG d   1      -2.594  74.427 116.558  0.00  0.00    -0.368 OA
BRANCH   7   8
ATOM      8  C   LIG d   1      -1.424  75.105 117.080  0.00  0.00     0.119 C 
BRANCH   8   9
ATOM      9  C   LIG d   1      -0.191  74.515 116.370  0.00  0.00     0.028 C 
ATOM     10  C   LIG d   1       0.565  75.564 115.537  0.00  0.00     0.006 C 
ENDBRANCH   8   9
BRANCH   8  11
ATOM     11  C   LIG d   1      -1.221  74.800 118.567  0.00  0.00     0.028 C 
ATOM     12  C   LIG d   1      -0.483  73.473 118.807  0.00  0.00     0.006 C 
ENDBRANCH   8  11
ENDBRANCH   7   8
ENDBRANCH   1   7
BRANCH   6  13
ATOM     13  N   LIG d   1      -5.478  73.864 115.889  0.00  0.00    -0.311 N 
ATOM     14  C   LIG d   1      -6.369  73.249 116.663  0.00  0.00     0.210 C 
ATOM     15  C   LIG d   1      -6.826  71.876 116.158  0.00  0.00     0.109 C 
ATOM     16  O   LIG d   1      -6.849  73.722 117.704  0.00  0.00    -0.276 OA
ATOM     17  H   LIG d   1      -5.167  73.422 115.046  0.00  0.00     0.149 HD
ENDBRANCH   6  13
BRANCH   5  18
ATOM     18  N   LIG d   1      -7.080  76.449 116.181  0.00  0.00     0.381 N 
ATOM     19  H   LIG d   1      -7.051  76.268 117.165  0.00  0.00    -0.090 HD
ATOM     20  H   LIG d   1      -7.659  75.750 115.749  0.00  0.00    -0.090 HD
ATOM     21  H   LIG d   1      -7.459  77.355 116.014  0.00  0.00    -0.090 HD
ENDBRANCH   5  18
BRANCH   3  22
ATOM     22  C   LIG d   1      -3.078  78.873 115.161  0.00  0.00     0.382 C 
ATOM     23  O   LIG d   1      -3.457  79.447 114.112  0.00  0.00    -0.241 OA
ATOM     24  O   LIG d   1      -2.151  79.368 115.830  0.00  0.00    -0.241 OA
ENDBRANCH   3  22
TORSDOF 7
ENDMDL
MODEL 4
REMARK VINA RESULT:      -4.7     13.478     15.418
REMARK  7 active torsions:
REMARK  status: ('A' for Active; 'I' for Inactive)
REMARK    1  A    between atoms: C_2  and  C_3 
REMARK    2  A    between atoms: C_3  and  O_6 
REMARK    3  A    between atoms: C_3  and  C_4 
REMARK    4  A    between atoms: C_7  and  O_6 
REMARK    5  A    between atoms: C_9  and  C_10 
REMARK    6  A    between atoms: N_15  and  C_14 
REMARK    7  A    between atoms: N_20  and  C_19 
REMARK       I    between atoms: C_22  and  N_20 
ROOT
ATOM      1  C   LIG d   1       4.833  87.662 116.461  0.00  0.00     0.161 C 
ATOM      2  C   LIG d   1       4.102  88.858 116.545  0.00  0.00     0.016 C 
ATOM      3  C   LIG d   1       4.672  90.093 116.933  0.00  0.00     0.038 C 
ATOM      4  C   LIG d   1       6.055  90.245 117.119  0.00  0.00     0.028 C 
ATOM      5  C   LIG d   1       6.756  88.957 117.536  0.00  0.00    -0.047 C 
ATOM      6  C   LIG d   1       6.364  87.831 116.552  0.00  0.00     0.091 C 
ENDROOT
BRANCH   1   7
ATOM      7  O   LIG d   1       4.478  86.956 115.255  0.00  0.00    -0.368 OA
BRANCH   7   8
ATOM      8  C   LIG d   1       3.603  87.660 114.339  0.00  0.00     0.119 C 
BRANCH   8   9
ATOM      9  C   LIG d   1       2.441  86.711 113.987  0.00  0.00     0.028 C 
ATOM     10  C   LIG d   1       2.926  85.294 113.636  0.00  0.00     0.006 C 
ENDBRANCH   8   9
BRANCH   8  11
ATOM     11  C   LIG d   1       4.307  87.951 113.010  0.00  0.00     0.028 C 
ATOM     12  C   LIG d   1       5.444  88.975 113.149  0.00  0.00     0.006 C 
ENDBRANCH   8  11
ENDBRANCH   7   8
ENDBRANCH   1   7
BRANCH   6  13
ATOM     13  N   LIG d   1       6.940  86.516 116.936  0.00  0.00    -0.311 N 
ATOM     14  C   LIG d   1       8.114  86.072 116.492  0.00  0.00     0.210 C 
ATOM     15  C   LIG d   1       8.512  84.681 116.996  0.00  0.00     0.109 C 
ATOM     16  O   LIG d   1       8.879  86.711 115.753  0.00  0.00    -0.276 OA
ATOM     17  H   LIG d   1       6.400  85.946 117.557  0.00  0.00     0.149 HD
ENDBRANCH   6  13
BRANCH   5  18
ATOM     18  N   LIG d   1       8.206  89.226 117.560  0.00  0.00     0.381 N 
ATOM     19  H   LIG d   1       8.394  90.106 117.124  0.00  0.00    -0.090 HD
ATOM     20  H   LIG d   1       8.678  88.508 117.038  0.00  0.00    -0.090 HD
ATOM     21  H   LIG d   1       8.536  89.235 118.500  0.00  0.00    -0.090 HD
ENDBRANCH   5  18
BRANCH   3  22
ATOM     22  C   LIG d   1       3.851  91.182 117.179  0.00  0.00     0.382 C 
ATOM     23  O   LIG d   1       2.618  91.014 117.340  0.00  0.00    -0.241 OA
ATOM     24  O   LIG d   1       4.320  92.336 117.196  0.00  0.00    -0.241 OA
ENDBRANCH   3  22
TORSDOF 7
ENDMDL
MODEL 5
REMARK VINA RESULT:      -4.6      2.448      3.684
REMARK  7 active torsions:
REMARK  status: ('A' for Active; 'I' for Inactive)
REMARK    1  A    between atoms: C_2  and  C_3 
REMARK    2  A    between atoms: C_3  and  O_6 
REMARK    3  A    between atoms: C_3  and  C_4 
REMARK    4  A    between atoms: C_7  and  O_6 
REMARK    5  A    between atoms: C_9  and  C_10 
REMARK    6  A    between atoms: N_15  and  C_14 
REMARK    7  A    between atoms: N_20  and  C_19 
REMARK       I    between atoms: C_22  and  N_20 
ROOT
ATOM      1  C   LIG d   1      -3.039  76.795 115.799  0.00  0.00     0.161 C 
ATOM      2  C   LIG d   1      -3.179  77.783 114.810  0.00  0.00     0.016 C 
ATOM      3  C   LIG d   1      -2.103  78.257 114.026  0.00  0.00     0.038 C 
ATOM      4  C   LIG d   1      -0.832  77.664 114.073  0.00  0.00     0.028 C 
ATOM      5  C   LIG d   1      -0.521  77.005 115.413  0.00  0.00    -0.047 C 
ATOM      6  C   LIG d   1      -1.683  76.057 115.788  0.00  0.00     0.091 C 
ENDROOT
BRANCH   1   7
ATOM      7  O   LIG d   1      -4.123  75.850 115.703  0.00  0.00    -0.368 OA
BRANCH   7   8
ATOM      8  C   LIG d   1      -5.442  76.360 116.023  0.00  0.00     0.119 C 
BRANCH   8   9
ATOM      9  C   LIG d   1      -6.031  75.459 117.126  0.00  0.00     0.028 C 
ATOM     10  C   LIG d   1      -6.396  74.058 116.606  0.00  0.00     0.006 C 
ENDBRANCH   8   9
BRANCH   8  11
ATOM     11  C   LIG d   1      -6.396  76.221 114.833  0.00  0.00     0.028 C 
ATOM     12  C   LIG d   1      -5.706  75.666 113.577  0.00  0.00     0.006 C 
ENDBRANCH   8  11
ENDBRANCH   7   8
ENDBRANCH   1   7
BRANCH   6  13
ATOM     13  N   LIG d   1      -1.499  75.436 117.125  0.00  0.00    -0.311 N 
ATOM     14  C   LIG d   1      -0.837  74.296 117.319  0.00  0.00     0.210 C 
ATOM     15  C   LIG d   1      -0.781  73.820 118.774  0.00  0.00     0.109 C 
ATOM     16  O   LIG d   1      -0.262  73.652 116.429  0.00  0.00    -0.276 OA
ATOM     17  H   LIG d   1      -1.906  75.909 117.908  0.00  0.00     0.149 HD
ENDBRANCH   6  13
BRANCH   5  18
ATOM     18  N   LIG d   1       0.772  76.310 115.278  0.00  0.00     0.381 N 
ATOM     19  H   LIG d   1       1.363  76.813 114.647  0.00  0.00    -0.090 HD
ATOM     20  H   LIG d   1       0.611  75.394 114.897  0.00  0.00    -0.090 HD
ATOM     21  H   LIG d   1       1.213  76.234 116.168  0.00  0.00    -0.090 HD
ENDBRANCH   5  18
BRANCH   3  22
ATOM     22  C   LIG d   1      -2.282  79.364 113.210  0.00  0.00     0.382 C 
ATOM     23  O   LIG d   1      -3.431  79.665 112.805  0.00  0.00    -0.241 OA
ATOM     24  O   LIG d   1      -1.305  80.041 112.839  0.00  0.00    -0.241 OA
ENDBRANCH   3  22
TORSDOF 7
ENDMDL
MODEL 6
REMARK VINA RESULT:      -4.5      2.167      4.792
REMARK  7 active torsions:
REMARK  status: ('A' for Active; 'I' for Inactive)
REMARK    1  A    between atoms: C_2  and  C_3 
REMARK    2  A    between atoms: C_3  and  O_6 
REMARK    3  A    between atoms: C_3  and  C_4 
REMARK    4  A    between atoms: C_7  and  O_6 
REMARK    5  A    between atoms: C_9  and  C_10 
REMARK    6  A    between atoms: N_15  and  C_14 
REMARK    7  A    between atoms: N_20  and  C_19 
REMARK       I    between atoms: C_22  and  N_20 
ROOT
ATOM      1  C   LIG d   1      -3.553  75.174 116.325  0.00  0.00     0.161 C 
ATOM      2  C   LIG d   1      -4.377  74.042 116.204  0.00  0.00     0.016 C 
ATOM      3  C   LIG d   1      -5.790  74.105 116.195  0.00  0.00     0.038 C 
ATOM      4  C   LIG d   1      -6.477  75.328 116.155  0.00  0.00     0.028 C 
ATOM      5  C   LIG d   1      -5.701  76.480 116.784  0.00  0.00    -0.047 C 
ATOM      6  C   LIG d   1      -4.283  76.525 116.170  0.00  0.00     0.091 C 
ENDROOT
BRANCH   1   7
ATOM      7  O   LIG d   1      -2.461  75.085 115.389  0.00  0.00    -0.368 OA
BRANCH   7   8
ATOM      8  C   LIG d   1      -1.142  75.366 115.921  0.00  0.00     0.119 C 
BRANCH   8   9
ATOM      9  C   LIG d   1      -0.332  76.056 114.806  0.00  0.00     0.028 C 
ATOM     10  C   LIG d   1      -1.207  76.949 113.911  0.00  0.00     0.006 C 
ENDBRANCH   8   9
BRANCH   8  11
ATOM     11  C   LIG d   1      -0.381  74.075 116.235  0.00  0.00     0.028 C 
ATOM     12  C   LIG d   1      -0.337  73.760 117.739  0.00  0.00     0.006 C 
ENDBRANCH   8  11
ENDBRANCH   7   8
ENDBRANCH   1   7
BRANCH   6  13
ATOM     13  N   LIG d   1      -3.429  77.571 116.790  0.00  0.00    -0.311 N 
ATOM     14  C   LIG d   1      -3.243  78.777 116.256  0.00  0.00     0.210 C 
ATOM     15  C   LIG d   1      -2.309  79.697 117.048  0.00  0.00     0.109 C 
ATOM     16  O   LIG d   1      -3.787  79.182 115.218  0.00  0.00    -0.276 OA
ATOM     17  H   LIG d   1      -2.974  77.337 117.651  0.00  0.00     0.149 HD
ENDBRANCH   6  13
BRANCH   5  18
ATOM     18  N   LIG d   1      -6.472  77.716 116.550  0.00  0.00     0.381 N 
ATOM     19  H   LIG d   1      -5.875  78.512 116.656  0.00  0.00    -0.090 HD
ATOM     20  H   LIG d   1      -7.204  77.777 117.235  0.00  0.00    -0.090 HD
ATOM     21  H   LIG d   1      -6.863  77.706 115.634  0.00  0.00    -0.090 HD
ENDBRANCH   5  18
BRANCH   3  22
ATOM     22  C   LIG d   1      -6.530  72.935 116.268  0.00  0.00     0.382 C 
ATOM     23  O   LIG d   1      -6.164  71.921 115.626  0.00  0.00    -0.241 OA
ATOM     24  O   LIG d   1      -7.584  72.895 116.930  0.00  0.00    -0.241 OA
ENDBRANCH   3  22
TORSDOF 7
ENDMDL
MODEL 7
REMARK VINA RESULT:      -4.3     20.285     23.027
REMARK  7 active torsions:
REMARK  status: ('A' for Active; 'I' for Inactive)
REMARK    1  A    between atoms: C_2  and  C_3 
REMARK    2  A    between atoms: C_3  and  O_6 
REMARK    3  A    between atoms: C_3  and  C_4 
REMARK    4  A    between atoms: C_7  and  O_6 
REMARK    5  A    between atoms: C_9  and  C_10 
REMARK    6  A    between atoms: N_15  and  C_14 
REMARK    7  A    between atoms: N_20  and  C_19 
REMARK       I    between atoms: C_22  and  N_20 
ROOT
ATOM      1  C   LIG d   1     -24.909  85.124 116.327  0.00  0.00     0.161 C 
ATOM      2  C   LIG d   1     -23.741  85.076 115.547  0.00  0.00     0.016 C 
ATOM      3  C   LIG d   1     -23.443  86.015 114.533  0.00  0.00     0.038 C 
ATOM      4  C   LIG d   1     -24.227  87.161 114.331  0.00  0.00     0.028 C 
ATOM      5  C   LIG d   1     -25.681  86.983 114.753  0.00  0.00    -0.047 C 
ATOM      6  C   LIG d   1     -25.721  86.429 116.196  0.00  0.00     0.091 C 
ENDROOT
BRANCH   1   7
ATOM      7  O   LIG d   1     -24.585  84.872 117.708  0.00  0.00    -0.368 OA
BRANCH   7   8
ATOM      8  C   LIG d   1     -23.289  85.342 118.155  0.00  0.00     0.119 C 
BRANCH   8   9
ATOM      9  C   LIG d   1     -22.685  84.247 119.055  0.00  0.00     0.028 C 
ATOM     10  C   LIG d   1     -22.287  82.990 118.263  0.00  0.00     0.006 C 
ENDBRANCH   8   9
BRANCH   8  11
ATOM     11  C   LIG d   1     -23.423  86.576 119.052  0.00  0.00     0.028 C 
ATOM     12  C   LIG d   1     -22.073  87.247 119.348  0.00  0.00     0.006 C 
ENDBRANCH   8  11
ENDBRANCH   7   8
ENDBRANCH   1   7
BRANCH   6  13
ATOM     13  N   LIG d   1     -27.105  86.146 116.656  0.00  0.00    -0.311 N 
ATOM     14  C   LIG d   1     -27.832  87.008 117.367  0.00  0.00     0.210 C 
ATOM     15  C   LIG d   1     -29.227  86.509 117.756  0.00  0.00     0.109 C 
ATOM     16  O   LIG d   1     -27.465  88.149 117.683  0.00  0.00    -0.276 OA
ATOM     17  H   LIG d   1     -27.492  85.255 116.417  0.00  0.00     0.149 HD
ENDBRANCH   6  13
BRANCH   5  18
ATOM     18  N   LIG d   1     -26.348  88.291 114.617  0.00  0.00     0.381 N 
ATOM     19  H   LIG d   1     -26.897  88.478 115.432  0.00  0.00    -0.090 HD
ATOM     20  H   LIG d   1     -26.963  88.262 113.823  0.00  0.00    -0.090 HD
ATOM     21  H   LIG d   1     -25.668  89.009 114.494  0.00  0.00    -0.090 HD
ENDBRANCH   5  18
BRANCH   3  22
ATOM     22  C   LIG d   1     -22.372  85.790 113.682  0.00  0.00     0.382 C 
ATOM     23  O   LIG d   1     -21.528  86.697 113.484  0.00  0.00    -0.241 OA
ATOM     24  O   LIG d   1     -22.264  84.708 113.075  0.00  0.00    -0.241 OA
ENDBRANCH   3  22
TORSDOF 7
ENDMDL
MODEL 8
REMARK VINA RESULT:      -4.3     20.102     21.358
REMARK  7 active torsions:
REMARK  status: ('A' for Active; 'I' for Inactive)
REMARK    1  A    between atoms: C_2  and  C_3 
REMARK    2  A    between atoms: C_3  and  O_6 
REMARK    3  A    between atoms: C_3  and  C_4 
REMARK    4  A    between atoms: C_7  and  O_6 
REMARK    5  A    between atoms: C_9  and  C_10 
REMARK    6  A    between atoms: N_15  and  C_14 
REMARK    7  A    between atoms: N_20  and  C_19 
REMARK       I    between atoms: C_22  and  N_20 
ROOT
ATOM      1  C   LIG d   1     -22.786  83.440 115.897  0.00  0.00     0.161 C 
ATOM      2  C   LIG d   1     -22.377  84.752 115.606  0.00  0.00     0.016 C 
ATOM      3  C   LIG d   1     -22.950  85.535 114.578  0.00  0.00     0.038 C 
ATOM      4  C   LIG d   1     -24.080  85.111 113.864  0.00  0.00     0.028 C 
ATOM      5  C   LIG d   1     -24.209  83.593 113.780  0.00  0.00    -0.047 C 
ATOM      6  C   LIG d   1     -24.092  83.000 115.203  0.00  0.00     0.091 C 
ENDROOT
BRANCH   1   7
ATOM      7  O   LIG d   1     -22.894  83.267 117.324  0.00  0.00    -0.368 OA
BRANCH   7   8
ATOM      8  C   LIG d   1     -23.941  84.024 117.980  0.00  0.00     0.119 C 
BRANCH   8   9
ATOM      9  C   LIG d   1     -23.294  84.786 119.153  0.00  0.00     0.028 C 
ATOM     10  C   LIG d   1     -23.014  86.259 118.811  0.00  0.00     0.006 C 
ENDBRANCH   8   9
BRANCH   8  11
ATOM     11  C   LIG d   1     -24.979  83.099 118.621  0.00  0.00     0.028 C 
ATOM     12  C   LIG d   1     -24.419  81.703 118.940  0.00  0.00     0.006 C 
ENDBRANCH   8  11
ENDBRANCH   7   8
ENDBRANCH   1   7
BRANCH   6  13
ATOM     13  N   LIG d   1     -24.124  81.515 115.202  0.00  0.00    -0.311 N 
ATOM     14  C   LIG d   1     -25.232  80.804 115.407  0.00  0.00     0.210 C 
ATOM     15  C   LIG d   1     -25.039  79.285 115.385  0.00  0.00     0.109 C 
ATOM     16  O   LIG d   1     -26.361  81.288 115.573  0.00  0.00    -0.276 OA
ATOM     17  H   LIG d   1     -23.256  81.040 115.043  0.00  0.00     0.149 HD
ENDBRANCH   6  13
BRANCH   5  18
ATOM     18  N   LIG d   1     -25.499  83.291 113.131  0.00  0.00     0.381 N 
ATOM     19  H   LIG d   1     -25.338  82.885 112.231  0.00  0.00    -0.090 HD
ATOM     20  H   LIG d   1     -26.008  84.148 113.004  0.00  0.00    -0.090 HD
ATOM     21  H   LIG d   1     -26.026  82.663 113.698  0.00  0.00    -0.090 HD
ENDBRANCH   5  18
BRANCH   3  22
ATOM     22  C   LIG d   1     -22.365  86.742 114.227  0.00  0.00     0.382 C 
ATOM     23  O   LIG d   1     -21.440  86.768 113.379  0.00  0.00    -0.241 OA
ATOM     24  O   LIG d   1     -22.719  87.801 114.780  0.00  0.00    -0.241 OA
ENDBRANCH   3  22
TORSDOF 7
ENDMDL
MODEL 9
REMARK VINA RESULT:      -4.3     20.592     22.390
REMARK  7 active torsions:
REMARK  status: ('A' for Active; 'I' for Inactive)
REMARK    1  A    between atoms: C_2  and  C_3 
REMARK    2  A    between atoms: C_3  and  O_6 
REMARK    3  A    between atoms: C_3  and  C_4 
REMARK    4  A    between atoms: C_7  and  O_6 
REMARK    5  A    between atoms: C_9  and  C_10 
REMARK    6  A    between atoms: N_15  and  C_14 
REMARK    7  A    between atoms: N_20  and  C_19 
REMARK       I    between atoms: C_22  and  N_20 
ROOT
ATOM      1  C   LIG d   1     -24.143  83.663 113.801  0.00  0.00     0.161 C 
ATOM      2  C   LIG d   1     -23.142  84.633 113.979  0.00  0.00     0.016 C 
ATOM      3  C   LIG d   1     -23.415  86.008 114.159  0.00  0.00     0.038 C 
ATOM      4  C   LIG d   1     -24.722  86.490 114.324  0.00  0.00     0.028 C 
ATOM      5  C   LIG d   1     -25.778  85.621 113.648  0.00  0.00    -0.047 C 
ATOM      6  C   LIG d   1     -25.578  84.153 114.089  0.00  0.00     0.091 C 
ENDROOT
BRANCH   1   7
ATOM      7  O   LIG d   1     -23.843  82.498 114.595  0.00  0.00    -0.368 OA
BRANCH   7   8
ATOM      8  C   LIG d   1     -24.384  82.486 115.939  0.00  0.00     0.119 C 
BRANCH   8   9
ATOM      9  C   LIG d   1     -23.206  82.676 116.914  0.00  0.00     0.028 C 
ATOM     10  C   LIG d   1     -23.246  84.040 117.624  0.00  0.00     0.006 C 
ENDBRANCH   8   9
BRANCH   8  11
ATOM     11  C   LIG d   1     -24.982  81.120 116.286  0.00  0.00     0.028 C 
ATOM     12  C   LIG d   1     -24.943  80.135 115.107  0.00  0.00     0.006 C 
ENDBRANCH   8  11
ENDBRANCH   7   8
ENDBRANCH   1   7
BRANCH   6  13
ATOM     13  N   LIG d   1     -26.516  83.224 113.408  0.00  0.00    -0.311 N 
ATOM     14  C   LIG d   1     -27.649  82.792 113.958  0.00  0.00     0.210 C 
ATOM     15  C   LIG d   1     -28.461  81.823 113.093  0.00  0.00     0.109 C 
ATOM     16  O   LIG d   1     -28.075  83.144 115.068  0.00  0.00    -0.276 OA
ATOM     17  H   LIG d   1     -26.263  82.912 112.490  0.00  0.00     0.149 HD
ENDBRANCH   6  13
BRANCH   5  18
ATOM     18  N   LIG d   1     -27.101  86.160 114.015  0.00  0.00     0.381 N 
ATOM     19  H   LIG d   1     -27.254  87.030 113.545  0.00  0.00    -0.090 HD
ATOM     20  H   LIG d   1     -27.120  86.329 115.005  0.00  0.00    -0.090 HD
ATOM     21  H   LIG d   1     -27.814  85.510 113.768  0.00  0.00    -0.090 HD
ENDBRANCH   5  18
BRANCH   3  22
ATOM     22  C   LIG d   1     -22.374  86.924 114.135  0.00  0.00     0.382 C 
ATOM     23  O   LIG d   1     -21.387  86.731 113.386  0.00  0.00    -0.241 OA
ATOM     24  O   LIG d   1     -22.390  87.918 114.886  0.00  0.00    -0.241 OA
ENDBRANCH   3  22
TORSDOF 7
ENDMDL
