MODEL 1
REMARK VINA RESULT:      -5.7      0.000      0.000
REMARK  7 active torsions:
REMARK  status: ('A' for Active; 'I' for Inactive)
REMARK    1  A    between atoms: C_2  and  C_3 
REMARK    2  A    between atoms: C_3  and  O_6 
REMARK    3  A    between atoms: C_3  and  C_4 
REMARK    4  A    between atoms: C_7  and  O_6 
REMARK    5  A    between atoms: C_9  and  C_10 
REMARK    6  A    between atoms: N_15  and  C_14 
REMARK    7  A    between atoms: N_20  and  C_19 
REMARK       I    between atoms: C_22  and  N_20 
ROOT
ATOM      1  C   LIG d   1      -8.829  74.493 117.694  0.00  0.00     0.161 C 
ATOM      2  C   LIG d   1     -10.233  74.545 117.684  0.00  0.00     0.016 C 
ATOM      3  C   LIG d   1     -10.975  75.631 118.203  0.00  0.00     0.038 C 
ATOM      4  C   LIG d   1     -10.356  76.814 118.632  0.00  0.00     0.028 C 
ATOM      5  C   LIG d   1      -8.929  76.606 119.127  0.00  0.00    -0.047 C 
ATOM      6  C   LIG d   1      -8.135  75.822 118.056  0.00  0.00     0.091 C 
ENDROOT
BRANCH   1   7
ATOM      7  O   LIG d   1      -8.350  74.007 116.424  0.00  0.00    -0.368 OA
BRANCH   7   8
ATOM      8  C   LIG d   1      -7.316  72.994 116.479  0.00  0.00     0.119 C 
BRANCH   8   9
ATOM      9  C   LIG d   1      -6.142  73.483 115.608  0.00  0.00     0.028 C 
ATOM     10  C   LIG d   1      -6.503  74.731 114.785  0.00  0.00     0.006 C 
ENDBRANCH   8   9
BRANCH   8  11
ATOM     11  C   LIG d   1      -7.783  71.686 115.833  0.00  0.00     0.028 C 
ATOM     12  C   LIG d   1      -9.056  71.122 116.483  0.00  0.00     0.006 C 
ENDBRANCH   8  11
ENDBRANCH   7   8
ENDBRANCH   1   7
BRANCH   6  13
ATOM     13  N   LIG d   1      -6.752  75.502 118.497  0.00  0.00    -0.311 N 
ATOM     14  C   LIG d   1      -5.687  76.223 118.150  0.00  0.00     0.210 C 
ATOM     15  C   LIG d   1      -4.352  75.708 118.696  0.00  0.00     0.109 C 
ATOM     16  O   LIG d   1      -5.726  77.258 117.468  0.00  0.00    -0.276 OA
ATOM     17  H   LIG d   1      -6.634  74.696 119.078  0.00  0.00     0.149 HD
ENDBRANCH   6  13
BRANCH   5  18
ATOM     18  N   LIG d   1      -8.357  77.936 119.412  0.00  0.00     0.381 N 
ATOM     19  H   LIG d   1      -7.360  77.873 119.458  0.00  0.00    -0.090 HD
ATOM     20  H   LIG d   1      -8.695  78.250 120.304  0.00  0.00    -0.090 HD
ATOM     21  H   LIG d   1      -8.624  78.581 118.701  0.00  0.00    -0.090 HD
ENDBRANCH   5  18
BRANCH   3  22
ATOM     22  C   LIG d   1     -12.351  75.523 118.333  0.00  0.00     0.382 C 
ATOM     23  O   LIG d   1     -12.951  74.531 117.853  0.00  0.00    -0.241 OA
ATOM     24  O   LIG d   1     -13.006  76.428 118.885  0.00  0.00    -0.241 OA
ENDBRANCH   3  22
TORSDOF 7
ENDMDL
MODEL 2
REMARK VINA RESULT:      -5.6      0.770      1.898
REMARK  7 active torsions:
REMARK  status: ('A' for Active; 'I' for Inactive)
REMARK    1  A    between atoms: C_2  and  C_3 
REMARK    2  A    between atoms: C_3  and  O_6 
REMARK    3  A    between atoms: C_3  and  C_4 
REMARK    4  A    between atoms: C_7  and  O_6 
REMARK    5  A    between atoms: C_9  and  C_10 
REMARK    6  A    between atoms: N_15  and  C_14 
REMARK    7  A    between atoms: N_20  and  C_19 
REMARK       I    between atoms: C_22  and  N_20 
ROOT
ATOM      1  C   LIG d   1      -8.612  75.094 117.166  0.00  0.00     0.161 C 
ATOM      2  C   LIG d   1     -10.003  74.915 117.250  0.00  0.00     0.016 C 
ATOM      3  C   LIG d   1     -10.847  75.736 118.033  0.00  0.00     0.038 C 
ATOM      4  C   LIG d   1     -10.373  76.893 118.670  0.00  0.00     0.028 C 
ATOM      5  C   LIG d   1      -8.891  76.826 119.024  0.00  0.00    -0.047 C 
ATOM      6  C   LIG d   1      -8.092  76.418 117.765  0.00  0.00     0.091 C 
ENDROOT
BRANCH   1   7
ATOM      7  O   LIG d   1      -8.185  74.962 115.796  0.00  0.00    -0.368 OA
BRANCH   7   8
ATOM      8  C   LIG d   1      -7.373  73.802 115.490  0.00  0.00     0.119 C 
BRANCH   8   9
ATOM      9  C   LIG d   1      -7.498  72.824 116.674  0.00  0.00     0.028 C 
ATOM     10  C   LIG d   1      -8.009  71.440 116.241  0.00  0.00     0.006 C 
ENDBRANCH   8   9
BRANCH   8  11
ATOM     11  C   LIG d   1      -5.887  74.165 115.419  0.00  0.00     0.028 C 
ATOM     12  C   LIG d   1      -5.618  75.412 114.562  0.00  0.00     0.006 C 
ENDBRANCH   8  11
ENDBRANCH   7   8
ENDBRANCH   1   7
BRANCH   6  13
ATOM     13  N   LIG d   1      -6.643  76.247 118.044  0.00  0.00    -0.311 N 
ATOM     14  C   LIG d   1      -5.731  77.183 117.787  0.00  0.00     0.210 C 
ATOM     15  C   LIG d   1      -4.290  76.795 118.133  0.00  0.00     0.109 C 
ATOM     16  O   LIG d   1      -5.983  78.311 117.337  0.00  0.00    -0.276 OA
ATOM     17  H   LIG d   1      -6.354  75.373 118.439  0.00  0.00     0.149 HD
ENDBRANCH   6  13
BRANCH   5  18
ATOM     18  N   LIG d   1      -8.499  78.145 119.554  0.00  0.00     0.381 N 
ATOM     19  H   LIG d   1      -8.432  78.805 118.805  0.00  0.00    -0.090 HD
ATOM     20  H   LIG d   1      -7.596  78.067 119.987  0.00  0.00    -0.090 HD
ATOM     21  H   LIG d   1      -9.169  78.457 120.222  0.00  0.00    -0.090 HD
ENDBRANCH   5  18
BRANCH   3  22
ATOM     22  C   LIG d   1     -12.174  75.380 118.217  0.00  0.00     0.382 C 
ATOM     23  O   LIG d   1     -12.566  74.233 117.893  0.00  0.00    -0.241 OA
ATOM     24  O   LIG d   1     -12.994  76.205 118.663  0.00  0.00    -0.241 OA
ENDBRANCH   3  22
TORSDOF 7
ENDMDL
MODEL 3
REMARK VINA RESULT:      -5.5      2.330      4.154
REMARK  7 active torsions:
REMARK  status: ('A' for Active; 'I' for Inactive)
REMARK    1  A    between atoms: C_2  and  C_3 
REMARK    2  A    between atoms: C_3  and  O_6 
REMARK    3  A    between atoms: C_3  and  C_4 
REMARK    4  A    between atoms: C_7  and  O_6 
REMARK    5  A    between atoms: C_9  and  C_10 
REMARK    6  A    between atoms: N_15  and  C_14 
REMARK    7  A    between atoms: N_20  and  C_19 
REMARK       I    between atoms: C_22  and  N_20 
ROOT
ATOM      1  C   LIG d   1      -8.176  75.324 117.492  0.00  0.00     0.161 C 
ATOM      2  C   LIG d   1      -8.240  76.656 117.933  0.00  0.00     0.016 C 
ATOM      3  C   LIG d   1      -9.426  77.264 118.406  0.00  0.00     0.038 C 
ATOM      4  C   LIG d   1     -10.603  76.530 118.613  0.00  0.00     0.028 C 
ATOM      5  C   LIG d   1     -10.722  75.308 117.707  0.00  0.00    -0.047 C 
ATOM      6  C   LIG d   1      -9.424  74.476 117.815  0.00  0.00     0.091 C 
ENDROOT
BRANCH   1   7
ATOM      7  O   LIG d   1      -6.992  74.692 118.017  0.00  0.00    -0.368 OA
BRANCH   7   8
ATOM      8  C   LIG d   1      -5.849  74.641 117.127  0.00  0.00     0.119 C 
BRANCH   8   9
ATOM      9  C   LIG d   1      -6.245  73.778 115.913  0.00  0.00     0.028 C 
ATOM     10  C   LIG d   1      -6.064  74.522 114.580  0.00  0.00     0.006 C 
ENDBRANCH   8   9
BRANCH   8  11
ATOM     11  C   LIG d   1      -4.669  73.912 117.776  0.00  0.00     0.028 C 
ATOM     12  C   LIG d   1      -3.326  74.237 117.105  0.00  0.00     0.006 C 
ENDBRANCH   8  11
ENDBRANCH   7   8
ENDBRANCH   1   7
BRANCH   6  13
ATOM     13  N   LIG d   1      -9.423  73.307 116.897  0.00  0.00    -0.311 N 
ATOM     14  C   LIG d   1      -9.392  72.044 117.318  0.00  0.00     0.210 C 
ATOM     15  C   LIG d   1      -9.376  70.991 116.206  0.00  0.00     0.109 C 
ATOM     16  O   LIG d   1      -9.408  71.695 118.508  0.00  0.00    -0.276 OA
ATOM     17  H   LIG d   1      -9.440  73.498 115.914  0.00  0.00     0.149 HD
ENDBRANCH   6  13
BRANCH   5  18
ATOM     18  N   LIG d   1     -11.924  74.561 118.123  0.00  0.00     0.381 N 
ATOM     19  H   LIG d   1     -12.065  74.666 119.108  0.00  0.00    -0.090 HD
ATOM     20  H   LIG d   1     -11.785  73.585 117.927  0.00  0.00    -0.090 HD
ATOM     21  H   LIG d   1     -12.722  74.896 117.629  0.00  0.00    -0.090 HD
ENDBRANCH   5  18
BRANCH   3  22
ATOM     22  C   LIG d   1      -9.452  78.630 118.639  0.00  0.00     0.382 C 
ATOM     23  O   LIG d   1     -10.548  79.216 118.812  0.00  0.00    -0.241 OA
ATOM     24  O   LIG d   1      -8.397  79.292 118.635  0.00  0.00    -0.241 OA
ENDBRANCH   3  22
TORSDOF 7
ENDMDL
MODEL 4
REMARK VINA RESULT:      -5.2      1.889      3.801
REMARK  7 active torsions:
REMARK  status: ('A' for Active; 'I' for Inactive)
REMARK    1  A    between atoms: C_2  and  C_3 
REMARK    2  A    between atoms: C_3  and  O_6 
REMARK    3  A    between atoms: C_3  and  C_4 
REMARK    4  A    between atoms: C_7  and  O_6 
REMARK    5  A    between atoms: C_9  and  C_10 
REMARK    6  A    between atoms: N_15  and  C_14 
REMARK    7  A    between atoms: N_20  and  C_19 
REMARK       I    between atoms: C_22  and  N_20 
ROOT
ATOM      1  C   LIG d   1      -8.415  75.383 117.989  0.00  0.00     0.161 C 
ATOM      2  C   LIG d   1      -9.689  75.810 118.400  0.00  0.00     0.016 C 
ATOM      3  C   LIG d   1     -10.870  75.069 118.165  0.00  0.00     0.038 C 
ATOM      4  C   LIG d   1     -10.839  73.771 117.634  0.00  0.00     0.028 C 
ATOM      5  C   LIG d   1      -9.628  73.510 116.744  0.00  0.00    -0.047 C 
ATOM      6  C   LIG d   1      -8.347  73.919 117.507  0.00  0.00     0.091 C 
ENDROOT
BRANCH   1   7
ATOM      7  O   LIG d   1      -7.461  75.607 119.046  0.00  0.00    -0.368 OA
BRANCH   7   8
ATOM      8  C   LIG d   1      -6.550  76.718 118.857  0.00  0.00     0.119 C 
BRANCH   8   9
ATOM      9  C   LIG d   1      -7.114  77.591 117.719  0.00  0.00     0.028 C 
ATOM     10  C   LIG d   1      -7.324  79.053 118.149  0.00  0.00     0.006 C 
ENDBRANCH   8   9
BRANCH   8  11
ATOM     11  C   LIG d   1      -5.182  76.240 118.362  0.00  0.00     0.028 C 
ATOM     12  C   LIG d   1      -4.686  74.987 119.100  0.00  0.00     0.006 C 
ENDBRANCH   8  11
ENDBRANCH   7   8
ENDBRANCH   1   7
BRANCH   6  13
ATOM     13  N   LIG d   1      -7.123  73.775 116.677  0.00  0.00    -0.311 N 
ATOM     14  C   LIG d   1      -6.925  74.441 115.541  0.00  0.00     0.210 C 
ATOM     15  C   LIG d   1      -5.603  74.131 114.831  0.00  0.00     0.109 C 
ATOM     16  O   LIG d   1      -7.704  75.284 115.070  0.00  0.00    -0.276 OA
ATOM     17  H   LIG d   1      -6.425  73.135 117.001  0.00  0.00     0.149 HD
ENDBRANCH   6  13
BRANCH   5  18
ATOM     18  N   LIG d   1      -9.648  72.084 116.371  0.00  0.00     0.381 N 
ATOM     19  H   LIG d   1      -8.801  71.643 116.670  0.00  0.00    -0.090 HD
ATOM     20  H   LIG d   1      -9.706  72.010 115.370  0.00  0.00    -0.090 HD
ATOM     21  H   LIG d   1     -10.431  71.632 116.790  0.00  0.00    -0.090 HD
ENDBRANCH   5  18
BRANCH   3  22
ATOM     22  C   LIG d   1     -12.105  75.643 118.427  0.00  0.00     0.382 C 
ATOM     23  O   LIG d   1     -13.158  75.038 118.112  0.00  0.00    -0.241 OA
ATOM     24  O   LIG d   1     -12.179  76.779 118.935  0.00  0.00    -0.241 OA
ENDBRANCH   3  22
TORSDOF 7
ENDMDL
MODEL 5
REMARK VINA RESULT:      -5.0      3.218      6.270
REMARK  7 active torsions:
REMARK  status: ('A' for Active; 'I' for Inactive)
REMARK    1  A    between atoms: C_2  and  C_3 
REMARK    2  A    between atoms: C_3  and  O_6 
REMARK    3  A    between atoms: C_3  and  C_4 
REMARK    4  A    between atoms: C_7  and  O_6 
REMARK    5  A    between atoms: C_9  and  C_10 
REMARK    6  A    between atoms: N_15  and  C_14 
REMARK    7  A    between atoms: N_20  and  C_19 
REMARK       I    between atoms: C_22  and  N_20 
ROOT
ATOM      1  C   LIG d   1      -4.815  74.769 116.807  0.00  0.00     0.161 C 
ATOM      2  C   LIG d   1      -3.677  74.199 116.213  0.00  0.00     0.016 C 
ATOM      3  C   LIG d   1      -2.355  74.513 116.603  0.00  0.00     0.038 C 
ATOM      4  C   LIG d   1      -2.083  75.311 117.725  0.00  0.00     0.028 C 
ATOM      5  C   LIG d   1      -3.192  76.309 118.041  0.00  0.00    -0.047 C 
ATOM      6  C   LIG d   1      -4.540  75.556 118.106  0.00  0.00     0.091 C 
ENDROOT
BRANCH   1   7
ATOM      7  O   LIG d   1      -5.807  73.749 117.040  0.00  0.00    -0.368 OA
BRANCH   7   8
ATOM      8  C   LIG d   1      -6.678  73.441 115.924  0.00  0.00     0.119 C 
BRANCH   8   9
ATOM      9  C   LIG d   1      -7.196  74.777 115.358  0.00  0.00     0.028 C 
ATOM     10  C   LIG d   1      -8.531  75.205 115.990  0.00  0.00     0.006 C 
ENDBRANCH   8   9
BRANCH   8  11
ATOM     11  C   LIG d   1      -7.927  72.684 116.385  0.00  0.00     0.028 C 
ATOM     12  C   LIG d   1      -7.865  71.182 116.068  0.00  0.00     0.006 C 
ENDBRANCH   8  11
ENDBRANCH   7   8
ENDBRANCH   1   7
BRANCH   6  13
ATOM     13  N   LIG d   1      -5.690  76.472 118.328  0.00  0.00    -0.311 N 
ATOM     14  C   LIG d   1      -5.976  77.497 117.527  0.00  0.00     0.210 C 
ATOM     15  C   LIG d   1      -7.193  78.327 117.949  0.00  0.00     0.109 C 
ATOM     16  O   LIG d   1      -5.357  77.779 116.491  0.00  0.00    -0.276 OA
ATOM     17  H   LIG d   1      -6.264  76.297 119.129  0.00  0.00     0.149 HD
ENDBRANCH   6  13
BRANCH   5  18
ATOM     18  N   LIG d   1      -2.841  76.977 119.309  0.00  0.00     0.381 N 
ATOM     19  H   LIG d   1      -3.646  77.021 119.902  0.00  0.00    -0.090 HD
ATOM     20  H   LIG d   1      -2.544  77.916 119.110  0.00  0.00    -0.090 HD
ATOM     21  H   LIG d   1      -2.109  76.479 119.766  0.00  0.00    -0.090 HD
ENDBRANCH   5  18
BRANCH   3  22
ATOM     22  C   LIG d   1      -1.288  74.058 115.844  0.00  0.00     0.382 C 
ATOM     23  O   LIG d   1      -0.874  74.738 114.873  0.00  0.00    -0.241 OA
ATOM     24  O   LIG d   1      -0.761  72.956 116.089  0.00  0.00    -0.241 OA
ENDBRANCH   3  22
TORSDOF 7
ENDMDL
MODEL 6
REMARK VINA RESULT:      -4.9      2.621      4.423
REMARK  7 active torsions:
REMARK  status: ('A' for Active; 'I' for Inactive)
REMARK    1  A    between atoms: C_2  and  C_3 
REMARK    2  A    between atoms: C_3  and  O_6 
REMARK    3  A    between atoms: C_3  and  C_4 
REMARK    4  A    between atoms: C_7  and  O_6 
REMARK    5  A    between atoms: C_9  and  C_10 
REMARK    6  A    between atoms: N_15  and  C_14 
REMARK    7  A    between atoms: N_20  and  C_19 
REMARK       I    between atoms: C_22  and  N_20 
ROOT
ATOM      1  C   LIG d   1      -5.938  74.236 116.981  0.00  0.00     0.161 C 
ATOM      2  C   LIG d   1      -6.571  73.084 116.485  0.00  0.00     0.016 C 
ATOM      3  C   LIG d   1      -7.975  72.931 116.426  0.00  0.00     0.038 C 
ATOM      4  C   LIG d   1      -8.849  73.989 116.720  0.00  0.00     0.028 C 
ATOM      5  C   LIG d   1      -8.268  74.999 117.703  0.00  0.00    -0.047 C 
ATOM      6  C   LIG d   1      -6.874  75.443 117.202  0.00  0.00     0.091 C 
ENDROOT
BRANCH   1   7
ATOM      7  O   LIG d   1      -4.844  74.603 116.117  0.00  0.00    -0.368 OA
BRANCH   7   8
ATOM      8  C   LIG d   1      -3.518  74.256 116.586  0.00  0.00     0.119 C 
BRANCH   8   9
ATOM      9  C   LIG d   1      -3.623  73.965 118.096  0.00  0.00     0.028 C 
ATOM     10  C   LIG d   1      -2.879  75.007 118.948  0.00  0.00     0.006 C 
ENDBRANCH   8   9
BRANCH   8  11
ATOM     11  C   LIG d   1      -2.557  75.443 116.468  0.00  0.00     0.028 C 
ATOM     12  C   LIG d   1      -2.909  76.381 115.303  0.00  0.00     0.006 C 
ENDBRANCH   8  11
ENDBRANCH   7   8
ENDBRANCH   1   7
BRANCH   6  13
ATOM     13  N   LIG d   1      -6.199  76.368 118.150  0.00  0.00    -0.311 N 
ATOM     14  C   LIG d   1      -5.665  77.531 117.783  0.00  0.00     0.210 C 
ATOM     15  C   LIG d   1      -5.000  78.322 118.914  0.00  0.00     0.109 C 
ATOM     16  O   LIG d   1      -5.707  77.999 116.635  0.00  0.00    -0.276 OA
ATOM     17  H   LIG d   1      -6.148  76.082 119.108  0.00  0.00     0.149 HD
ENDBRANCH   6  13
BRANCH   5  18
ATOM     18  N   LIG d   1      -9.225  76.116 117.813  0.00  0.00     0.381 N 
ATOM     19  H   LIG d   1      -8.834  76.843 118.377  0.00  0.00    -0.090 HD
ATOM     20  H   LIG d   1     -10.061  75.784 118.262  0.00  0.00    -0.090 HD
ATOM     21  H   LIG d   1      -9.443  76.468 116.907  0.00  0.00    -0.090 HD
ENDBRANCH   5  18
BRANCH   3  22
ATOM     22  C   LIG d   1      -8.519  71.697 116.106  0.00  0.00     0.382 C 
ATOM     23  O   LIG d   1      -9.754  71.507 116.222  0.00  0.00    -0.241 OA
ATOM     24  O   LIG d   1      -7.785  70.757 115.747  0.00  0.00    -0.241 OA
ENDBRANCH   3  22
TORSDOF 7
ENDMDL
MODEL 7
REMARK VINA RESULT:      -4.9     15.192     16.983
REMARK  7 active torsions:
REMARK  status: ('A' for Active; 'I' for Inactive)
REMARK    1  A    between atoms: C_2  and  C_3 
REMARK    2  A    between atoms: C_3  and  O_6 
REMARK    3  A    between atoms: C_3  and  C_4 
REMARK    4  A    between atoms: C_7  and  O_6 
REMARK    5  A    between atoms: C_9  and  C_10 
REMARK    6  A    between atoms: N_15  and  C_14 
REMARK    7  A    between atoms: N_20  and  C_19 
REMARK       I    between atoms: C_22  and  N_20 
ROOT
ATOM      1  C   LIG d   1       0.649  88.599 116.676  0.00  0.00     0.161 C 
ATOM      2  C   LIG d   1      -0.755  88.583 116.674  0.00  0.00     0.016 C 
ATOM      3  C   LIG d   1      -1.546  89.622 117.214  0.00  0.00     0.038 C 
ATOM      4  C   LIG d   1      -0.983  90.827 117.662  0.00  0.00     0.028 C 
ATOM      5  C   LIG d   1       0.455  90.680 118.146  0.00  0.00    -0.047 C 
ATOM      6  C   LIG d   1       1.280  89.954 117.058  0.00  0.00     0.091 C 
ENDROOT
BRANCH   1   7
ATOM      7  O   LIG d   1       1.145  88.160 115.395  0.00  0.00    -0.368 OA
BRANCH   7   8
ATOM      8  C   LIG d   1       1.817  86.876 115.378  0.00  0.00     0.119 C 
BRANCH   8   9
ATOM      9  C   LIG d   1       3.316  87.141 115.137  0.00  0.00     0.028 C 
ATOM     10  C   LIG d   1       3.556  88.314 114.172  0.00  0.00     0.006 C 
ENDBRANCH   8   9
BRANCH   8  11
ATOM     11  C   LIG d   1       1.360  86.024 114.191  0.00  0.00     0.028 C 
ATOM     12  C   LIG d   1       1.929  84.597 114.227  0.00  0.00     0.006 C 
ENDBRANCH   8  11
ENDBRANCH   7   8
ENDBRANCH   1   7
BRANCH   6  13
ATOM     13  N   LIG d   1       2.679  89.695 117.487  0.00  0.00    -0.311 N 
ATOM     14  C   LIG d   1       3.693  90.516 117.218  0.00  0.00     0.210 C 
ATOM     15  C   LIG d   1       5.057  90.049 117.734  0.00  0.00     0.109 C 
ATOM     16  O   LIG d   1       3.586  91.602 116.629  0.00  0.00    -0.276 OA
ATOM     17  H   LIG d   1       2.851  88.851 117.997  0.00  0.00     0.149 HD
ENDBRANCH   6  13
BRANCH   5  18
ATOM     18  N   LIG d   1       0.963  92.030 118.452  0.00  0.00     0.381 N 
ATOM     19  H   LIG d   1       1.448  92.020 119.327  0.00  0.00    -0.090 HD
ATOM     20  H   LIG d   1       0.184  92.660 118.532  0.00  0.00    -0.090 HD
ATOM     21  H   LIG d   1       1.575  92.337 117.728  0.00  0.00    -0.090 HD
ENDBRANCH   5  18
BRANCH   3  22
ATOM     22  C   LIG d   1      -2.915  89.446 117.349  0.00  0.00     0.382 C 
ATOM     23  O   LIG d   1      -3.656  89.496 116.337  0.00  0.00    -0.241 OA
ATOM     24  O   LIG d   1      -3.423  89.281 118.474  0.00  0.00    -0.241 OA
ENDBRANCH   3  22
TORSDOF 7
ENDMDL
MODEL 8
REMARK VINA RESULT:      -4.9      2.253      4.283
REMARK  7 active torsions:
REMARK  status: ('A' for Active; 'I' for Inactive)
REMARK    1  A    between atoms: C_2  and  C_3 
REMARK    2  A    between atoms: C_3  and  O_6 
REMARK    3  A    between atoms: C_3  and  C_4 
REMARK    4  A    between atoms: C_7  and  O_6 
REMARK    5  A    between atoms: C_9  and  C_10 
REMARK    6  A    between atoms: N_15  and  C_14 
REMARK    7  A    between atoms: N_20  and  C_19 
REMARK       I    between atoms: C_22  and  N_20 
ROOT
ATOM      1  C   LIG d   1      -7.419  75.740 117.668  0.00  0.00     0.161 C 
ATOM      2  C   LIG d   1      -8.793  75.811 117.954  0.00  0.00     0.016 C 
ATOM      3  C   LIG d   1      -9.711  74.789 117.621  0.00  0.00     0.038 C 
ATOM      4  C   LIG d   1      -9.291  73.552 117.111  0.00  0.00     0.028 C 
ATOM      5  C   LIG d   1      -7.977  73.629 116.340  0.00  0.00    -0.047 C 
ATOM      6  C   LIG d   1      -6.925  74.351 117.213  0.00  0.00     0.091 C 
ENDROOT
BRANCH   1   7
ATOM      7  O   LIG d   1      -6.659  76.194 118.805  0.00  0.00    -0.368 OA
BRANCH   7   8
ATOM      8  C   LIG d   1      -5.969  77.458 118.647  0.00  0.00     0.119 C 
BRANCH   8   9
ATOM      9  C   LIG d   1      -6.819  78.540 119.341  0.00  0.00     0.028 C 
ATOM     10  C   LIG d   1      -7.587  79.417 118.338  0.00  0.00     0.006 C 
ENDBRANCH   8   9
BRANCH   8  11
ATOM     11  C   LIG d   1      -5.904  77.877 117.175  0.00  0.00     0.028 C 
ATOM     12  C   LIG d   1      -4.463  78.037 116.664  0.00  0.00     0.006 C 
ENDBRANCH   8  11
ENDBRANCH   7   8
ENDBRANCH   1   7
BRANCH   6  13
ATOM     13  N   LIG d   1      -5.635  74.544 116.501  0.00  0.00    -0.311 N 
ATOM     14  C   LIG d   1      -4.480  74.033 116.926  0.00  0.00     0.210 C 
ATOM     15  C   LIG d   1      -3.265  74.369 116.054  0.00  0.00     0.109 C 
ATOM     16  O   LIG d   1      -4.352  73.307 117.923  0.00  0.00    -0.276 OA
ATOM     17  H   LIG d   1      -5.653  75.094 115.665  0.00  0.00     0.149 HD
ENDBRANCH   6  13
BRANCH   5  18
ATOM     18  N   LIG d   1      -7.587  72.252 115.985  0.00  0.00     0.381 N 
ATOM     19  H   LIG d   1      -6.599  72.141 116.094  0.00  0.00    -0.090 HD
ATOM     20  H   LIG d   1      -7.818  72.087 115.021  0.00  0.00    -0.090 HD
ATOM     21  H   LIG d   1      -8.068  71.601 116.566  0.00  0.00    -0.090 HD
ENDBRANCH   5  18
BRANCH   3  22
ATOM     22  C   LIG d   1     -11.072  75.016 117.761  0.00  0.00     0.382 C 
ATOM     23  O   LIG d   1     -11.892  74.114 117.462  0.00  0.00    -0.241 OA
ATOM     24  O   LIG d   1     -11.492  76.125 118.140  0.00  0.00    -0.241 OA
ENDBRANCH   3  22
TORSDOF 7
ENDMDL
MODEL 9
REMARK VINA RESULT:      -4.8      2.466      3.272
REMARK  7 active torsions:
REMARK  status: ('A' for Active; 'I' for Inactive)
REMARK    1  A    between atoms: C_2  and  C_3 
REMARK    2  A    between atoms: C_3  and  O_6 
REMARK    3  A    between atoms: C_3  and  C_4 
REMARK    4  A    between atoms: C_7  and  O_6 
REMARK    5  A    between atoms: C_9  and  C_10 
REMARK    6  A    between atoms: N_15  and  C_14 
REMARK    7  A    between atoms: N_20  and  C_19 
REMARK       I    between atoms: C_22  and  N_20 
ROOT
ATOM      1  C   LIG d   1      -7.597  76.669 117.934  0.00  0.00     0.161 C 
ATOM      2  C   LIG d   1      -8.708  77.412 118.366  0.00  0.00     0.016 C 
ATOM      3  C   LIG d   1      -8.695  78.818 118.512  0.00  0.00     0.038 C 
ATOM      4  C   LIG d   1      -7.609  79.597 118.087  0.00  0.00     0.028 C 
ATOM      5  C   LIG d   1      -6.279  78.851 118.117  0.00  0.00    -0.047 C 
ATOM      6  C   LIG d   1      -6.439  77.512 117.360  0.00  0.00     0.091 C 
ENDROOT
BRANCH   1   7
ATOM      7  O   LIG d   1      -8.016  75.676 116.977  0.00  0.00    -0.368 OA
BRANCH   7   8
ATOM      8  C   LIG d   1      -7.971  74.299 117.426  0.00  0.00     0.119 C 
BRANCH   8   9
ATOM      9  C   LIG d   1      -7.255  73.479 116.335  0.00  0.00     0.028 C 
ATOM     10  C   LIG d   1      -6.822  74.345 115.140  0.00  0.00     0.006 C 
ENDBRANCH   8   9
BRANCH   8  11
ATOM     11  C   LIG d   1      -9.377  73.700 117.526  0.00  0.00     0.028 C 
ATOM     12  C   LIG d   1     -10.427  74.512 116.750  0.00  0.00     0.006 C 
ENDBRANCH   8  11
ENDBRANCH   7   8
ENDBRANCH   1   7
BRANCH   6  13
ATOM     13  N   LIG d   1      -5.208  76.680 117.414  0.00  0.00    -0.311 N 
ATOM     14  C   LIG d   1      -4.276  76.689 116.463  0.00  0.00     0.210 C 
ATOM     15  C   LIG d   1      -3.097  75.742 116.705  0.00  0.00     0.109 C 
ATOM     16  O   LIG d   1      -4.298  77.415 115.458  0.00  0.00    -0.276 OA
ATOM     17  H   LIG d   1      -5.095  76.085 118.210  0.00  0.00     0.149 HD
ENDBRANCH   6  13
BRANCH   5  18
ATOM     18  N   LIG d   1      -5.259  79.733 117.521  0.00  0.00     0.381 N 
ATOM     19  H   LIG d   1      -5.149  80.553 118.084  0.00  0.00    -0.090 HD
ATOM     20  H   LIG d   1      -5.567  80.017 116.608  0.00  0.00    -0.090 HD
ATOM     21  H   LIG d   1      -4.390  79.251 117.451  0.00  0.00    -0.090 HD
ENDBRANCH   5  18
BRANCH   3  22
ATOM     22  C   LIG d   1      -9.763  79.456 119.124  0.00  0.00     0.382 C 
ATOM     23  O   LIG d   1     -10.863  78.864 119.243  0.00  0.00    -0.241 OA
ATOM     24  O   LIG d   1      -9.654  80.632 119.521  0.00  0.00    -0.241 OA
ENDBRANCH   3  22
TORSDOF 7
ENDMDL
