MODEL 1
REMARK VINA RESULT:      -5.0      0.000      0.000
REMARK  7 active torsions:
REMARK  status: ('A' for Active; 'I' for Inactive)
REMARK    1  A    between atoms: C_2  and  C_3 
REMARK    2  A    between atoms: C_3  and  O_6 
REMARK    3  A    between atoms: C_3  and  C_4 
REMARK    4  A    between atoms: C_7  and  O_6 
REMARK    5  A    between atoms: C_9  and  C_10 
REMARK    6  A    between atoms: N_15  and  C_14 
REMARK    7  A    between atoms: N_20  and  C_19 
REMARK       I    between atoms: C_22  and  N_20 
ROOT
ATOM      1  C   LIG d   1     -16.501  64.398 115.167  0.00  0.00     0.161 C 
ATOM      2  C   LIG d   1     -17.685  64.730 114.488  0.00  0.00     0.016 C 
ATOM      3  C   LIG d   1     -18.973  64.600 115.058  0.00  0.00     0.038 C 
ATOM      4  C   LIG d   1     -19.155  64.269 116.409  0.00  0.00     0.028 C 
ATOM      5  C   LIG d   1     -18.015  63.438 116.988  0.00  0.00    -0.047 C 
ATOM      6  C   LIG d   1     -16.674  64.141 116.679  0.00  0.00     0.091 C 
ENDROOT
BRANCH   1   7
ATOM      7  O   LIG d   1     -15.507  65.416 114.942  0.00  0.00    -0.368 OA
BRANCH   7   8
ATOM      8  C   LIG d   1     -16.005  66.714 114.532  0.00  0.00     0.119 C 
BRANCH   8   9
ATOM      9  C   LIG d   1     -15.282  67.095 113.225  0.00  0.00     0.028 C 
ATOM     10  C   LIG d   1     -14.630  68.486 113.299  0.00  0.00     0.006 C 
ENDBRANCH   8   9
BRANCH   8  11
ATOM     11  C   LIG d   1     -15.621  67.802 115.539  0.00  0.00     0.028 C 
ATOM     12  C   LIG d   1     -16.735  68.089 116.559  0.00  0.00     0.006 C 
ENDBRANCH   8  11
ENDBRANCH   7   8
ENDBRANCH   1   7
BRANCH   6  13
ATOM     13  N   LIG d   1     -15.501  63.352 117.137  0.00  0.00    -0.311 N 
ATOM     14  C   LIG d   1     -14.915  63.528 118.320  0.00  0.00     0.210 C 
ATOM     15  C   LIG d   1     -13.708  62.623 118.586  0.00  0.00     0.109 C 
ATOM     16  O   LIG d   1     -15.301  64.327 119.188  0.00  0.00    -0.276 OA
ATOM     17  H   LIG d   1     -15.142  62.660 116.508  0.00  0.00     0.149 HD
ENDBRANCH   6  13
BRANCH   5  18
ATOM     18  N   LIG d   1     -18.266  63.283 118.434  0.00  0.00     0.381 N 
ATOM     19  H   LIG d   1     -18.786  64.067 118.773  0.00  0.00    -0.090 HD
ATOM     20  H   LIG d   1     -17.385  63.256 118.916  0.00  0.00    -0.090 HD
ATOM     21  H   LIG d   1     -18.771  62.441 118.603  0.00  0.00    -0.090 HD
ENDBRANCH   5  18
BRANCH   3  22
ATOM     22  C   LIG d   1     -20.097  64.763 114.263  0.00  0.00     0.382 C 
ATOM     23  O   LIG d   1     -21.216  64.963 114.793  0.00  0.00    -0.241 OA
ATOM     24  O   LIG d   1     -20.013  64.669 113.024  0.00  0.00    -0.241 OA
ENDBRANCH   3  22
TORSDOF 7
ENDMDL
MODEL 2
REMARK VINA RESULT:      -4.8     16.131     18.671
REMARK  7 active torsions:
REMARK  status: ('A' for Active; 'I' for Inactive)
REMARK    1  A    between atoms: C_2  and  C_3 
REMARK    2  A    between atoms: C_3  and  O_6 
REMARK    3  A    between atoms: C_3  and  C_4 
REMARK    4  A    between atoms: C_7  and  O_6 
REMARK    5  A    between atoms: C_9  and  C_10 
REMARK    6  A    between atoms: N_15  and  C_14 
REMARK    7  A    between atoms: N_20  and  C_19 
REMARK       I    between atoms: C_22  and  N_20 
ROOT
ATOM      1  C   LIG d   1      -3.015  75.885 115.628  0.00  0.00     0.161 C 
ATOM      2  C   LIG d   1      -2.882  74.905 116.625  0.00  0.00     0.016 C 
ATOM      3  C   LIG d   1      -1.844  74.907 117.585  0.00  0.00     0.038 C 
ATOM      4  C   LIG d   1      -0.950  75.980 117.707  0.00  0.00     0.028 C 
ATOM      5  C   LIG d   1      -0.737  76.743 116.404  0.00  0.00    -0.047 C 
ATOM      6  C   LIG d   1      -2.114  77.124 115.814  0.00  0.00     0.091 C 
ENDROOT
BRANCH   1   7
ATOM      7  O   LIG d   1      -4.396  76.283 115.514  0.00  0.00    -0.368 OA
BRANCH   7   8
ATOM      8  C   LIG d   1      -5.373  75.215 115.568  0.00  0.00     0.119 C 
BRANCH   8   9
ATOM      9  C   LIG d   1      -6.068  75.153 114.195  0.00  0.00     0.028 C 
ATOM     10  C   LIG d   1      -5.320  74.252 113.198  0.00  0.00     0.006 C 
ENDBRANCH   8   9
BRANCH   8  11
ATOM     11  C   LIG d   1      -6.486  75.529 116.572  0.00  0.00     0.028 C 
ATOM     12  C   LIG d   1      -6.037  76.498 117.677  0.00  0.00     0.006 C 
ENDBRANCH   8  11
ENDBRANCH   7   8
ENDBRANCH   1   7
BRANCH   6  13
ATOM     13  N   LIG d   1      -1.999  77.799 114.495  0.00  0.00    -0.311 N 
ATOM     14  C   LIG d   1      -2.528  78.993 114.235  0.00  0.00     0.210 C 
ATOM     15  C   LIG d   1      -2.309  79.499 112.805  0.00  0.00     0.109 C 
ATOM     16  O   LIG d   1      -3.130  79.696 115.061  0.00  0.00    -0.276 OA
ATOM     17  H   LIG d   1      -1.499  77.313 113.776  0.00  0.00     0.149 HD
ENDBRANCH   6  13
BRANCH   5  18
ATOM     18  N   LIG d   1       0.107  77.914 116.706  0.00  0.00     0.381 N 
ATOM     19  H   LIG d   1       0.996  77.611 117.051  0.00  0.00    -0.090 HD
ATOM     20  H   LIG d   1      -0.339  78.461 117.421  0.00  0.00    -0.090 HD
ATOM     21  H   LIG d   1       0.232  78.465 115.885  0.00  0.00    -0.090 HD
ENDBRANCH   5  18
BRANCH   3  22
ATOM     22  C   LIG d   1      -1.670  73.806 118.410  0.00  0.00     0.382 C 
ATOM     23  O   LIG d   1      -2.652  73.316 119.018  0.00  0.00    -0.241 OA
ATOM     24  O   LIG d   1      -0.535  73.325 118.590  0.00  0.00    -0.241 OA
ENDBRANCH   3  22
TORSDOF 7
ENDMDL
MODEL 3
REMARK VINA RESULT:      -4.7     26.537     29.673
REMARK  7 active torsions:
REMARK  status: ('A' for Active; 'I' for Inactive)
REMARK    1  A    between atoms: C_2  and  C_3 
REMARK    2  A    between atoms: C_3  and  O_6 
REMARK    3  A    between atoms: C_3  and  C_4 
REMARK    4  A    between atoms: C_7  and  O_6 
REMARK    5  A    between atoms: C_9  and  C_10 
REMARK    6  A    between atoms: N_15  and  C_14 
REMARK    7  A    between atoms: N_20  and  C_19 
REMARK       I    between atoms: C_22  and  N_20 
ROOT
ATOM      1  C   LIG d   1       3.038  86.361 115.657  0.00  0.00     0.161 C 
ATOM      2  C   LIG d   1       2.927  87.561 114.935  0.00  0.00     0.016 C 
ATOM      3  C   LIG d   1       3.971  88.510 114.837  0.00  0.00     0.038 C 
ATOM      4  C   LIG d   1       5.257  88.250 115.332  0.00  0.00     0.028 C 
ATOM      5  C   LIG d   1       5.270  87.273 116.503  0.00  0.00    -0.047 C 
ATOM      6  C   LIG d   1       4.470  86.010 116.111  0.00  0.00     0.091 C 
ENDROOT
BRANCH   1   7
ATOM      7  O   LIG d   1       2.475  85.277 114.892  0.00  0.00    -0.368 OA
BRANCH   7   8
ATOM      8  C   LIG d   1       1.092  84.949 115.174  0.00  0.00     0.119 C 
BRANCH   8   9
ATOM      9  C   LIG d   1       1.088  83.750 116.142  0.00  0.00     0.028 C 
ATOM     10  C   LIG d   1       0.725  84.158 117.580  0.00  0.00     0.006 C 
ENDBRANCH   8   9
BRANCH   8  11
ATOM     11  C   LIG d   1       0.368  84.458 113.917  0.00  0.00     0.028 C 
ATOM     12  C   LIG d   1      -1.151  84.336 114.113  0.00  0.00     0.006 C 
ENDBRANCH   8  11
ENDBRANCH   7   8
ENDBRANCH   1   7
BRANCH   6  13
ATOM     13  N   LIG d   1       4.361  85.038 117.230  0.00  0.00    -0.311 N 
ATOM     14  C   LIG d   1       4.730  83.762 117.131  0.00  0.00     0.210 C 
ATOM     15  C   LIG d   1       4.515  82.926 118.397  0.00  0.00     0.109 C 
ATOM     16  O   LIG d   1       5.243  83.250 116.125  0.00  0.00    -0.276 OA
ATOM     17  H   LIG d   1       3.984  85.376 118.093  0.00  0.00     0.149 HD
ENDBRANCH   6  13
BRANCH   5  18
ATOM     18  N   LIG d   1       6.679  86.987 116.830  0.00  0.00     0.381 N 
ATOM     19  H   LIG d   1       6.726  86.296 117.552  0.00  0.00    -0.090 HD
ATOM     20  H   LIG d   1       7.112  87.828 117.170  0.00  0.00    -0.090 HD
ATOM     21  H   LIG d   1       7.158  86.663 116.019  0.00  0.00    -0.090 HD
ENDBRANCH   5  18
BRANCH   3  22
ATOM     22  C   LIG d   1       3.720  89.751 114.272  0.00  0.00     0.382 C 
ATOM     23  O   LIG d   1       3.821  90.789 114.969  0.00  0.00    -0.241 OA
ATOM     24  O   LIG d   1       3.352  89.842 113.085  0.00  0.00    -0.241 OA
ENDBRANCH   3  22
TORSDOF 7
ENDMDL
MODEL 4
REMARK VINA RESULT:      -4.6     15.874     18.618
REMARK  7 active torsions:
REMARK  status: ('A' for Active; 'I' for Inactive)
REMARK    1  A    between atoms: C_2  and  C_3 
REMARK    2  A    between atoms: C_3  and  O_6 
REMARK    3  A    between atoms: C_3  and  C_4 
REMARK    4  A    between atoms: C_7  and  O_6 
REMARK    5  A    between atoms: C_9  and  C_10 
REMARK    6  A    between atoms: N_15  and  C_14 
REMARK    7  A    between atoms: N_20  and  C_19 
REMARK       I    between atoms: C_22  and  N_20 
ROOT
ATOM      1  C   LIG d   1      -2.583  76.213 116.653  0.00  0.00     0.161 C 
ATOM      2  C   LIG d   1      -2.832  77.328 115.836  0.00  0.00     0.016 C 
ATOM      3  C   LIG d   1      -2.265  77.494 114.551  0.00  0.00     0.038 C 
ATOM      4  C   LIG d   1      -1.525  76.477 113.931  0.00  0.00     0.028 C 
ATOM      5  C   LIG d   1      -0.830  75.544 114.918  0.00  0.00    -0.047 C 
ATOM      6  C   LIG d   1      -1.868  75.042 115.948  0.00  0.00     0.091 C 
ENDROOT
BRANCH   1   7
ATOM      7  O   LIG d   1      -3.814  75.761 117.250  0.00  0.00    -0.368 OA
BRANCH   7   8
ATOM      8  C   LIG d   1      -5.032  76.122 116.553  0.00  0.00     0.119 C 
BRANCH   8   9
ATOM      9  C   LIG d   1      -6.046  76.600 117.609  0.00  0.00     0.028 C 
ATOM     10  C   LIG d   1      -7.445  75.998 117.395  0.00  0.00     0.006 C 
ENDBRANCH   8   9
BRANCH   8  11
ATOM     11  C   LIG d   1      -5.679  74.900 115.893  0.00  0.00     0.028 C 
ATOM     12  C   LIG d   1      -5.616  74.949 114.358  0.00  0.00     0.006 C 
ENDBRANCH   8  11
ENDBRANCH   7   8
ENDBRANCH   1   7
BRANCH   6  13
ATOM     13  N   LIG d   1      -1.255  74.190 117.000  0.00  0.00    -0.311 N 
ATOM     14  C   LIG d   1      -0.214  74.573 117.739  0.00  0.00     0.210 C 
ATOM     15  C   LIG d   1       0.275  73.535 118.754  0.00  0.00     0.109 C 
ATOM     16  O   LIG d   1       0.329  75.685 117.672  0.00  0.00    -0.276 OA
ATOM     17  H   LIG d   1      -1.653  73.283 117.143  0.00  0.00     0.149 HD
ENDBRANCH   6  13
BRANCH   5  18
ATOM     18  N   LIG d   1      -0.211  74.454 114.141  0.00  0.00     0.381 N 
ATOM     19  H   LIG d   1       0.026  74.782 113.226  0.00  0.00    -0.090 HD
ATOM     20  H   LIG d   1      -0.875  73.705 114.045  0.00  0.00    -0.090 HD
ATOM     21  H   LIG d   1       0.606  74.125 114.606  0.00  0.00    -0.090 HD
ENDBRANCH   5  18
BRANCH   3  22
ATOM     22  C   LIG d   1      -2.403  78.705 113.890  0.00  0.00     0.382 C 
ATOM     23  O   LIG d   1      -1.802  78.899 112.806  0.00  0.00    -0.241 OA
ATOM     24  O   LIG d   1      -3.086  79.621 114.386  0.00  0.00    -0.241 OA
ENDBRANCH   3  22
TORSDOF 7
ENDMDL
MODEL 5
REMARK VINA RESULT:      -4.5      2.418      5.452
REMARK  7 active torsions:
REMARK  status: ('A' for Active; 'I' for Inactive)
REMARK    1  A    between atoms: C_2  and  C_3 
REMARK    2  A    between atoms: C_3  and  O_6 
REMARK    3  A    between atoms: C_3  and  C_4 
REMARK    4  A    between atoms: C_7  and  O_6 
REMARK    5  A    between atoms: C_9  and  C_10 
REMARK    6  A    between atoms: N_15  and  C_14 
REMARK    7  A    between atoms: N_20  and  C_19 
REMARK       I    between atoms: C_22  and  N_20 
ROOT
ATOM      1  C   LIG d   1     -16.809  64.112 116.395  0.00  0.00     0.161 C 
ATOM      2  C   LIG d   1     -15.851  65.139 116.439  0.00  0.00     0.016 C 
ATOM      3  C   LIG d   1     -15.782  66.180 115.485  0.00  0.00     0.038 C 
ATOM      4  C   LIG d   1     -16.767  66.350 114.501  0.00  0.00     0.028 C 
ATOM      5  C   LIG d   1     -17.465  65.052 114.111  0.00  0.00    -0.047 C 
ATOM      6  C   LIG d   1     -17.959  64.343 115.393  0.00  0.00     0.091 C 
ENDROOT
BRANCH   1   7
ATOM      7  O   LIG d   1     -17.335  63.877 117.716  0.00  0.00    -0.368 OA
BRANCH   7   8
ATOM      8  C   LIG d   1     -18.451  64.710 118.115  0.00  0.00     0.119 C 
BRANCH   8   9
ATOM      9  C   LIG d   1     -17.979  65.584 119.294  0.00  0.00     0.028 C 
ATOM     10  C   LIG d   1     -17.844  67.067 118.908  0.00  0.00     0.006 C 
ENDBRANCH   8   9
BRANCH   8  11
ATOM     11  C   LIG d   1     -19.604  63.869 118.671  0.00  0.00     0.028 C 
ATOM     12  C   LIG d   1     -19.309  62.361 118.640  0.00  0.00     0.006 C 
ENDBRANCH   8  11
ENDBRANCH   7   8
ENDBRANCH   1   7
BRANCH   6  13
ATOM     13  N   LIG d   1     -18.579  63.023 115.108  0.00  0.00    -0.311 N 
ATOM     14  C   LIG d   1     -19.891  62.845 114.965  0.00  0.00     0.210 C 
ATOM     15  C   LIG d   1     -20.322  61.400 114.695  0.00  0.00     0.109 C 
ATOM     16  O   LIG d   1     -20.736  63.751 115.004  0.00  0.00    -0.276 OA
ATOM     17  H   LIG d   1     -17.963  62.237 115.029  0.00  0.00     0.149 HD
ENDBRANCH   6  13
BRANCH   5  18
ATOM     18  N   LIG d   1     -18.557  65.394 113.182  0.00  0.00     0.381 N 
ATOM     19  H   LIG d   1     -19.056  64.566 112.925  0.00  0.00    -0.090 HD
ATOM     20  H   LIG d   1     -18.163  65.796 112.350  0.00  0.00    -0.090 HD
ATOM     21  H   LIG d   1     -19.179  66.044 113.611  0.00  0.00    -0.090 HD
ENDBRANCH   5  18
BRANCH   3  22
ATOM     22  C   LIG d   1     -14.696  67.042 115.486  0.00  0.00     0.382 C 
ATOM     23  O   LIG d   1     -14.614  67.948 114.622  0.00  0.00    -0.241 OA
ATOM     24  O   LIG d   1     -13.776  66.898 116.313  0.00  0.00    -0.241 OA
ENDBRANCH   3  22
TORSDOF 7
ENDMDL
MODEL 6
REMARK VINA RESULT:      -4.3      2.221      4.436
REMARK  7 active torsions:
REMARK  status: ('A' for Active; 'I' for Inactive)
REMARK    1  A    between atoms: C_2  and  C_3 
REMARK    2  A    between atoms: C_3  and  O_6 
REMARK    3  A    between atoms: C_3  and  C_4 
REMARK    4  A    between atoms: C_7  and  O_6 
REMARK    5  A    between atoms: C_9  and  C_10 
REMARK    6  A    between atoms: N_15  and  C_14 
REMARK    7  A    between atoms: N_20  and  C_19 
REMARK       I    between atoms: C_22  and  N_20 
ROOT
ATOM      1  C   LIG d   1     -16.465  64.427 116.463  0.00  0.00     0.161 C 
ATOM      2  C   LIG d   1     -15.723  65.401 115.776  0.00  0.00     0.016 C 
ATOM      3  C   LIG d   1     -16.234  66.144 114.686  0.00  0.00     0.038 C 
ATOM      4  C   LIG d   1     -17.582  66.068 114.305  0.00  0.00     0.028 C 
ATOM      5  C   LIG d   1     -18.233  64.731 114.643  0.00  0.00    -0.047 C 
ATOM      6  C   LIG d   1     -17.972  64.409 116.132  0.00  0.00     0.091 C 
ENDROOT
BRANCH   1   7
ATOM      7  O   LIG d   1     -16.265  64.571 117.883  0.00  0.00    -0.368 OA
BRANCH   7   8
ATOM      8  C   LIG d   1     -15.802  65.869 118.332  0.00  0.00     0.119 C 
BRANCH   8   9
ATOM      9  C   LIG d   1     -14.795  65.631 119.474  0.00  0.00     0.028 C 
ATOM     10  C   LIG d   1     -14.334  64.166 119.554  0.00  0.00     0.006 C 
ENDBRANCH   8   9
BRANCH   8  11
ATOM     11  C   LIG d   1     -16.940  66.680 118.958  0.00  0.00     0.028 C 
ATOM     12  C   LIG d   1     -17.497  67.754 118.010  0.00  0.00     0.006 C 
ENDBRANCH   8  11
ENDBRANCH   7   8
ENDBRANCH   1   7
BRANCH   6  13
ATOM     13  N   LIG d   1     -18.503  63.078 116.525  0.00  0.00    -0.311 N 
ATOM     14  C   LIG d   1     -19.320  62.891 117.560  0.00  0.00     0.210 C 
ATOM     15  C   LIG d   1     -19.734  61.436 117.804  0.00  0.00     0.109 C 
ATOM     16  O   LIG d   1     -19.768  63.796 118.280  0.00  0.00    -0.276 OA
ATOM     17  H   LIG d   1     -18.215  62.292 115.976  0.00  0.00     0.149 HD
ENDBRANCH   6  13
BRANCH   5  18
ATOM     18  N   LIG d   1     -19.667  64.839 114.317  0.00  0.00     0.381 N 
ATOM     19  H   LIG d   1     -19.867  64.314 113.490  0.00  0.00    -0.090 HD
ATOM     20  H   LIG d   1     -19.889  65.803 114.141  0.00  0.00    -0.090 HD
ATOM     21  H   LIG d   1     -20.216  64.498 115.076  0.00  0.00    -0.090 HD
ENDBRANCH   5  18
BRANCH   3  22
ATOM     22  C   LIG d   1     -15.382  66.945 113.941  0.00  0.00     0.382 C 
ATOM     23  O   LIG d   1     -15.027  68.064 114.383  0.00  0.00    -0.241 OA
ATOM     24  O   LIG d   1     -15.000  66.582 112.812  0.00  0.00    -0.241 OA
ENDBRANCH   3  22
TORSDOF 7
ENDMDL
MODEL 7
REMARK VINA RESULT:      -4.3     27.745     30.840
REMARK  7 active torsions:
REMARK  status: ('A' for Active; 'I' for Inactive)
REMARK    1  A    between atoms: C_2  and  C_3 
REMARK    2  A    between atoms: C_3  and  O_6 
REMARK    3  A    between atoms: C_3  and  C_4 
REMARK    4  A    between atoms: C_7  and  O_6 
REMARK    5  A    between atoms: C_9  and  C_10 
REMARK    6  A    between atoms: N_15  and  C_14 
REMARK    7  A    between atoms: N_20  and  C_19 
REMARK       I    between atoms: C_22  and  N_20 
ROOT
ATOM      1  C   LIG d   1       4.080  86.739 116.623  0.00  0.00     0.161 C 
ATOM      2  C   LIG d   1       3.536  87.732 115.791  0.00  0.00     0.016 C 
ATOM      3  C   LIG d   1       4.320  88.687 115.104  0.00  0.00     0.038 C 
ATOM      4  C   LIG d   1       5.721  88.620 115.083  0.00  0.00     0.028 C 
ATOM      5  C   LIG d   1       6.314  87.942 116.314  0.00  0.00    -0.047 C 
ATOM      6  C   LIG d   1       5.612  86.581 116.524  0.00  0.00     0.091 C 
ENDROOT
BRANCH   1   7
ATOM      7  O   LIG d   1       3.429  85.479 116.369  0.00  0.00    -0.368 OA
BRANCH   7   8
ATOM      8  C   LIG d   1       2.596  85.418 115.186  0.00  0.00     0.119 C 
BRANCH   8   9
ATOM      9  C   LIG d   1       1.258  84.772 115.594  0.00  0.00     0.028 C 
ATOM     10  C   LIG d   1       1.317  83.235 115.570  0.00  0.00     0.006 C 
ENDBRANCH   8   9
BRANCH   8  11
ATOM     11  C   LIG d   1       3.194  84.482 114.131  0.00  0.00     0.028 C 
ATOM     12  C   LIG d   1       3.516  85.200 112.811  0.00  0.00     0.006 C 
ENDBRANCH   8  11
ENDBRANCH   7   8
ENDBRANCH   1   7
BRANCH   6  13
ATOM     13  N   LIG d   1       6.073  85.890 117.756  0.00  0.00    -0.311 N 
ATOM     14  C   LIG d   1       7.023  84.956 117.761  0.00  0.00     0.210 C 
ATOM     15  C   LIG d   1       7.333  84.356 119.136  0.00  0.00     0.109 C 
ATOM     16  O   LIG d   1       7.660  84.590 116.762  0.00  0.00    -0.276 OA
ATOM     17  H   LIG d   1       5.631  86.148 118.616  0.00  0.00     0.149 HD
ENDBRANCH   6  13
BRANCH   5  18
ATOM     18  N   LIG d   1       7.767  87.817 116.098  0.00  0.00     0.381 N 
ATOM     19  H   LIG d   1       8.196  87.410 116.905  0.00  0.00    -0.090 HD
ATOM     20  H   LIG d   1       8.156  88.733 115.962  0.00  0.00    -0.090 HD
ATOM     21  H   LIG d   1       7.945  87.250 115.298  0.00  0.00    -0.090 HD
ENDBRANCH   5  18
BRANCH   3  22
ATOM     22  C   LIG d   1       3.702  89.749 114.460  0.00  0.00     0.382 C 
ATOM     23  O   LIG d   1       3.347  89.635 113.262  0.00  0.00    -0.241 OA
ATOM     24  O   LIG d   1       3.535  90.834 115.049  0.00  0.00    -0.241 OA
ENDBRANCH   3  22
TORSDOF 7
ENDMDL
MODEL 8
REMARK VINA RESULT:      -4.3      2.503      5.716
REMARK  7 active torsions:
REMARK  status: ('A' for Active; 'I' for Inactive)
REMARK    1  A    between atoms: C_2  and  C_3 
REMARK    2  A    between atoms: C_3  and  O_6 
REMARK    3  A    between atoms: C_3  and  C_4 
REMARK    4  A    between atoms: C_7  and  O_6 
REMARK    5  A    between atoms: C_9  and  C_10 
REMARK    6  A    between atoms: N_15  and  C_14 
REMARK    7  A    between atoms: N_20  and  C_19 
REMARK       I    between atoms: C_22  and  N_20 
ROOT
ATOM      1  C   LIG d   1     -16.986  63.834 116.327  0.00  0.00     0.161 C 
ATOM      2  C   LIG d   1     -16.068  64.708 116.933  0.00  0.00     0.016 C 
ATOM      3  C   LIG d   1     -15.474  65.801 116.261  0.00  0.00     0.038 C 
ATOM      4  C   LIG d   1     -15.876  66.187 114.973  0.00  0.00     0.028 C 
ATOM      5  C   LIG d   1     -16.430  65.035 114.141  0.00  0.00    -0.047 C 
ATOM      6  C   LIG d   1     -17.521  64.305 114.958  0.00  0.00     0.091 C 
ENDROOT
BRANCH   1   7
ATOM      7  O   LIG d   1     -18.079  63.572 117.229  0.00  0.00    -0.368 OA
BRANCH   7   8
ATOM      8  C   LIG d   1     -18.318  64.574 118.248  0.00  0.00     0.119 C 
BRANCH   8   9
ATOM      9  C   LIG d   1     -18.660  63.832 119.555  0.00  0.00     0.028 C 
ATOM     10  C   LIG d   1     -18.613  62.303 119.391  0.00  0.00     0.006 C 
ENDBRANCH   8   9
BRANCH   8  11
ATOM     11  C   LIG d   1     -19.556  65.415 117.924  0.00  0.00     0.028 C 
ATOM     12  C   LIG d   1     -19.204  66.789 117.333  0.00  0.00     0.006 C 
ENDBRANCH   8  11
ENDBRANCH   7   8
ENDBRANCH   1   7
BRANCH   6  13
ATOM     13  N   LIG d   1     -18.056  63.113 114.250  0.00  0.00    -0.311 N 
ATOM     14  C   LIG d   1     -19.339  62.970 113.922  0.00  0.00     0.210 C 
ATOM     15  C   LIG d   1     -19.684  61.656 113.214  0.00  0.00     0.109 C 
ATOM     16  O   LIG d   1     -20.219  63.821 114.122  0.00  0.00    -0.276 OA
ATOM     17  H   LIG d   1     -17.406  62.387 114.022  0.00  0.00     0.149 HD
ENDBRANCH   6  13
BRANCH   5  18
ATOM     18  N   LIG d   1     -16.938  65.602 112.877  0.00  0.00     0.381 N 
ATOM     19  H   LIG d   1     -17.591  66.334 113.073  0.00  0.00    -0.090 HD
ATOM     20  H   LIG d   1     -17.415  64.881 112.366  0.00  0.00    -0.090 HD
ATOM     21  H   LIG d   1     -16.181  65.958 112.336  0.00  0.00    -0.090 HD
ENDBRANCH   5  18
BRANCH   3  22
ATOM     22  C   LIG d   1     -14.437  66.497 116.863  0.00  0.00     0.382 C 
ATOM     23  O   LIG d   1     -14.423  66.647 118.109  0.00  0.00    -0.241 OA
ATOM     24  O   LIG d   1     -13.539  67.015 116.173  0.00  0.00    -0.241 OA
ENDBRANCH   3  22
TORSDOF 7
ENDMDL
MODEL 9
REMARK VINA RESULT:      -4.2     28.679     31.447
REMARK  7 active torsions:
REMARK  status: ('A' for Active; 'I' for Inactive)
REMARK    1  A    between atoms: C_2  and  C_3 
REMARK    2  A    between atoms: C_3  and  O_6 
REMARK    3  A    between atoms: C_3  and  C_4 
REMARK    4  A    between atoms: C_7  and  O_6 
REMARK    5  A    between atoms: C_9  and  C_10 
REMARK    6  A    between atoms: N_15  and  C_14 
REMARK    7  A    between atoms: N_20  and  C_19 
REMARK       I    between atoms: C_22  and  N_20 
ROOT
ATOM      1  C   LIG d   1      11.008  79.332 114.414  0.00  0.00     0.161 C 
ATOM      2  C   LIG d   1       9.629  79.412 114.667  0.00  0.00     0.016 C 
ATOM      3  C   LIG d   1       8.846  78.306 115.071  0.00  0.00     0.038 C 
ATOM      4  C   LIG d   1       9.423  77.069 115.397  0.00  0.00     0.028 C 
ATOM      5  C   LIG d   1      10.738  76.804 114.673  0.00  0.00    -0.047 C 
ATOM      6  C   LIG d   1      11.675  78.018 114.872  0.00  0.00     0.091 C 
ENDROOT
BRANCH   1   7
ATOM      7  O   LIG d   1      11.679  80.465 115.001  0.00  0.00    -0.368 OA
BRANCH   7   8
ATOM      8  C   LIG d   1      12.108  80.309 116.376  0.00  0.00     0.119 C 
BRANCH   8   9
ATOM      9  C   LIG d   1      11.325  81.331 117.224  0.00  0.00     0.028 C 
ATOM     10  C   LIG d   1      10.224  80.670 118.070  0.00  0.00     0.006 C 
ENDBRANCH   8   9
BRANCH   8  11
ATOM     11  C   LIG d   1      13.583  80.687 116.546  0.00  0.00     0.028 C 
ATOM     12  C   LIG d   1      14.235  81.146 115.233  0.00  0.00     0.006 C 
ENDBRANCH   8  11
ENDBRANCH   7   8
ENDBRANCH   1   7
BRANCH   6  13
ATOM     13  N   LIG d   1      12.952  77.877 114.126  0.00  0.00    -0.311 N 
ATOM     14  C   LIG d   1      14.080  77.434 114.679  0.00  0.00     0.210 C 
ATOM     15  C   LIG d   1      15.287  77.385 113.737  0.00  0.00     0.109 C 
ATOM     16  O   LIG d   1      14.187  77.048 115.853  0.00  0.00    -0.276 OA
ATOM     17  H   LIG d   1      12.947  78.139 113.160  0.00  0.00     0.149 HD
ENDBRANCH   6  13
BRANCH   5  18
ATOM     18  N   LIG d   1      11.297  75.548 115.208  0.00  0.00     0.381 N 
ATOM     19  H   LIG d   1      10.568  75.005 115.627  0.00  0.00    -0.090 HD
ATOM     20  H   LIG d   1      11.973  75.770 115.918  0.00  0.00    -0.090 HD
ATOM     21  H   LIG d   1      11.730  75.029 114.477  0.00  0.00    -0.090 HD
ENDBRANCH   5  18
BRANCH   3  22
ATOM     22  C   LIG d   1       7.465  78.420 115.113  0.00  0.00     0.382 C 
ATOM     23  O   LIG d   1       6.748  77.397 114.998  0.00  0.00    -0.241 OA
ATOM     24  O   LIG d   1       6.927  79.538 115.220  0.00  0.00    -0.241 OA
ENDBRANCH   3  22
TORSDOF 7
ENDMDL
