MODEL 1
REMARK VINA RESULT:      -4.9      0.000      0.000
REMARK  7 active torsions:
REMARK  status: ('A' for Active; 'I' for Inactive)
REMARK    1  A    between atoms: C_2  and  C_3 
REMARK    2  A    between atoms: C_3  and  O_6 
REMARK    3  A    between atoms: C_3  and  C_4 
REMARK    4  A    between atoms: C_7  and  O_6 
REMARK    5  A    between atoms: C_9  and  C_10 
REMARK    6  A    between atoms: N_15  and  C_14 
REMARK    7  A    between atoms: N_20  and  C_19 
REMARK       I    between atoms: C_22  and  N_20 
ROOT
ATOM      1  C   LIG d   1      -3.719  91.017 117.559  0.00  0.00     0.161 C 
ATOM      2  C   LIG d   1      -4.495  90.037 116.918  0.00  0.00     0.016 C 
ATOM      3  C   LIG d   1      -5.762  90.299 116.345  0.00  0.00     0.038 C 
ATOM      4  C   LIG d   1      -6.274  91.601 116.242  0.00  0.00     0.028 C 
ATOM      5  C   LIG d   1      -5.755  92.543 117.322  0.00  0.00    -0.047 C 
ATOM      6  C   LIG d   1      -4.212  92.466 117.358  0.00  0.00     0.091 C 
ENDROOT
BRANCH   1   7
ATOM      7  O   LIG d   1      -2.343  90.895 117.150  0.00  0.00    -0.368 OA
BRANCH   7   8
ATOM      8  C   LIG d   1      -1.473  90.166 118.051  0.00  0.00     0.119 C 
BRANCH   8   9
ATOM      9  C   LIG d   1      -0.403  91.152 118.559  0.00  0.00     0.028 C 
ATOM     10  C   LIG d   1       0.576  91.578 117.453  0.00  0.00     0.006 C 
ENDBRANCH   8   9
BRANCH   8  11
ATOM     11  C   LIG d   1      -0.696  89.072 117.313  0.00  0.00     0.028 C 
ATOM     12  C   LIG d   1      -1.087  87.656 117.766  0.00  0.00     0.006 C 
ENDBRANCH   8  11
ENDBRANCH   7   8
ENDBRANCH   1   7
BRANCH   6  13
ATOM     13  N   LIG d   1      -3.627  93.294 118.444  0.00  0.00    -0.311 N 
ATOM     14  C   LIG d   1      -2.507  94.002 118.304  0.00  0.00     0.210 C 
ATOM     15  C   LIG d   1      -2.068  94.770 119.555  0.00  0.00     0.109 C 
ATOM     16  O   LIG d   1      -1.854  94.092 117.254  0.00  0.00    -0.276 OA
ATOM     17  H   LIG d   1      -4.110  93.304 119.321  0.00  0.00     0.149 HD
ENDBRANCH   6  13
BRANCH   5  18
ATOM     18  N   LIG d   1      -6.259  93.895 117.014  0.00  0.00     0.381 N 
ATOM     19  H   LIG d   1      -5.629  94.582 117.377  0.00  0.00    -0.090 HD
ATOM     20  H   LIG d   1      -7.151  94.019 117.460  0.00  0.00    -0.090 HD
ATOM     21  H   LIG d   1      -6.353  94.007 116.029  0.00  0.00    -0.090 HD
ENDBRANCH   5  18
BRANCH   3  22
ATOM     22  C   LIG d   1      -6.548  89.245 115.904  0.00  0.00     0.382 C 
ATOM     23  O   LIG d   1      -6.407  88.803 114.739  0.00  0.00    -0.241 OA
ATOM     24  O   LIG d   1      -7.426  88.760 116.643  0.00  0.00    -0.241 OA
ENDBRANCH   3  22
TORSDOF 7
ENDMDL
MODEL 2
REMARK VINA RESULT:      -4.6      6.377      9.244
REMARK  7 active torsions:
REMARK  status: ('A' for Active; 'I' for Inactive)
REMARK    1  A    between atoms: C_2  and  C_3 
REMARK    2  A    between atoms: C_3  and  O_6 
REMARK    3  A    between atoms: C_3  and  C_4 
REMARK    4  A    between atoms: C_7  and  O_6 
REMARK    5  A    between atoms: C_9  and  C_10 
REMARK    6  A    between atoms: N_15  and  C_14 
REMARK    7  A    between atoms: N_20  and  C_19 
REMARK       I    between atoms: C_22  and  N_20 
ROOT
ATOM      1  C   LIG d   1       3.843  89.786 115.864  0.00  0.00     0.161 C 
ATOM      2  C   LIG d   1       2.675  90.511 116.151  0.00  0.00     0.016 C 
ATOM      3  C   LIG d   1       2.530  91.334 117.291  0.00  0.00     0.038 C 
ATOM      4  C   LIG d   1       3.606  91.609 118.148  0.00  0.00     0.028 C 
ATOM      5  C   LIG d   1       4.654  90.503 118.179  0.00  0.00    -0.047 C 
ATOM      6  C   LIG d   1       5.065  90.161 116.728  0.00  0.00     0.091 C 
ENDROOT
BRANCH   1   7
ATOM      7  O   LIG d   1       4.163  89.909 114.464  0.00  0.00    -0.368 OA
BRANCH   7   8
ATOM      8  C   LIG d   1       3.953  88.725 113.656  0.00  0.00     0.119 C 
BRANCH   8   9
ATOM      9  C   LIG d   1       3.509  87.591 114.602  0.00  0.00     0.028 C 
ATOM     10  C   LIG d   1       4.446  86.373 114.537  0.00  0.00     0.006 C 
ENDBRANCH   8   9
BRANCH   8  11
ATOM     11  C   LIG d   1       5.262  88.239 113.028  0.00  0.00     0.028 C 
ATOM     12  C   LIG d   1       6.406  89.255 113.174  0.00  0.00     0.006 C 
ENDBRANCH   8  11
ENDBRANCH   7   8
ENDBRANCH   1   7
BRANCH   6  13
ATOM     13  N   LIG d   1       6.026  89.029 116.663  0.00  0.00    -0.311 N 
ATOM     14  C   LIG d   1       7.349  89.189 116.655  0.00  0.00     0.210 C 
ATOM     15  C   LIG d   1       8.157  87.891 116.563  0.00  0.00     0.109 C 
ATOM     16  O   LIG d   1       7.929  90.282 116.747  0.00  0.00    -0.276 OA
ATOM     17  H   LIG d   1       5.641  88.106 116.618  0.00  0.00     0.149 HD
ENDBRANCH   6  13
BRANCH   5  18
ATOM     18  N   LIG d   1       5.782  90.979 119.002  0.00  0.00     0.381 N 
ATOM     19  H   LIG d   1       5.622  90.747 119.962  0.00  0.00    -0.090 HD
ATOM     20  H   LIG d   1       5.841  91.979 118.925  0.00  0.00    -0.090 HD
ATOM     21  H   LIG d   1       6.632  90.564 118.690  0.00  0.00    -0.090 HD
ENDBRANCH   5  18
BRANCH   3  22
ATOM     22  C   LIG d   1       1.286  91.861 117.605  0.00  0.00     0.382 C 
ATOM     23  O   LIG d   1       0.243  91.265 117.243  0.00  0.00    -0.241 OA
ATOM     24  O   LIG d   1       1.194  92.947 118.208  0.00  0.00    -0.241 OA
ENDBRANCH   3  22
TORSDOF 7
ENDMDL
MODEL 3
REMARK VINA RESULT:      -4.6     19.853     22.313
REMARK  7 active torsions:
REMARK  status: ('A' for Active; 'I' for Inactive)
REMARK    1  A    between atoms: C_2  and  C_3 
REMARK    2  A    between atoms: C_3  and  O_6 
REMARK    3  A    between atoms: C_3  and  C_4 
REMARK    4  A    between atoms: C_7  and  O_6 
REMARK    5  A    between atoms: C_9  and  C_10 
REMARK    6  A    between atoms: N_15  and  C_14 
REMARK    7  A    between atoms: N_20  and  C_19 
REMARK       I    between atoms: C_22  and  N_20 
ROOT
ATOM      1  C   LIG d   1     -23.000  83.371 115.456  0.00  0.00     0.161 C 
ATOM      2  C   LIG d   1     -22.222  82.645 116.373  0.00  0.00     0.016 C 
ATOM      3  C   LIG d   1     -22.085  83.006 117.733  0.00  0.00     0.038 C 
ATOM      4  C   LIG d   1     -22.843  84.037 118.307  0.00  0.00     0.028 C 
ATOM      5  C   LIG d   1     -23.257  85.112 117.308  0.00  0.00    -0.047 C 
ATOM      6  C   LIG d   1     -23.922  84.435 116.089  0.00  0.00     0.091 C 
ENDROOT
BRANCH   1   7
ATOM      7  O   LIG d   1     -23.768  82.464 114.641  0.00  0.00    -0.368 OA
BRANCH   7   8
ATOM      8  C   LIG d   1     -24.575  81.494 115.353  0.00  0.00     0.119 C 
BRANCH   8   9
ATOM      9  C   LIG d   1     -24.200  80.098 114.820  0.00  0.00     0.028 C 
ATOM     10  C   LIG d   1     -25.071  78.985 115.426  0.00  0.00     0.006 C 
ENDBRANCH   8   9
BRANCH   8  11
ATOM     11  C   LIG d   1     -26.063  81.664 115.031  0.00  0.00     0.028 C 
ATOM     12  C   LIG d   1     -26.323  81.947 113.543  0.00  0.00     0.006 C 
ENDBRANCH   8  11
ENDBRANCH   7   8
ENDBRANCH   1   7
BRANCH   6  13
ATOM     13  N   LIG d   1     -24.282  85.408 115.025  0.00  0.00    -0.311 N 
ATOM     14  C   LIG d   1     -25.531  85.613 114.610  0.00  0.00     0.210 C 
ATOM     15  C   LIG d   1     -25.679  86.647 113.489  0.00  0.00     0.109 C 
ATOM     16  O   LIG d   1     -26.534  85.060 115.086  0.00  0.00    -0.276 OA
ATOM     17  H   LIG d   1     -23.533  85.923 114.606  0.00  0.00     0.149 HD
ENDBRANCH   6  13
BRANCH   5  18
ATOM     18  N   LIG d   1     -24.155  86.050 118.009  0.00  0.00     0.381 N 
ATOM     19  H   LIG d   1     -23.628  86.824 118.361  0.00  0.00    -0.090 HD
ATOM     20  H   LIG d   1     -24.577  85.576 118.788  0.00  0.00    -0.090 HD
ATOM     21  H   LIG d   1     -24.861  86.376 117.387  0.00  0.00    -0.090 HD
ENDBRANCH   5  18
BRANCH   3  22
ATOM     22  C   LIG d   1     -21.151  82.355 118.526  0.00  0.00     0.382 C 
ATOM     23  O   LIG d   1     -19.926  82.507 118.303  0.00  0.00    -0.241 OA
ATOM     24  O   LIG d   1     -21.519  81.585 119.432  0.00  0.00    -0.241 OA
ENDBRANCH   3  22
TORSDOF 7
ENDMDL
MODEL 4
REMARK VINA RESULT:      -4.2      8.758     11.180
REMARK  7 active torsions:
REMARK  status: ('A' for Active; 'I' for Inactive)
REMARK    1  A    between atoms: C_2  and  C_3 
REMARK    2  A    between atoms: C_3  and  O_6 
REMARK    3  A    between atoms: C_3  and  C_4 
REMARK    4  A    between atoms: C_7  and  O_6 
REMARK    5  A    between atoms: C_9  and  C_10 
REMARK    6  A    between atoms: N_15  and  C_14 
REMARK    7  A    between atoms: N_20  and  C_19 
REMARK       I    between atoms: C_22  and  N_20 
ROOT
ATOM      1  C   LIG d   1       3.490  85.811 114.789  0.00  0.00     0.161 C 
ATOM      2  C   LIG d   1       3.382  87.132 114.325  0.00  0.00     0.016 C 
ATOM      3  C   LIG d   1       4.331  88.139 114.614  0.00  0.00     0.038 C 
ATOM      4  C   LIG d   1       5.540  87.853 115.266  0.00  0.00     0.028 C 
ATOM      5  C   LIG d   1       5.459  86.643 116.191  0.00  0.00    -0.047 C 
ATOM      6  C   LIG d   1       4.858  85.453 115.408  0.00  0.00     0.091 C 
ENDROOT
BRANCH   1   7
ATOM      7  O   LIG d   1       3.165  84.892 113.728  0.00  0.00    -0.368 OA
BRANCH   7   8
ATOM      8  C   LIG d   1       1.984  84.077 113.930  0.00  0.00     0.119 C 
BRANCH   8   9
ATOM      9  C   LIG d   1       2.309  82.658 113.425  0.00  0.00     0.028 C 
ATOM     10  C   LIG d   1       3.726  82.555 112.836  0.00  0.00     0.006 C 
ENDBRANCH   8   9
BRANCH   8  11
ATOM     11  C   LIG d   1       0.818  84.559 113.062  0.00  0.00     0.028 C 
ATOM     12  C   LIG d   1      -0.473  84.777 113.866  0.00  0.00     0.006 C 
ENDBRANCH   8  11
ENDBRANCH   7   8
ENDBRANCH   1   7
BRANCH   6  13
ATOM     13  N   LIG d   1       4.665  84.252 116.262  0.00  0.00    -0.311 N 
ATOM     14  C   LIG d   1       5.356  83.124 116.108  0.00  0.00     0.210 C 
ATOM     15  C   LIG d   1       4.986  82.001 117.082  0.00  0.00     0.109 C 
ATOM     16  O   LIG d   1       6.263  82.958 115.279  0.00  0.00    -0.276 OA
ATOM     17  H   LIG d   1       3.970  84.311 116.981  0.00  0.00     0.149 HD
ENDBRANCH   6  13
BRANCH   5  18
ATOM     18  N   LIG d   1       6.818  86.375 116.696  0.00  0.00     0.381 N 
ATOM     19  H   LIG d   1       6.961  86.863 117.558  0.00  0.00    -0.090 HD
ATOM     20  H   LIG d   1       7.486  86.715 116.027  0.00  0.00    -0.090 HD
ATOM     21  H   LIG d   1       6.944  85.397 116.835  0.00  0.00    -0.090 HD
ENDBRANCH   5  18
BRANCH   3  22
ATOM     22  C   LIG d   1       4.057  89.458 114.285  0.00  0.00     0.382 C 
ATOM     23  O   LIG d   1       3.539  90.221 115.135  0.00  0.00    -0.241 OA
ATOM     24  O   LIG d   1       4.280  89.881 113.135  0.00  0.00    -0.241 OA
ENDBRANCH   3  22
TORSDOF 7
ENDMDL
MODEL 5
REMARK VINA RESULT:      -4.1     28.143     31.113
REMARK  7 active torsions:
REMARK  status: ('A' for Active; 'I' for Inactive)
REMARK    1  A    between atoms: C_2  and  C_3 
REMARK    2  A    between atoms: C_3  and  O_6 
REMARK    3  A    between atoms: C_3  and  C_4 
REMARK    4  A    between atoms: C_7  and  O_6 
REMARK    5  A    between atoms: C_9  and  C_10 
REMARK    6  A    between atoms: N_15  and  C_14 
REMARK    7  A    between atoms: N_20  and  C_19 
REMARK       I    between atoms: C_22  and  N_20 
ROOT
ATOM      1  C   LIG d   1     -17.809  63.741 117.582  0.00  0.00     0.161 C 
ATOM      2  C   LIG d   1     -17.807  65.144 117.521  0.00  0.00     0.016 C 
ATOM      3  C   LIG d   1     -16.727  65.941 117.964  0.00  0.00     0.038 C 
ATOM      4  C   LIG d   1     -15.505  65.379 118.363  0.00  0.00     0.028 C 
ATOM      5  C   LIG d   1     -15.642  63.965 118.917  0.00  0.00    -0.047 C 
ATOM      6  C   LIG d   1     -16.441  63.106 117.911  0.00  0.00     0.091 C 
ENDROOT
BRANCH   1   7
ATOM      7  O   LIG d   1     -18.330  63.198 116.353  0.00  0.00    -0.368 OA
BRANCH   7   8
ATOM      8  C   LIG d   1     -17.366  62.976 115.295  0.00  0.00     0.119 C 
BRANCH   8   9
ATOM      9  C   LIG d   1     -17.748  63.897 114.120  0.00  0.00     0.028 C 
ATOM     10  C   LIG d   1     -19.271  64.036 113.954  0.00  0.00     0.006 C 
ENDBRANCH   8   9
BRANCH   8  11
ATOM     11  C   LIG d   1     -17.464  61.551 114.742  0.00  0.00     0.028 C 
ATOM     12  C   LIG d   1     -18.524  60.704 115.463  0.00  0.00     0.006 C 
ENDBRANCH   8  11
ENDBRANCH   7   8
ENDBRANCH   1   7
BRANCH   6  13
ATOM     13  N   LIG d   1     -16.693  61.731 118.414  0.00  0.00    -0.311 N 
ATOM     14  C   LIG d   1     -15.867  60.709 118.198  0.00  0.00     0.210 C 
ATOM     15  C   LIG d   1     -16.325  59.371 118.787  0.00  0.00     0.109 C 
ATOM     16  O   LIG d   1     -14.782  60.790 117.602  0.00  0.00    -0.276 OA
ATOM     17  H   LIG d   1     -17.535  61.582 118.935  0.00  0.00     0.149 HD
ENDBRANCH   6  13
BRANCH   5  18
ATOM     18  N   LIG d   1     -14.282  63.450 119.164  0.00  0.00     0.381 N 
ATOM     19  H   LIG d   1     -14.334  62.537 119.570  0.00  0.00    -0.090 HD
ATOM     20  H   LIG d   1     -13.817  64.058 119.816  0.00  0.00    -0.090 HD
ATOM     21  H   LIG d   1     -13.770  63.414 118.310  0.00  0.00    -0.090 HD
ENDBRANCH   5  18
BRANCH   3  22
ATOM     22  C   LIG d   1     -16.878  67.317 118.050  0.00  0.00     0.382 C 
ATOM     23  O   LIG d   1     -16.718  67.898 119.150  0.00  0.00    -0.241 OA
ATOM     24  O   LIG d   1     -17.216  67.979 117.050  0.00  0.00    -0.241 OA
ENDBRANCH   3  22
TORSDOF 7
ENDMDL
MODEL 6
REMARK VINA RESULT:      -4.1      6.370      7.943
REMARK  7 active torsions:
REMARK  status: ('A' for Active; 'I' for Inactive)
REMARK    1  A    between atoms: C_2  and  C_3 
REMARK    2  A    between atoms: C_3  and  O_6 
REMARK    3  A    between atoms: C_3  and  C_4 
REMARK    4  A    between atoms: C_7  and  O_6 
REMARK    5  A    between atoms: C_9  and  C_10 
REMARK    6  A    between atoms: N_15  and  C_14 
REMARK    7  A    between atoms: N_20  and  C_19 
REMARK       I    between atoms: C_22  and  N_20 
ROOT
ATOM      1  C   LIG d   1       3.492  88.537 116.126  0.00  0.00     0.161 C 
ATOM      2  C   LIG d   1       2.579  87.531 115.770  0.00  0.00     0.016 C 
ATOM      3  C   LIG d   1       1.439  87.207 116.541  0.00  0.00     0.038 C 
ATOM      4  C   LIG d   1       1.052  87.973 117.650  0.00  0.00     0.028 C 
ATOM      5  C   LIG d   1       2.217  88.679 118.335  0.00  0.00    -0.047 C 
ATOM      6  C   LIG d   1       3.026  89.458 117.273  0.00  0.00     0.091 C 
ENDROOT
BRANCH   1   7
ATOM      7  O   LIG d   1       3.836  89.319 114.965  0.00  0.00    -0.368 OA
BRANCH   7   8
ATOM      8  C   LIG d   1       5.240  89.345 114.606  0.00  0.00     0.119 C 
BRANCH   8   9
ATOM      9  C   LIG d   1       5.341  89.014 113.105  0.00  0.00     0.028 C 
ATOM     10  C   LIG d   1       5.018  87.541 112.805  0.00  0.00     0.006 C 
ENDBRANCH   8   9
BRANCH   8  11
ATOM     11  C   LIG d   1       6.017  88.234 115.319  0.00  0.00     0.028 C 
ATOM     12  C   LIG d   1       7.248  88.760 116.075  0.00  0.00     0.006 C 
ENDBRANCH   8  11
ENDBRANCH   7   8
ENDBRANCH   1   7
BRANCH   6  13
ATOM     13  N   LIG d   1       4.233  90.109 117.845  0.00  0.00    -0.311 N 
ATOM     14  C   LIG d   1       4.584  91.366 117.579  0.00  0.00     0.210 C 
ATOM     15  C   LIG d   1       5.875  91.835 118.257  0.00  0.00     0.109 C 
ATOM     16  O   LIG d   1       3.931  92.147 116.870  0.00  0.00    -0.276 OA
ATOM     17  H   LIG d   1       4.803  89.557 118.456  0.00  0.00     0.149 HD
ENDBRANCH   6  13
BRANCH   5  18
ATOM     18  N   LIG d   1       1.655  89.549 119.386  0.00  0.00     0.381 N 
ATOM     19  H   LIG d   1       2.230  90.360 119.498  0.00  0.00    -0.090 HD
ATOM     20  H   LIG d   1       1.648  89.045 120.256  0.00  0.00    -0.090 HD
ATOM     21  H   LIG d   1       0.728  89.821 119.144  0.00  0.00    -0.090 HD
ENDBRANCH   5  18
BRANCH   3  22
ATOM     22  C   LIG d   1       0.695  86.079 116.228  0.00  0.00     0.382 C 
ATOM     23  O   LIG d   1       1.219  84.941 116.306  0.00  0.00    -0.241 OA
ATOM     24  O   LIG d   1      -0.478  86.188 115.825  0.00  0.00    -0.241 OA
ENDBRANCH   3  22
TORSDOF 7
ENDMDL
MODEL 7
REMARK VINA RESULT:      -4.1     28.725     31.657
REMARK  7 active torsions:
REMARK  status: ('A' for Active; 'I' for Inactive)
REMARK    1  A    between atoms: C_2  and  C_3 
REMARK    2  A    between atoms: C_3  and  O_6 
REMARK    3  A    between atoms: C_3  and  C_4 
REMARK    4  A    between atoms: C_7  and  O_6 
REMARK    5  A    between atoms: C_9  and  C_10 
REMARK    6  A    between atoms: N_15  and  C_14 
REMARK    7  A    between atoms: N_20  and  C_19 
REMARK       I    between atoms: C_22  and  N_20 
ROOT
ATOM      1  C   LIG d   1     -16.910  63.065 117.652  0.00  0.00     0.161 C 
ATOM      2  C   LIG d   1     -16.670  64.249 118.369  0.00  0.00     0.016 C 
ATOM      3  C   LIG d   1     -16.422  65.496 117.750  0.00  0.00     0.038 C 
ATOM      4  C   LIG d   1     -16.549  65.675 116.364  0.00  0.00     0.028 C 
ATOM      5  C   LIG d   1     -16.293  64.402 115.564  0.00  0.00    -0.047 C 
ATOM      6  C   LIG d   1     -17.162  63.262 116.142  0.00  0.00     0.091 C 
ENDROOT
BRANCH   1   7
ATOM      7  O   LIG d   1     -18.004  62.344 118.252  0.00  0.00    -0.368 OA
BRANCH   7   8
ATOM      8  C   LIG d   1     -17.671  61.075 118.867  0.00  0.00     0.119 C 
BRANCH   8   9
ATOM      9  C   LIG d   1     -16.146  60.889 118.747  0.00  0.00     0.028 C 
ATOM     10  C   LIG d   1     -15.700  59.459 119.092  0.00  0.00     0.006 C 
ENDBRANCH   8   9
BRANCH   8  11
ATOM     11  C   LIG d   1     -18.284  59.903 118.094  0.00  0.00     0.028 C 
ATOM     12  C   LIG d   1     -19.598  60.277 117.390  0.00  0.00     0.006 C 
ENDBRANCH   8  11
ENDBRANCH   7   8
ENDBRANCH   1   7
BRANCH   6  13
ATOM     13  N   LIG d   1     -16.910  61.961 115.471  0.00  0.00    -0.311 N 
ATOM     14  C   LIG d   1     -17.653  61.498 114.467  0.00  0.00     0.210 C 
ATOM     15  C   LIG d   1     -17.233  60.126 113.931  0.00  0.00     0.109 C 
ATOM     16  O   LIG d   1     -18.600  62.108 113.948  0.00  0.00    -0.276 OA
ATOM     17  H   LIG d   1     -16.142  61.415 115.808  0.00  0.00     0.149 HD
ENDBRANCH   6  13
BRANCH   5  18
ATOM     18  N   LIG d   1     -16.593  64.697 114.150  0.00  0.00     0.381 N 
ATOM     19  H   LIG d   1     -17.535  64.435 113.942  0.00  0.00    -0.090 HD
ATOM     20  H   LIG d   1     -15.978  64.156 113.568  0.00  0.00    -0.090 HD
ATOM     21  H   LIG d   1     -16.463  65.669 113.970  0.00  0.00    -0.090 HD
ENDBRANCH   5  18
BRANCH   3  22
ATOM     22  C   LIG d   1     -16.005  66.573 118.518  0.00  0.00     0.382 C 
ATOM     23  O   LIG d   1     -14.930  66.505 119.161  0.00  0.00    -0.241 OA
ATOM     24  O   LIG d   1     -16.711  67.595 118.610  0.00  0.00    -0.241 OA
ENDBRANCH   3  22
TORSDOF 7
ENDMDL
MODEL 8
REMARK VINA RESULT:      -4.0     29.115     31.795
REMARK  7 active torsions:
REMARK  status: ('A' for Active; 'I' for Inactive)
REMARK    1  A    between atoms: C_2  and  C_3 
REMARK    2  A    between atoms: C_3  and  O_6 
REMARK    3  A    between atoms: C_3  and  C_4 
REMARK    4  A    between atoms: C_7  and  O_6 
REMARK    5  A    between atoms: C_9  and  C_10 
REMARK    6  A    between atoms: N_15  and  C_14 
REMARK    7  A    between atoms: N_20  and  C_19 
REMARK       I    between atoms: C_22  and  N_20 
ROOT
ATOM      1  C   LIG d   1     -17.664  64.153 114.704  0.00  0.00     0.161 C 
ATOM      2  C   LIG d   1     -16.556  64.209 115.565  0.00  0.00     0.016 C 
ATOM      3  C   LIG d   1     -16.644  64.590 116.924  0.00  0.00     0.038 C 
ATOM      4  C   LIG d   1     -17.879  64.796 117.557  0.00  0.00     0.028 C 
ATOM      5  C   LIG d   1     -18.982  65.243 116.603  0.00  0.00    -0.047 C 
ATOM      6  C   LIG d   1     -19.034  64.267 115.405  0.00  0.00     0.091 C 
ENDROOT
BRANCH   1   7
ATOM      7  O   LIG d   1     -17.607  62.951 113.910  0.00  0.00    -0.368 OA
BRANCH   7   8
ATOM      8  C   LIG d   1     -18.277  61.791 114.461  0.00  0.00     0.119 C 
BRANCH   8   9
ATOM      9  C   LIG d   1     -17.211  60.699 114.676  0.00  0.00     0.028 C 
ATOM     10  C   LIG d   1     -16.831  60.534 116.157  0.00  0.00     0.006 C 
ENDBRANCH   8   9
BRANCH   8  11
ATOM     11  C   LIG d   1     -19.272  61.195 113.460  0.00  0.00     0.028 C 
ATOM     12  C   LIG d   1     -20.397  60.400 114.140  0.00  0.00     0.006 C 
ENDBRANCH   8  11
ENDBRANCH   7   8
ENDBRANCH   1   7
BRANCH   6  13
ATOM     13  N   LIG d   1     -20.030  64.680 114.382  0.00  0.00    -0.311 N 
ATOM     14  C   LIG d   1     -21.286  64.236 114.361  0.00  0.00     0.210 C 
ATOM     15  C   LIG d   1     -22.141  64.771 113.208  0.00  0.00     0.109 C 
ATOM     16  O   LIG d   1     -21.782  63.476 115.206  0.00  0.00    -0.276 OA
ATOM     17  H   LIG d   1     -19.721  65.319 113.676  0.00  0.00     0.149 HD
ENDBRANCH   6  13
BRANCH   5  18
ATOM     18  N   LIG d   1     -20.242  65.287 117.368  0.00  0.00     0.381 N 
ATOM     19  H   LIG d   1     -20.429  66.226 117.658  0.00  0.00    -0.090 HD
ATOM     20  H   LIG d   1     -20.143  64.717 118.190  0.00  0.00    -0.090 HD
ATOM     21  H   LIG d   1     -20.993  64.949 116.808  0.00  0.00    -0.090 HD
ENDBRANCH   5  18
BRANCH   3  22
ATOM     22  C   LIG d   1     -15.485  64.806 117.653  0.00  0.00     0.382 C 
ATOM     23  O   LIG d   1     -15.001  63.882 118.350  0.00  0.00    -0.241 OA
ATOM     24  O   LIG d   1     -14.942  65.927 117.658  0.00  0.00    -0.241 OA
ENDBRANCH   3  22
TORSDOF 7
ENDMDL
MODEL 9
REMARK VINA RESULT:      -4.0     20.349     22.572
REMARK  7 active torsions:
REMARK  status: ('A' for Active; 'I' for Inactive)
REMARK    1  A    between atoms: C_2  and  C_3 
REMARK    2  A    between atoms: C_3  and  O_6 
REMARK    3  A    between atoms: C_3  and  C_4 
REMARK    4  A    between atoms: C_7  and  O_6 
REMARK    5  A    between atoms: C_9  and  C_10 
REMARK    6  A    between atoms: N_15  and  C_14 
REMARK    7  A    between atoms: N_20  and  C_19 
REMARK       I    between atoms: C_22  and  N_20 
ROOT
ATOM      1  C   LIG d   1     -23.386  82.313 115.807  0.00  0.00     0.161 C 
ATOM      2  C   LIG d   1     -22.966  83.435 115.073  0.00  0.00     0.016 C 
ATOM      3  C   LIG d   1     -23.679  83.953 113.967  0.00  0.00     0.038 C 
ATOM      4  C   LIG d   1     -24.948  83.472 113.612  0.00  0.00     0.028 C 
ATOM      5  C   LIG d   1     -25.177  82.017 114.008  0.00  0.00    -0.047 C 
ATOM      6  C   LIG d   1     -24.824  81.843 115.503  0.00  0.00     0.091 C 
ENDROOT
BRANCH   1   7
ATOM      7  O   LIG d   1     -23.228  82.564 117.217  0.00  0.00    -0.368 OA
BRANCH   7   8
ATOM      8  C   LIG d   1     -22.056  83.325 117.602  0.00  0.00     0.119 C 
BRANCH   8   9
ATOM      9  C   LIG d   1     -21.028  82.332 118.176  0.00  0.00     0.028 C 
ATOM     10  C   LIG d   1     -21.471  81.744 119.527  0.00  0.00     0.006 C 
ENDBRANCH   8   9
BRANCH   8  11
ATOM     11  C   LIG d   1     -22.370  84.292 118.747  0.00  0.00     0.028 C 
ATOM     12  C   LIG d   1     -22.898  85.648 118.254  0.00  0.00     0.006 C 
ENDBRANCH   8  11
ENDBRANCH   7   8
ENDBRANCH   1   7
BRANCH   6  13
ATOM     13  N   LIG d   1     -24.939  80.431 115.952  0.00  0.00    -0.311 N 
ATOM     14  C   LIG d   1     -26.037  79.927 116.513  0.00  0.00     0.210 C 
ATOM     15  C   LIG d   1     -25.938  78.454 116.920  0.00  0.00     0.109 C 
ATOM     16  O   LIG d   1     -27.095  80.552 116.682  0.00  0.00    -0.276 OA
ATOM     17  H   LIG d   1     -24.138  79.844 115.823  0.00  0.00     0.149 HD
ENDBRANCH   6  13
BRANCH   5  18
ATOM     18  N   LIG d   1     -26.582  81.688 113.704  0.00  0.00     0.381 N 
ATOM     19  H   LIG d   1     -26.825  80.815 114.128  0.00  0.00    -0.090 HD
ATOM     20  H   LIG d   1     -26.686  81.595 112.709  0.00  0.00    -0.090 HD
ATOM     21  H   LIG d   1     -27.182  82.408 114.042  0.00  0.00    -0.090 HD
ENDBRANCH   5  18
BRANCH   3  22
ATOM     22  C   LIG d   1     -23.104  84.939 113.180  0.00  0.00     0.382 C 
ATOM     23  O   LIG d   1     -21.890  84.867 112.873  0.00  0.00    -0.241 OA
ATOM     24  O   LIG d   1     -23.774  85.922 112.809  0.00  0.00    -0.241 OA
ENDBRANCH   3  22
TORSDOF 7
ENDMDL
