MODEL 1
REMARK VINA RESULT:      -5.7      0.000      0.000
REMARK  7 active torsions:
REMARK  status: ('A' for Active; 'I' for Inactive)
REMARK    1  A    between atoms: C_2  and  C_3 
REMARK    2  A    between atoms: C_3  and  O_6 
REMARK    3  A    between atoms: C_3  and  C_4 
REMARK    4  A    between atoms: C_7  and  O_6 
REMARK    5  A    between atoms: C_9  and  C_10 
REMARK    6  A    between atoms: N_15  and  C_14 
REMARK    7  A    between atoms: N_20  and  C_19 
REMARK       I    between atoms: C_22  and  N_20 
ROOT
ATOM      1  C   LIG d   1      -7.255  75.605 116.782  0.00  0.00     0.161 C 
ATOM      2  C   LIG d   1      -8.099  74.501 116.991  0.00  0.00     0.016 C 
ATOM      3  C   LIG d   1      -7.665  73.160 116.891  0.00  0.00     0.038 C 
ATOM      4  C   LIG d   1      -6.312  72.829 116.722  0.00  0.00     0.028 C 
ATOM      5  C   LIG d   1      -5.509  73.908 116.004  0.00  0.00    -0.047 C 
ATOM      6  C   LIG d   1      -5.752  75.264 116.706  0.00  0.00     0.091 C 
ENDROOT
BRANCH   1   7
ATOM      7  O   LIG d   1      -7.492  76.601 117.796  0.00  0.00    -0.368 OA
BRANCH   7   8
ATOM      8  C   LIG d   1      -8.297  77.737 117.397  0.00  0.00     0.119 C 
BRANCH   8   9
ATOM      9  C   LIG d   1      -7.375  78.972 117.373  0.00  0.00     0.028 C 
ATOM     10  C   LIG d   1      -8.126  80.272 117.709  0.00  0.00     0.006 C 
ENDBRANCH   8   9
BRANCH   8  11
ATOM     11  C   LIG d   1      -9.371  78.054 118.442  0.00  0.00     0.028 C 
ATOM     12  C   LIG d   1     -10.421  76.939 118.574  0.00  0.00     0.006 C 
ENDBRANCH   8  11
ENDBRANCH   7   8
ENDBRANCH   1   7
BRANCH   6  13
ATOM     13  N   LIG d   1      -5.069  76.390 116.016  0.00  0.00    -0.311 N 
ATOM     14  C   LIG d   1      -4.221  77.216 116.624  0.00  0.00     0.210 C 
ATOM     15  C   LIG d   1      -3.644  78.321 115.734  0.00  0.00     0.109 C 
ATOM     16  O   LIG d   1      -3.866  77.120 117.809  0.00  0.00    -0.276 OA
ATOM     17  H   LIG d   1      -5.276  76.522 115.045  0.00  0.00     0.149 HD
ENDBRANCH   6  13
BRANCH   5  18
ATOM     18  N   LIG d   1      -4.093  73.495 116.018  0.00  0.00     0.381 N 
ATOM     19  H   LIG d   1      -4.011  72.556 115.682  0.00  0.00    -0.090 HD
ATOM     20  H   LIG d   1      -3.756  73.522 116.964  0.00  0.00    -0.090 HD
ATOM     21  H   LIG d   1      -3.553  74.107 115.448  0.00  0.00    -0.090 HD
ENDBRANCH   5  18
BRANCH   3  22
ATOM     22  C   LIG d   1      -8.595  72.132 116.920  0.00  0.00     0.382 C 
ATOM     23  O   LIG d   1      -9.798  72.383 117.175  0.00  0.00    -0.241 OA
ATOM     24  O   LIG d   1      -8.240  70.952 116.739  0.00  0.00    -0.241 OA
ENDBRANCH   3  22
TORSDOF 7
ENDMDL
MODEL 2
REMARK VINA RESULT:      -5.6      2.322      5.438
REMARK  7 active torsions:
REMARK  status: ('A' for Active; 'I' for Inactive)
REMARK    1  A    between atoms: C_2  and  C_3 
REMARK    2  A    between atoms: C_3  and  O_6 
REMARK    3  A    between atoms: C_3  and  C_4 
REMARK    4  A    between atoms: C_7  and  O_6 
REMARK    5  A    between atoms: C_9  and  C_10 
REMARK    6  A    between atoms: N_15  and  C_14 
REMARK    7  A    between atoms: N_20  and  C_19 
REMARK       I    between atoms: C_22  and  N_20 
ROOT
ATOM      1  C   LIG d   1      -6.446  77.104 117.047  0.00  0.00     0.161 C 
ATOM      2  C   LIG d   1      -7.164  78.250 117.428  0.00  0.00     0.016 C 
ATOM      3  C   LIG d   1      -6.667  79.565 117.277  0.00  0.00     0.038 C 
ATOM      4  C   LIG d   1      -5.473  79.833 116.592  0.00  0.00     0.028 C 
ATOM      5  C   LIG d   1      -4.476  78.680 116.640  0.00  0.00    -0.047 C 
ATOM      6  C   LIG d   1      -5.188  77.382 116.197  0.00  0.00     0.091 C 
ENDROOT
BRANCH   1   7
ATOM      7  O   LIG d   1      -7.320  76.184 116.364  0.00  0.00    -0.368 OA
BRANCH   7   8
ATOM      8  C   LIG d   1      -7.838  75.088 117.157  0.00  0.00     0.119 C 
BRANCH   8   9
ATOM      9  C   LIG d   1      -7.142  73.800 116.677  0.00  0.00     0.028 C 
ATOM     10  C   LIG d   1      -6.040  73.333 117.643  0.00  0.00     0.006 C 
ENDBRANCH   8   9
BRANCH   8  11
ATOM     11  C   LIG d   1      -9.330  74.866 116.894  0.00  0.00     0.028 C 
ATOM     12  C   LIG d   1      -9.744  73.391 117.019  0.00  0.00     0.006 C 
ENDBRANCH   8  11
ENDBRANCH   7   8
ENDBRANCH   1   7
BRANCH   6  13
ATOM     13  N   LIG d   1      -4.307  76.189 116.295  0.00  0.00    -0.311 N 
ATOM     14  C   LIG d   1      -3.948  75.454 115.244  0.00  0.00     0.210 C 
ATOM     15  C   LIG d   1      -3.050  74.256 115.569  0.00  0.00     0.109 C 
ATOM     16  O   LIG d   1      -4.261  75.699 114.070  0.00  0.00    -0.276 OA
ATOM     17  H   LIG d   1      -3.981  75.937 117.208  0.00  0.00     0.149 HD
ENDBRANCH   6  13
BRANCH   5  18
ATOM     18  N   LIG d   1      -3.337  79.039 115.774  0.00  0.00     0.381 N 
ATOM     19  H   LIG d   1      -3.474  78.657 114.859  0.00  0.00    -0.090 HD
ATOM     20  H   LIG d   1      -2.498  78.642 116.159  0.00  0.00    -0.090 HD
ATOM     21  H   LIG d   1      -3.250  80.030 115.719  0.00  0.00    -0.090 HD
ENDBRANCH   5  18
BRANCH   3  22
ATOM     22  C   LIG d   1      -7.350  80.627 117.851  0.00  0.00     0.382 C 
ATOM     23  O   LIG d   1      -7.157  80.919 119.055  0.00  0.00    -0.241 OA
ATOM     24  O   LIG d   1      -8.189  81.269 117.191  0.00  0.00    -0.241 OA
ENDBRANCH   3  22
TORSDOF 7
ENDMDL
MODEL 3
REMARK VINA RESULT:      -5.6      2.936      5.232
REMARK  7 active torsions:
REMARK  status: ('A' for Active; 'I' for Inactive)
REMARK    1  A    between atoms: C_2  and  C_3 
REMARK    2  A    between atoms: C_3  and  O_6 
REMARK    3  A    between atoms: C_3  and  C_4 
REMARK    4  A    between atoms: C_7  and  O_6 
REMARK    5  A    between atoms: C_9  and  C_10 
REMARK    6  A    between atoms: N_15  and  C_14 
REMARK    7  A    between atoms: N_20  and  C_19 
REMARK       I    between atoms: C_22  and  N_20 
ROOT
ATOM      1  C   LIG d   1      -3.613  74.610 115.865  0.00  0.00     0.161 C 
ATOM      2  C   LIG d   1      -4.224  73.381 115.564  0.00  0.00     0.016 C 
ATOM      3  C   LIG d   1      -5.592  73.114 115.801  0.00  0.00     0.038 C 
ATOM      4  C   LIG d   1      -6.482  74.115 116.217  0.00  0.00     0.028 C 
ATOM      5  C   LIG d   1      -5.811  75.230 117.012  0.00  0.00    -0.047 C 
ATOM      6  C   LIG d   1      -4.592  75.750 116.216  0.00  0.00     0.091 C 
ENDROOT
BRANCH   1   7
ATOM      7  O   LIG d   1      -2.751  75.006 114.779  0.00  0.00    -0.368 OA
BRANCH   7   8
ATOM      8  C   LIG d   1      -1.328  74.968 115.049  0.00  0.00     0.119 C 
BRANCH   8   9
ATOM      9  C   LIG d   1      -1.142  74.424 116.479  0.00  0.00     0.028 C 
ATOM     10  C   LIG d   1      -0.297  75.362 117.357  0.00  0.00     0.006 C 
ENDBRANCH   8   9
BRANCH   8  11
ATOM     11  C   LIG d   1      -0.727  76.376 115.069  0.00  0.00     0.028 C 
ATOM     12  C   LIG d   1      -1.312  77.289 113.980  0.00  0.00     0.006 C 
ENDBRANCH   8  11
ENDBRANCH   7   8
ENDBRANCH   1   7
BRANCH   6  13
ATOM     13  N   LIG d   1      -3.828  76.785 116.961  0.00  0.00    -0.311 N 
ATOM     14  C   LIG d   1      -3.763  78.060 116.583  0.00  0.00     0.210 C 
ATOM     15  C   LIG d   1      -2.905  78.957 117.482  0.00  0.00     0.109 C 
ATOM     16  O   LIG d   1      -4.359  78.541 115.608  0.00  0.00    -0.276 OA
ATOM     17  H   LIG d   1      -3.339  76.488 117.782  0.00  0.00     0.149 HD
ENDBRANCH   6  13
BRANCH   5  18
ATOM     18  N   LIG d   1      -6.825  76.271 117.263  0.00  0.00     0.381 N 
ATOM     19  H   LIG d   1      -7.663  76.055 116.762  0.00  0.00    -0.090 HD
ATOM     20  H   LIG d   1      -6.476  77.152 116.928  0.00  0.00    -0.090 HD
ATOM     21  H   LIG d   1      -7.017  76.331 118.238  0.00  0.00    -0.090 HD
ENDBRANCH   5  18
BRANCH   3  22
ATOM     22  C   LIG d   1      -6.074  71.821 115.658  0.00  0.00     0.382 C 
ATOM     23  O   LIG d   1      -5.408  70.970 115.021  0.00  0.00    -0.241 OA
ATOM     24  O   LIG d   1      -7.187  71.508 116.121  0.00  0.00    -0.241 OA
ENDBRANCH   3  22
TORSDOF 7
ENDMDL
MODEL 4
REMARK VINA RESULT:      -5.4      2.382      5.086
REMARK  7 active torsions:
REMARK  status: ('A' for Active; 'I' for Inactive)
REMARK    1  A    between atoms: C_2  and  C_3 
REMARK    2  A    between atoms: C_3  and  O_6 
REMARK    3  A    between atoms: C_3  and  C_4 
REMARK    4  A    between atoms: C_7  and  O_6 
REMARK    5  A    between atoms: C_9  and  C_10 
REMARK    6  A    between atoms: N_15  and  C_14 
REMARK    7  A    between atoms: N_20  and  C_19 
REMARK       I    between atoms: C_22  and  N_20 
ROOT
ATOM      1  C   LIG d   1      -6.786  76.857 117.346  0.00  0.00     0.161 C 
ATOM      2  C   LIG d   1      -8.137  76.912 117.726  0.00  0.00     0.016 C 
ATOM      3  C   LIG d   1      -8.838  78.122 117.937  0.00  0.00     0.038 C 
ATOM      4  C   LIG d   1      -8.272  79.369 117.632  0.00  0.00     0.028 C 
ATOM      5  C   LIG d   1      -6.750  79.384 117.728  0.00  0.00    -0.047 C 
ATOM      6  C   LIG d   1      -6.184  78.207 116.901  0.00  0.00     0.091 C 
ENDROOT
BRANCH   1   7
ATOM      7  O   LIG d   1      -6.609  75.865 116.316  0.00  0.00    -0.368 OA
BRANCH   7   8
ATOM      8  C   LIG d   1      -5.718  74.768 116.634  0.00  0.00     0.119 C 
BRANCH   8   9
ATOM      9  C   LIG d   1      -4.997  74.364 115.333  0.00  0.00     0.028 C 
ATOM     10  C   LIG d   1      -4.942  75.513 114.312  0.00  0.00     0.006 C 
ENDBRANCH   8   9
BRANCH   8  11
ATOM     11  C   LIG d   1      -6.500  73.524 117.067  0.00  0.00     0.028 C 
ATOM     12  C   LIG d   1      -6.245  72.313 116.156  0.00  0.00     0.006 C 
ENDBRANCH   8  11
ENDBRANCH   7   8
ENDBRANCH   1   7
BRANCH   6  13
ATOM     13  N   LIG d   1      -4.706  78.097 117.009  0.00  0.00    -0.311 N 
ATOM     14  C   LIG d   1      -3.863  78.665 116.148  0.00  0.00     0.210 C 
ATOM     15  C   LIG d   1      -2.380  78.411 116.432  0.00  0.00     0.109 C 
ATOM     16  O   LIG d   1      -4.203  79.381 115.195  0.00  0.00    -0.276 OA
ATOM     17  H   LIG d   1      -4.343  77.559 117.772  0.00  0.00     0.149 HD
ENDBRANCH   6  13
BRANCH   5  18
ATOM     18  N   LIG d   1      -6.286  80.700 117.252  0.00  0.00     0.381 N 
ATOM     19  H   LIG d   1      -5.344  80.629 116.922  0.00  0.00    -0.090 HD
ATOM     20  H   LIG d   1      -6.303  81.348 118.020  0.00  0.00    -0.090 HD
ATOM     21  H   LIG d   1      -6.878  81.027 116.520  0.00  0.00    -0.090 HD
ENDBRANCH   5  18
BRANCH   3  22
ATOM     22  C   LIG d   1     -10.106  78.094 118.495  0.00  0.00     0.382 C 
ATOM     23  O   LIG d   1     -10.851  77.101 118.310  0.00  0.00    -0.241 OA
ATOM     24  O   LIG d   1     -10.532  79.067 119.146  0.00  0.00    -0.241 OA
ENDBRANCH   3  22
TORSDOF 7
ENDMDL
MODEL 5
REMARK VINA RESULT:      -5.3      2.486      4.065
REMARK  7 active torsions:
REMARK  status: ('A' for Active; 'I' for Inactive)
REMARK    1  A    between atoms: C_2  and  C_3 
REMARK    2  A    between atoms: C_3  and  O_6 
REMARK    3  A    between atoms: C_3  and  C_4 
REMARK    4  A    between atoms: C_7  and  O_6 
REMARK    5  A    between atoms: C_9  and  C_10 
REMARK    6  A    between atoms: N_15  and  C_14 
REMARK    7  A    between atoms: N_20  and  C_19 
REMARK       I    between atoms: C_22  and  N_20 
ROOT
ATOM      1  C   LIG d   1      -6.578  76.611 115.829  0.00  0.00     0.161 C 
ATOM      2  C   LIG d   1      -5.829  75.595 115.212  0.00  0.00     0.016 C 
ATOM      3  C   LIG d   1      -4.585  75.137 115.704  0.00  0.00     0.038 C 
ATOM      4  C   LIG d   1      -4.075  75.562 116.940  0.00  0.00     0.028 C 
ATOM      5  C   LIG d   1      -4.549  76.953 117.345  0.00  0.00    -0.047 C 
ATOM      6  C   LIG d   1      -6.090  77.008 117.238  0.00  0.00     0.091 C 
ENDROOT
BRANCH   1   7
ATOM      7  O   LIG d   1      -7.969  76.237 115.867  0.00  0.00    -0.368 OA
BRANCH   7   8
ATOM      8  C   LIG d   1      -8.426  75.602 117.087  0.00  0.00     0.119 C 
BRANCH   8   9
ATOM      9  C   LIG d   1      -8.321  74.079 116.883  0.00  0.00     0.028 C 
ATOM     10  C   LIG d   1      -9.675  73.369 117.055  0.00  0.00     0.006 C 
ENDBRANCH   8   9
BRANCH   8  11
ATOM     11  C   LIG d   1      -9.912  75.877 117.336  0.00  0.00     0.028 C 
ATOM     12  C   LIG d   1     -10.148  76.946 118.415  0.00  0.00     0.006 C 
ENDBRANCH   8  11
ENDBRANCH   7   8
ENDBRANCH   1   7
BRANCH   6  13
ATOM     13  N   LIG d   1      -6.631  78.360 117.536  0.00  0.00    -0.311 N 
ATOM     14  C   LIG d   1      -6.148  79.478 116.997  0.00  0.00     0.210 C 
ATOM     15  C   LIG d   1      -6.838  80.767 117.455  0.00  0.00     0.109 C 
ATOM     16  O   LIG d   1      -5.235  79.522 116.159  0.00  0.00    -0.276 OA
ATOM     17  H   LIG d   1      -7.394  78.414 118.182  0.00  0.00     0.149 HD
ENDBRANCH   6  13
BRANCH   5  18
ATOM     18  N   LIG d   1      -4.054  77.213 118.710  0.00  0.00     0.381 N 
ATOM     19  H   LIG d   1      -4.685  77.826 119.188  0.00  0.00    -0.090 HD
ATOM     20  H   LIG d   1      -3.159  77.666 118.650  0.00  0.00    -0.090 HD
ATOM     21  H   LIG d   1      -3.969  76.356 119.210  0.00  0.00    -0.090 HD
ENDBRANCH   5  18
BRANCH   3  22
ATOM     22  C   LIG d   1      -3.819  74.272 114.937  0.00  0.00     0.382 C 
ATOM     23  O   LIG d   1      -4.376  73.375 114.259  0.00  0.00    -0.241 OA
ATOM     24  O   LIG d   1      -2.576  74.349 114.950  0.00  0.00    -0.241 OA
ENDBRANCH   3  22
TORSDOF 7
ENDMDL
MODEL 6
REMARK VINA RESULT:      -5.3      2.294      4.823
REMARK  7 active torsions:
REMARK  status: ('A' for Active; 'I' for Inactive)
REMARK    1  A    between atoms: C_2  and  C_3 
REMARK    2  A    between atoms: C_3  and  O_6 
REMARK    3  A    between atoms: C_3  and  C_4 
REMARK    4  A    between atoms: C_7  and  O_6 
REMARK    5  A    between atoms: C_9  and  C_10 
REMARK    6  A    between atoms: N_15  and  C_14 
REMARK    7  A    between atoms: N_20  and  C_19 
REMARK       I    between atoms: C_22  and  N_20 
ROOT
ATOM      1  C   LIG d   1      -6.020  76.288 116.717  0.00  0.00     0.161 C 
ATOM      2  C   LIG d   1      -7.327  75.794 116.862  0.00  0.00     0.016 C 
ATOM      3  C   LIG d   1      -8.438  76.611 117.174  0.00  0.00     0.038 C 
ATOM      4  C   LIG d   1      -8.341  78.010 117.214  0.00  0.00     0.028 C 
ATOM      5  C   LIG d   1      -6.946  78.510 117.573  0.00  0.00    -0.047 C 
ATOM      6  C   LIG d   1      -5.914  77.825 116.647  0.00  0.00     0.091 C 
ENDROOT
BRANCH   1   7
ATOM      7  O   LIG d   1      -5.397  75.690 115.563  0.00  0.00    -0.368 OA
BRANCH   7   8
ATOM      8  C   LIG d   1      -4.438  74.637 115.830  0.00  0.00     0.119 C 
BRANCH   8   9
ATOM      9  C   LIG d   1      -3.068  75.116 115.313  0.00  0.00     0.028 C 
ATOM     10  C   LIG d   1      -1.897  74.493 116.090  0.00  0.00     0.006 C 
ENDBRANCH   8   9
BRANCH   8  11
ATOM     11  C   LIG d   1      -4.757  73.375 115.023  0.00  0.00     0.028 C 
ATOM     12  C   LIG d   1      -5.720  72.427 115.756  0.00  0.00     0.006 C 
ENDBRANCH   8  11
ENDBRANCH   7   8
ENDBRANCH   1   7
BRANCH   6  13
ATOM     13  N   LIG d   1      -4.515  78.195 116.986  0.00  0.00    -0.311 N 
ATOM     14  C   LIG d   1      -3.709  78.853 116.155  0.00  0.00     0.210 C 
ATOM     15  C   LIG d   1      -2.299  79.116 116.694  0.00  0.00     0.109 C 
ATOM     16  O   LIG d   1      -4.037  79.270 115.034  0.00  0.00    -0.276 OA
ATOM     17  H   LIG d   1      -4.177  77.923 117.888  0.00  0.00     0.149 HD
ENDBRANCH   6  13
BRANCH   5  18
ATOM     18  N   LIG d   1      -6.952  79.980 117.443  0.00  0.00     0.381 N 
ATOM     19  H   LIG d   1      -7.880  80.328 117.581  0.00  0.00    -0.090 HD
ATOM     20  H   LIG d   1      -6.657  80.226 116.515  0.00  0.00    -0.090 HD
ATOM     21  H   LIG d   1      -6.336  80.384 118.113  0.00  0.00    -0.090 HD
ENDBRANCH   5  18
BRANCH   3  22
ATOM     22  C   LIG d   1      -9.655  76.026 117.490  0.00  0.00     0.382 C 
ATOM     23  O   LIG d   1     -10.588  76.729 117.947  0.00  0.00    -0.241 OA
ATOM     24  O   LIG d   1      -9.816  74.797 117.366  0.00  0.00    -0.241 OA
ENDBRANCH   3  22
TORSDOF 7
ENDMDL
MODEL 7
REMARK VINA RESULT:      -5.2      2.495      5.482
REMARK  7 active torsions:
REMARK  status: ('A' for Active; 'I' for Inactive)
REMARK    1  A    between atoms: C_2  and  C_3 
REMARK    2  A    between atoms: C_3  and  O_6 
REMARK    3  A    between atoms: C_3  and  C_4 
REMARK    4  A    between atoms: C_7  and  O_6 
REMARK    5  A    between atoms: C_9  and  C_10 
REMARK    6  A    between atoms: N_15  and  C_14 
REMARK    7  A    between atoms: N_20  and  C_19 
REMARK       I    between atoms: C_22  and  N_20 
ROOT
ATOM      1  C   LIG d   1      -4.666  76.791 117.959  0.00  0.00     0.161 C 
ATOM      2  C   LIG d   1      -5.503  77.908 118.114  0.00  0.00     0.016 C 
ATOM      3  C   LIG d   1      -5.395  79.077 117.326  0.00  0.00     0.038 C 
ATOM      4  C   LIG d   1      -4.534  79.149 116.220  0.00  0.00     0.028 C 
ATOM      5  C   LIG d   1      -3.318  78.236 116.340  0.00  0.00    -0.047 C 
ATOM      6  C   LIG d   1      -3.795  76.807 116.686  0.00  0.00     0.091 C 
ENDROOT
BRANCH   1   7
ATOM      7  O   LIG d   1      -5.449  75.582 118.015  0.00  0.00    -0.368 OA
BRANCH   7   8
ATOM      8  C   LIG d   1      -6.030  75.141 116.763  0.00  0.00     0.119 C 
BRANCH   8   9
ATOM      9  C   LIG d   1      -7.562  75.164 116.930  0.00  0.00     0.028 C 
ATOM     10  C   LIG d   1      -8.219  76.318 116.154  0.00  0.00     0.006 C 
ENDBRANCH   8   9
BRANCH   8  11
ATOM     11  C   LIG d   1      -5.676  73.680 116.469  0.00  0.00     0.028 C 
ATOM     12  C   LIG d   1      -6.849  72.720 116.723  0.00  0.00     0.006 C 
ENDBRANCH   8  11
ENDBRANCH   7   8
ENDBRANCH   1   7
BRANCH   6  13
ATOM     13  N   LIG d   1      -2.663  75.869 116.903  0.00  0.00    -0.311 N 
ATOM     14  C   LIG d   1      -2.190  75.059 115.958  0.00  0.00     0.210 C 
ATOM     15  C   LIG d   1      -1.032  74.158 116.398  0.00  0.00     0.109 C 
ATOM     16  O   LIG d   1      -2.599  75.023 114.788  0.00  0.00    -0.276 OA
ATOM     17  H   LIG d   1      -2.251  75.855 117.816  0.00  0.00     0.149 HD
ENDBRANCH   6  13
BRANCH   5  18
ATOM     18  N   LIG d   1      -2.581  78.307 115.064  0.00  0.00     0.381 N 
ATOM     19  H   LIG d   1      -3.025  78.962 114.452  0.00  0.00    -0.090 HD
ATOM     20  H   LIG d   1      -2.601  77.403 114.626  0.00  0.00    -0.090 HD
ATOM     21  H   LIG d   1      -1.638  78.583 115.229  0.00  0.00    -0.090 HD
ENDBRANCH   5  18
BRANCH   3  22
ATOM     22  C   LIG d   1      -6.125  80.206 117.666  0.00  0.00     0.382 C 
ATOM     23  O   LIG d   1      -6.699  80.874 116.772  0.00  0.00    -0.241 OA
ATOM     24  O   LIG d   1      -6.182  80.589 118.849  0.00  0.00    -0.241 OA
ENDBRANCH   3  22
TORSDOF 7
ENDMDL
MODEL 8
REMARK VINA RESULT:      -4.9      2.657      5.730
REMARK  7 active torsions:
REMARK  status: ('A' for Active; 'I' for Inactive)
REMARK    1  A    between atoms: C_2  and  C_3 
REMARK    2  A    between atoms: C_3  and  O_6 
REMARK    3  A    between atoms: C_3  and  C_4 
REMARK    4  A    between atoms: C_7  and  O_6 
REMARK    5  A    between atoms: C_9  and  C_10 
REMARK    6  A    between atoms: N_15  and  C_14 
REMARK    7  A    between atoms: N_20  and  C_19 
REMARK       I    between atoms: C_22  and  N_20 
ROOT
ATOM      1  C   LIG d   1      -4.452  77.073 117.645  0.00  0.00     0.161 C 
ATOM      2  C   LIG d   1      -4.012  78.294 118.184  0.00  0.00     0.016 C 
ATOM      3  C   LIG d   1      -3.065  79.129 117.547  0.00  0.00     0.038 C 
ATOM      4  C   LIG d   1      -2.603  78.870 116.248  0.00  0.00     0.028 C 
ATOM      5  C   LIG d   1      -2.635  77.392 115.877  0.00  0.00    -0.047 C 
ATOM      6  C   LIG d   1      -4.043  76.829 116.177  0.00  0.00     0.091 C 
ENDROOT
BRANCH   1   7
ATOM      7  O   LIG d   1      -5.881  76.961 117.793  0.00  0.00    -0.368 OA
BRANCH   7   8
ATOM      8  C   LIG d   1      -6.680  77.603 116.769  0.00  0.00     0.119 C 
BRANCH   8   9
ATOM      9  C   LIG d   1      -7.605  78.617 117.471  0.00  0.00     0.028 C 
ATOM     10  C   LIG d   1      -7.075  80.057 117.377  0.00  0.00     0.006 C 
ENDBRANCH   8   9
BRANCH   8  11
ATOM     11  C   LIG d   1      -7.618  76.604 116.085  0.00  0.00     0.028 C 
ATOM     12  C   LIG d   1      -7.749  75.283 116.860  0.00  0.00     0.006 C 
ENDBRANCH   8  11
ENDBRANCH   7   8
ENDBRANCH   1   7
BRANCH   6  13
ATOM     13  N   LIG d   1      -4.136  75.368 115.922  0.00  0.00    -0.311 N 
ATOM     14  C   LIG d   1      -4.560  74.851 114.770  0.00  0.00     0.210 C 
ATOM     15  C   LIG d   1      -4.598  73.320 114.723  0.00  0.00     0.109 C 
ATOM     16  O   LIG d   1      -4.877  75.514 113.771  0.00  0.00    -0.276 OA
ATOM     17  H   LIG d   1      -3.868  74.756 116.668  0.00  0.00     0.149 HD
ENDBRANCH   6  13
BRANCH   5  18
ATOM     18  N   LIG d   1      -2.260  77.281 114.454  0.00  0.00     0.381 N 
ATOM     19  H   LIG d   1      -1.313  76.968 114.377  0.00  0.00    -0.090 HD
ATOM     20  H   LIG d   1      -2.328  78.189 114.029  0.00  0.00    -0.090 HD
ATOM     21  H   LIG d   1      -2.867  76.642 113.990  0.00  0.00    -0.090 HD
ENDBRANCH   5  18
BRANCH   3  22
ATOM     22  C   LIG d   1      -2.539  80.216 118.229  0.00  0.00     0.382 C 
ATOM     23  O   LIG d   1      -1.360  80.582 118.010  0.00  0.00    -0.241 OA
ATOM     24  O   LIG d   1      -3.216  80.807 119.092  0.00  0.00    -0.241 OA
ENDBRANCH   3  22
TORSDOF 7
ENDMDL
MODEL 9
REMARK VINA RESULT:      -4.9      2.426      5.038
REMARK  7 active torsions:
REMARK  status: ('A' for Active; 'I' for Inactive)
REMARK    1  A    between atoms: C_2  and  C_3 
REMARK    2  A    between atoms: C_3  and  O_6 
REMARK    3  A    between atoms: C_3  and  C_4 
REMARK    4  A    between atoms: C_7  and  O_6 
REMARK    5  A    between atoms: C_9  and  C_10 
REMARK    6  A    between atoms: N_15  and  C_14 
REMARK    7  A    between atoms: N_20  and  C_19 
REMARK       I    between atoms: C_22  and  N_20 
ROOT
ATOM      1  C   LIG d   1      -5.947  77.062 117.912  0.00  0.00     0.161 C 
ATOM      2  C   LIG d   1      -7.311  76.737 117.999  0.00  0.00     0.016 C 
ATOM      3  C   LIG d   1      -8.348  77.688 117.854  0.00  0.00     0.038 C 
ATOM      4  C   LIG d   1      -8.093  79.009 117.459  0.00  0.00     0.028 C 
ATOM      5  C   LIG d   1      -6.705  79.502 117.853  0.00  0.00    -0.047 C 
ATOM      6  C   LIG d   1      -5.653  78.477 117.371  0.00  0.00     0.091 C 
ENDROOT
BRANCH   1   7
ATOM      7  O   LIG d   1      -5.259  76.071 117.124  0.00  0.00    -0.368 OA
BRANCH   7   8
ATOM      8  C   LIG d   1      -6.096  75.194 116.330  0.00  0.00     0.119 C 
BRANCH   8   9
ATOM      9  C   LIG d   1      -5.892  73.760 116.855  0.00  0.00     0.028 C 
ATOM     10  C   LIG d   1      -7.220  73.004 117.029  0.00  0.00     0.006 C 
ENDBRANCH   8   9
BRANCH   8  11
ATOM     11  C   LIG d   1      -5.639  75.160 114.869  0.00  0.00     0.028 C 
ATOM     12  C   LIG d   1      -4.596  74.065 114.596  0.00  0.00     0.006 C 
ENDBRANCH   8  11
ENDBRANCH   7   8
ENDBRANCH   1   7
BRANCH   6  13
ATOM     13  N   LIG d   1      -4.274  78.840 117.790  0.00  0.00    -0.311 N 
ATOM     14  C   LIG d   1      -3.308  79.162 116.931  0.00  0.00     0.210 C 
ATOM     15  C   LIG d   1      -1.954  79.484 117.571  0.00  0.00     0.109 C 
ATOM     16  O   LIG d   1      -3.452  79.243 115.702  0.00  0.00    -0.276 OA
ATOM     17  H   LIG d   1      -4.078  78.831 118.771  0.00  0.00     0.149 HD
ENDBRANCH   6  13
BRANCH   5  18
ATOM     18  N   LIG d   1      -6.522  80.840 117.261  0.00  0.00     0.381 N 
ATOM     19  H   LIG d   1      -6.634  81.541 117.966  0.00  0.00    -0.090 HD
ATOM     20  H   LIG d   1      -7.226  80.984 116.559  0.00  0.00    -0.090 HD
ATOM     21  H   LIG d   1      -5.616  80.911 116.852  0.00  0.00    -0.090 HD
ENDBRANCH   5  18
BRANCH   3  22
ATOM     22  C   LIG d   1      -9.655  77.328 118.145  0.00  0.00     0.382 C 
ATOM     23  O   LIG d   1     -10.464  78.190 118.568  0.00  0.00    -0.241 OA
ATOM     24  O   LIG d   1     -10.025  76.144 118.032  0.00  0.00    -0.241 OA
ENDBRANCH   3  22
TORSDOF 7
ENDMDL
