MODEL 1
REMARK VINA RESULT:      -5.5      0.000      0.000
REMARK  7 active torsions:
REMARK  status: ('A' for Active; 'I' for Inactive)
REMARK    1  A    between atoms: C_2  and  C_3 
REMARK    2  A    between atoms: C_3  and  O_6 
REMARK    3  A    between atoms: C_3  and  C_4 
REMARK    4  A    between atoms: C_7  and  O_6 
REMARK    5  A    between atoms: C_9  and  C_10 
REMARK    6  A    between atoms: N_15  and  C_14 
REMARK    7  A    between atoms: N_20  and  C_19 
REMARK       I    between atoms: C_22  and  N_20 
ROOT
ATOM      1  C   LIG d   1      -7.437  75.671 117.715  0.00  0.00     0.161 C 
ATOM      2  C   LIG d   1      -8.765  75.999 118.034  0.00  0.00     0.016 C 
ATOM      3  C   LIG d   1      -9.195  77.315 118.321  0.00  0.00     0.038 C 
ATOM      4  C   LIG d   1      -8.350  78.423 118.159  0.00  0.00     0.028 C 
ATOM      5  C   LIG d   1      -6.872  78.087 118.328  0.00  0.00    -0.047 C 
ATOM      6  C   LIG d   1      -6.525  76.882 117.425  0.00  0.00     0.091 C 
ENDROOT
BRANCH   1   7
ATOM      7  O   LIG d   1      -7.413  74.749 116.608  0.00  0.00    -0.368 OA
BRANCH   7   8
ATOM      8  C   LIG d   1      -7.155  73.362 116.939  0.00  0.00     0.119 C 
BRANCH   8   9
ATOM      9  C   LIG d   1      -6.284  72.772 115.813  0.00  0.00     0.028 C 
ATOM     10  C   LIG d   1      -5.562  73.859 114.999  0.00  0.00     0.006 C 
ENDBRANCH   8   9
BRANCH   8  11
ATOM     11  C   LIG d   1      -8.445  72.537 116.928  0.00  0.00     0.028 C 
ATOM     12  C   LIG d   1      -8.184  71.024 116.881  0.00  0.00     0.006 C 
ENDBRANCH   8  11
ENDBRANCH   7   8
ENDBRANCH   1   7
BRANCH   6  13
ATOM     13  N   LIG d   1      -5.117  76.434 117.594  0.00  0.00    -0.311 N 
ATOM     14  C   LIG d   1      -4.119  76.848 116.815  0.00  0.00     0.210 C 
ATOM     15  C   LIG d   1      -2.749  76.248 117.148  0.00  0.00     0.109 C 
ATOM     16  O   LIG d   1      -4.232  77.678 115.901  0.00  0.00    -0.276 OA
ATOM     17  H   LIG d   1      -4.930  75.784 118.331  0.00  0.00     0.149 HD
ENDBRANCH   6  13
BRANCH   5  18
ATOM     18  N   LIG d   1      -6.099  79.299 117.998  0.00  0.00     0.381 N 
ATOM     19  H   LIG d   1      -5.317  79.381 118.616  0.00  0.00    -0.090 HD
ATOM     20  H   LIG d   1      -6.687  80.104 118.125  0.00  0.00    -0.090 HD
ATOM     21  H   LIG d   1      -5.783  79.255 117.054  0.00  0.00    -0.090 HD
ENDBRANCH   5  18
BRANCH   3  22
ATOM     22  C   LIG d   1     -10.474  77.528 118.813  0.00  0.00     0.382 C 
ATOM     23  O   LIG d   1     -10.726  78.565 119.473  0.00  0.00    -0.241 OA
ATOM     24  O   LIG d   1     -11.366  76.676 118.645  0.00  0.00    -0.241 OA
ENDBRANCH   3  22
TORSDOF 7
ENDMDL
MODEL 2
REMARK VINA RESULT:      -5.2      3.855      6.518
REMARK  7 active torsions:
REMARK  status: ('A' for Active; 'I' for Inactive)
REMARK    1  A    between atoms: C_2  and  C_3 
REMARK    2  A    between atoms: C_3  and  O_6 
REMARK    3  A    between atoms: C_3  and  C_4 
REMARK    4  A    between atoms: C_7  and  O_6 
REMARK    5  A    between atoms: C_9  and  C_10 
REMARK    6  A    between atoms: N_15  and  C_14 
REMARK    7  A    between atoms: N_20  and  C_19 
REMARK       I    between atoms: C_22  and  N_20 
ROOT
ATOM      1  C   LIG d   1      -3.217  76.158 115.171  0.00  0.00     0.161 C 
ATOM      2  C   LIG d   1      -3.269  77.266 114.309  0.00  0.00     0.016 C 
ATOM      3  C   LIG d   1      -2.122  77.974 113.882  0.00  0.00     0.038 C 
ATOM      4  C   LIG d   1      -0.824  77.526 114.168  0.00  0.00     0.028 C 
ATOM      5  C   LIG d   1      -0.736  76.705 115.451  0.00  0.00    -0.047 C 
ATOM      6  C   LIG d   1      -1.802  75.587 115.405  0.00  0.00     0.091 C 
ENDROOT
BRANCH   1   7
ATOM      7  O   LIG d   1      -4.101  75.125 114.693  0.00  0.00    -0.368 OA
BRANCH   7   8
ATOM      8  C   LIG d   1      -5.242  74.824 115.534  0.00  0.00     0.119 C 
BRANCH   8   9
ATOM      9  C   LIG d   1      -5.782  73.446 115.105  0.00  0.00     0.028 C 
ATOM     10  C   LIG d   1      -6.741  72.842 116.144  0.00  0.00     0.006 C 
ENDBRANCH   8   9
BRANCH   8  11
ATOM     11  C   LIG d   1      -6.392  75.805 115.286  0.00  0.00     0.028 C 
ATOM     12  C   LIG d   1      -6.888  76.478 116.576  0.00  0.00     0.006 C 
ENDBRANCH   8  11
ENDBRANCH   7   8
ENDBRANCH   1   7
BRANCH   6  13
ATOM     13  N   LIG d   1      -1.841  74.789 116.658  0.00  0.00    -0.311 N 
ATOM     14  C   LIG d   1      -1.233  73.612 116.797  0.00  0.00     0.210 C 
ATOM     15  C   LIG d   1      -1.416  72.947 118.165  0.00  0.00     0.109 C 
ATOM     16  O   LIG d   1      -0.532  73.071 115.928  0.00  0.00    -0.276 OA
ATOM     17  H   LIG d   1      -2.362  75.168 117.424  0.00  0.00     0.149 HD
ENDBRANCH   6  13
BRANCH   5  18
ATOM     18  N   LIG d   1       0.641  76.188 115.555  0.00  0.00     0.381 N 
ATOM     19  H   LIG d   1       0.890  75.716 114.709  0.00  0.00    -0.090 HD
ATOM     20  H   LIG d   1       0.683  75.525 116.309  0.00  0.00    -0.090 HD
ATOM     21  H   LIG d   1       1.275  76.937 115.725  0.00  0.00    -0.090 HD
ENDBRANCH   5  18
BRANCH   3  22
ATOM     22  C   LIG d   1      -2.270  79.168 113.191  0.00  0.00     0.382 C 
ATOM     23  O   LIG d   1      -1.273  79.903 112.991  0.00  0.00    -0.241 OA
ATOM     24  O   LIG d   1      -3.394  79.540 112.805  0.00  0.00    -0.241 OA
ENDBRANCH   3  22
TORSDOF 7
ENDMDL
MODEL 3
REMARK VINA RESULT:      -5.2     12.446     15.622
REMARK  7 active torsions:
REMARK  status: ('A' for Active; 'I' for Inactive)
REMARK    1  A    between atoms: C_2  and  C_3 
REMARK    2  A    between atoms: C_3  and  O_6 
REMARK    3  A    between atoms: C_3  and  C_4 
REMARK    4  A    between atoms: C_7  and  O_6 
REMARK    5  A    between atoms: C_9  and  C_10 
REMARK    6  A    between atoms: N_15  and  C_14 
REMARK    7  A    between atoms: N_20  and  C_19 
REMARK       I    between atoms: C_22  and  N_20 
ROOT
ATOM      1  C   LIG d   1     -16.547  64.675 116.663  0.00  0.00     0.161 C 
ATOM      2  C   LIG d   1     -15.934  65.915 116.907  0.00  0.00     0.016 C 
ATOM      3  C   LIG d   1     -15.446  66.757 115.881  0.00  0.00     0.038 C 
ATOM      4  C   LIG d   1     -15.675  66.483 114.525  0.00  0.00     0.028 C 
ATOM      5  C   LIG d   1     -15.843  64.997 114.227  0.00  0.00    -0.047 C 
ATOM      6  C   LIG d   1     -16.905  64.410 115.185  0.00  0.00     0.091 C 
ENDROOT
BRANCH   1   7
ATOM      7  O   LIG d   1     -17.716  64.535 117.494  0.00  0.00    -0.368 OA
BRANCH   7   8
ATOM      8  C   LIG d   1     -18.938  65.119 116.980  0.00  0.00     0.119 C 
BRANCH   8   9
ATOM      9  C   LIG d   1     -19.384  66.210 117.972  0.00  0.00     0.028 C 
ATOM     10  C   LIG d   1     -19.837  67.498 117.263  0.00  0.00     0.006 C 
ENDBRANCH   8   9
BRANCH   8  11
ATOM     11  C   LIG d   1     -20.079  64.097 116.961  0.00  0.00     0.028 C 
ATOM     12  C   LIG d   1     -21.029  64.286 115.768  0.00  0.00     0.006 C 
ENDBRANCH   8  11
ENDBRANCH   7   8
ENDBRANCH   1   7
BRANCH   6  13
ATOM     13  N   LIG d   1     -17.071  62.943 115.018  0.00  0.00    -0.311 N 
ATOM     14  C   LIG d   1     -17.964  62.394 114.197  0.00  0.00     0.210 C 
ATOM     15  C   LIG d   1     -17.982  60.862 114.191  0.00  0.00     0.109 C 
ATOM     16  O   LIG d   1     -18.721  63.031 113.448  0.00  0.00    -0.276 OA
ATOM     17  H   LIG d   1     -16.475  62.352 115.565  0.00  0.00     0.149 HD
ENDBRANCH   6  13
BRANCH   5  18
ATOM     18  N   LIG d   1     -16.212  64.866 112.805  0.00  0.00     0.381 N 
ATOM     19  H   LIG d   1     -15.610  64.203 112.359  0.00  0.00    -0.090 HD
ATOM     20  H   LIG d   1     -16.091  65.756 112.355  0.00  0.00    -0.090 HD
ATOM     21  H   LIG d   1     -17.160  64.570 112.725  0.00  0.00    -0.090 HD
ENDBRANCH   5  18
BRANCH   3  22
ATOM     22  C   LIG d   1     -14.685  67.869 116.209  0.00  0.00     0.382 C 
ATOM     23  O   LIG d   1     -15.012  69.001 115.779  0.00  0.00    -0.241 OA
ATOM     24  O   LIG d   1     -13.651  67.747 116.892  0.00  0.00    -0.241 OA
ENDBRANCH   3  22
TORSDOF 7
ENDMDL
MODEL 4
REMARK VINA RESULT:      -5.2      1.158      1.664
REMARK  7 active torsions:
REMARK  status: ('A' for Active; 'I' for Inactive)
REMARK    1  A    between atoms: C_2  and  C_3 
REMARK    2  A    between atoms: C_3  and  O_6 
REMARK    3  A    between atoms: C_3  and  C_4 
REMARK    4  A    between atoms: C_7  and  O_6 
REMARK    5  A    between atoms: C_9  and  C_10 
REMARK    6  A    between atoms: N_15  and  C_14 
REMARK    7  A    between atoms: N_20  and  C_19 
REMARK       I    between atoms: C_22  and  N_20 
ROOT
ATOM      1  C   LIG d   1      -7.022  75.856 117.399  0.00  0.00     0.161 C 
ATOM      2  C   LIG d   1      -8.414  75.673 117.431  0.00  0.00     0.016 C 
ATOM      3  C   LIG d   1      -9.320  76.668 117.865  0.00  0.00     0.038 C 
ATOM      4  C   LIG d   1      -8.902  77.976 118.155  0.00  0.00     0.028 C 
ATOM      5  C   LIG d   1      -7.452  78.059 118.620  0.00  0.00    -0.047 C 
ATOM      6  C   LIG d   1      -6.556  77.313 117.606  0.00  0.00     0.091 C 
ENDROOT
BRANCH   1   7
ATOM      7  O   LIG d   1      -6.488  75.330 116.168  0.00  0.00    -0.368 OA
BRANCH   7   8
ATOM      8  C   LIG d   1      -5.633  74.166 116.290  0.00  0.00     0.119 C 
BRANCH   8   9
ATOM      9  C   LIG d   1      -4.320  74.477 115.546  0.00  0.00     0.028 C 
ATOM     10  C   LIG d   1      -3.077  74.212 116.413  0.00  0.00     0.006 C 
ENDBRANCH   8   9
BRANCH   8  11
ATOM     11  C   LIG d   1      -6.232  72.956 115.567  0.00  0.00     0.028 C 
ATOM     12  C   LIG d   1      -7.247  72.189 116.429  0.00  0.00     0.006 C 
ENDBRANCH   8  11
ENDBRANCH   7   8
ENDBRANCH   1   7
BRANCH   6  13
ATOM     13  N   LIG d   1      -5.132  77.274 118.029  0.00  0.00    -0.311 N 
ATOM     14  C   LIG d   1      -4.139  77.797 117.312  0.00  0.00     0.210 C 
ATOM     15  C   LIG d   1      -2.743  77.630 117.921  0.00  0.00     0.109 C 
ATOM     16  O   LIG d   1      -4.286  78.413 116.245  0.00  0.00    -0.276 OA
ATOM     17  H   LIG d   1      -4.927  76.821 118.898  0.00  0.00     0.149 HD
ENDBRANCH   6  13
BRANCH   5  18
ATOM     18  N   LIG d   1      -7.109  79.487 118.754  0.00  0.00     0.381 N 
ATOM     19  H   LIG d   1      -7.025  79.726 119.722  0.00  0.00    -0.090 HD
ATOM     20  H   LIG d   1      -7.849  80.038 118.356  0.00  0.00    -0.090 HD
ATOM     21  H   LIG d   1      -6.252  79.678 118.282  0.00  0.00    -0.090 HD
ENDBRANCH   5  18
BRANCH   3  22
ATOM     22  C   LIG d   1     -10.656  76.348 118.050  0.00  0.00     0.382 C 
ATOM     23  O   LIG d   1     -11.190  75.456 117.347  0.00  0.00    -0.241 OA
ATOM     24  O   LIG d   1     -11.345  76.969 118.881  0.00  0.00    -0.241 OA
ENDBRANCH   3  22
TORSDOF 7
ENDMDL
MODEL 5
REMARK VINA RESULT:      -5.2      2.066      5.084
REMARK  7 active torsions:
REMARK  status: ('A' for Active; 'I' for Inactive)
REMARK    1  A    between atoms: C_2  and  C_3 
REMARK    2  A    between atoms: C_3  and  O_6 
REMARK    3  A    between atoms: C_3  and  C_4 
REMARK    4  A    between atoms: C_7  and  O_6 
REMARK    5  A    between atoms: C_9  and  C_10 
REMARK    6  A    between atoms: N_15  and  C_14 
REMARK    7  A    between atoms: N_20  and  C_19 
REMARK       I    between atoms: C_22  and  N_20 
ROOT
ATOM      1  C   LIG d   1      -7.578  75.241 117.563  0.00  0.00     0.161 C 
ATOM      2  C   LIG d   1      -7.860  73.895 117.277  0.00  0.00     0.016 C 
ATOM      3  C   LIG d   1      -6.989  73.055 116.545  0.00  0.00     0.038 C 
ATOM      4  C   LIG d   1      -5.699  73.466 116.177  0.00  0.00     0.028 C 
ATOM      5  C   LIG d   1      -5.571  74.976 116.004  0.00  0.00    -0.047 C 
ATOM      6  C   LIG d   1      -6.127  75.674 117.266  0.00  0.00     0.091 C 
ENDROOT
BRANCH   1   7
ATOM      7  O   LIG d   1      -7.916  75.530 118.934  0.00  0.00    -0.368 OA
BRANCH   7   8
ATOM      8  C   LIG d   1      -9.117  76.314 119.142  0.00  0.00     0.119 C 
BRANCH   8   9
ATOM      9  C   LIG d   1      -9.831  76.436 117.782  0.00  0.00     0.028 C 
ATOM     10  C   LIG d   1     -11.190  75.715 117.765  0.00  0.00     0.006 C 
ENDBRANCH   8   9
BRANCH   8  11
ATOM     11  C   LIG d   1      -8.781  77.750 119.555  0.00  0.00     0.028 C 
ATOM     12  C   LIG d   1      -9.178  78.784 118.490  0.00  0.00     0.006 C 
ENDBRANCH   8  11
ENDBRANCH   7   8
ENDBRANCH   1   7
BRANCH   6  13
ATOM     13  N   LIG d   1      -6.116  77.156 117.145  0.00  0.00    -0.311 N 
ATOM     14  C   LIG d   1      -5.429  77.953 117.961  0.00  0.00     0.210 C 
ATOM     15  C   LIG d   1      -5.572  79.451 117.673  0.00  0.00     0.109 C 
ATOM     16  O   LIG d   1      -4.689  77.560 118.876  0.00  0.00    -0.276 OA
ATOM     17  H   LIG d   1      -6.665  77.557 116.410  0.00  0.00     0.149 HD
ENDBRANCH   6  13
BRANCH   5  18
ATOM     18  N   LIG d   1      -4.148  75.276 115.757  0.00  0.00     0.381 N 
ATOM     19  H   LIG d   1      -3.659  74.434 115.525  0.00  0.00    -0.090 HD
ATOM     20  H   LIG d   1      -3.745  75.654 116.597  0.00  0.00    -0.090 HD
ATOM     21  H   LIG d   1      -4.062  75.934 115.014  0.00  0.00    -0.090 HD
ENDBRANCH   5  18
BRANCH   3  22
ATOM     22  C   LIG d   1      -7.423  71.802 116.139  0.00  0.00     0.382 C 
ATOM     23  O   LIG d   1      -8.505  71.341 116.575  0.00  0.00    -0.241 OA
ATOM     24  O   LIG d   1      -6.723  71.108 115.377  0.00  0.00    -0.241 OA
ENDBRANCH   3  22
TORSDOF 7
ENDMDL
MODEL 6
REMARK VINA RESULT:      -4.9      3.785      6.788
REMARK  7 active torsions:
REMARK  status: ('A' for Active; 'I' for Inactive)
REMARK    1  A    between atoms: C_2  and  C_3 
REMARK    2  A    between atoms: C_3  and  O_6 
REMARK    3  A    between atoms: C_3  and  C_4 
REMARK    4  A    between atoms: C_7  and  O_6 
REMARK    5  A    between atoms: C_9  and  C_10 
REMARK    6  A    between atoms: N_15  and  C_14 
REMARK    7  A    between atoms: N_20  and  C_19 
REMARK       I    between atoms: C_22  and  N_20 
ROOT
ATOM      1  C   LIG d   1      -3.018  74.022 116.075  0.00  0.00     0.161 C 
ATOM      2  C   LIG d   1      -2.084  75.016 115.739  0.00  0.00     0.016 C 
ATOM      3  C   LIG d   1      -2.437  76.242 115.129  0.00  0.00     0.038 C 
ATOM      4  C   LIG d   1      -3.776  76.622 114.951  0.00  0.00     0.028 C 
ATOM      5  C   LIG d   1      -4.728  75.439 114.813  0.00  0.00    -0.047 C 
ATOM      6  C   LIG d   1      -4.494  74.466 115.990  0.00  0.00     0.091 C 
ENDROOT
BRANCH   1   7
ATOM      7  O   LIG d   1      -2.727  73.501 117.388  0.00  0.00    -0.368 OA
BRANCH   7   8
ATOM      8  C   LIG d   1      -1.610  74.110 118.081  0.00  0.00     0.119 C 
BRANCH   8   9
ATOM      9  C   LIG d   1      -0.629  72.982 118.457  0.00  0.00     0.028 C 
ATOM     10  C   LIG d   1      -1.186  72.061 119.555  0.00  0.00     0.006 C 
ENDBRANCH   8   9
BRANCH   8  11
ATOM     11  C   LIG d   1      -2.049  74.725 119.413  0.00  0.00     0.028 C 
ATOM     12  C   LIG d   1      -2.892  75.998 119.232  0.00  0.00     0.006 C 
ENDBRANCH   8  11
ENDBRANCH   7   8
ENDBRANCH   1   7
BRANCH   6  13
ATOM     13  N   LIG d   1      -5.327  73.239 115.886  0.00  0.00    -0.311 N 
ATOM     14  C   LIG d   1      -6.560  73.147 116.380  0.00  0.00     0.210 C 
ATOM     15  C   LIG d   1      -7.236  71.786 116.182  0.00  0.00     0.109 C 
ATOM     16  O   LIG d   1      -7.171  74.072 116.936  0.00  0.00    -0.276 OA
ATOM     17  H   LIG d   1      -4.921  72.450 115.422  0.00  0.00     0.149 HD
ENDBRANCH   6  13
BRANCH   5  18
ATOM     18  N   LIG d   1      -6.102  75.976 114.771  0.00  0.00     0.381 N 
ATOM     19  H   LIG d   1      -6.199  76.600 113.995  0.00  0.00    -0.090 HD
ATOM     20  H   LIG d   1      -6.274  76.493 115.615  0.00  0.00    -0.090 HD
ATOM     21  H   LIG d   1      -6.757  75.230 114.691  0.00  0.00    -0.090 HD
ENDBRANCH   5  18
BRANCH   3  22
ATOM     22  C   LIG d   1      -1.444  77.084 114.655  0.00  0.00     0.382 C 
ATOM     23  O   LIG d   1      -1.502  77.522 113.480  0.00  0.00    -0.241 OA
ATOM     24  O   LIG d   1      -0.468  77.376 115.371  0.00  0.00    -0.241 OA
ENDBRANCH   3  22
TORSDOF 7
ENDMDL
MODEL 7
REMARK VINA RESULT:      -4.9      2.405      4.918
REMARK  7 active torsions:
REMARK  status: ('A' for Active; 'I' for Inactive)
REMARK    1  A    between atoms: C_2  and  C_3 
REMARK    2  A    between atoms: C_3  and  O_6 
REMARK    3  A    between atoms: C_3  and  C_4 
REMARK    4  A    between atoms: C_7  and  O_6 
REMARK    5  A    between atoms: C_9  and  C_10 
REMARK    6  A    between atoms: N_15  and  C_14 
REMARK    7  A    between atoms: N_20  and  C_19 
REMARK       I    between atoms: C_22  and  N_20 
ROOT
ATOM      1  C   LIG d   1      -5.452  74.911 116.363  0.00  0.00     0.161 C 
ATOM      2  C   LIG d   1      -6.042  73.664 116.095  0.00  0.00     0.016 C 
ATOM      3  C   LIG d   1      -7.270  73.248 116.658  0.00  0.00     0.038 C 
ATOM      4  C   LIG d   1      -8.072  74.116 117.413  0.00  0.00     0.028 C 
ATOM      5  C   LIG d   1      -7.279  75.208 118.124  0.00  0.00    -0.047 C 
ATOM      6  C   LIG d   1      -6.365  75.914 117.096  0.00  0.00     0.091 C 
ENDROOT
BRANCH   1   7
ATOM      7  O   LIG d   1      -4.953  75.488 115.140  0.00  0.00    -0.368 OA
BRANCH   7   8
ATOM      8  C   LIG d   1      -3.512  75.591 115.025  0.00  0.00     0.119 C 
BRANCH   8   9
ATOM      9  C   LIG d   1      -2.902  75.021 116.320  0.00  0.00     0.028 C 
ATOM     10  C   LIG d   1      -1.727  74.067 116.044  0.00  0.00     0.006 C 
ENDBRANCH   8   9
BRANCH   8  11
ATOM     11  C   LIG d   1      -3.061  77.054 114.974  0.00  0.00     0.028 C 
ATOM     12  C   LIG d   1      -2.141  77.353 113.780  0.00  0.00     0.006 C 
ENDBRANCH   8  11
ENDBRANCH   7   8
ENDBRANCH   1   7
BRANCH   6  13
ATOM     13  N   LIG d   1      -5.493  76.941 117.725  0.00  0.00    -0.311 N 
ATOM     14  C   LIG d   1      -5.794  78.238 117.757  0.00  0.00     0.210 C 
ATOM     15  C   LIG d   1      -4.748  79.127 118.436  0.00  0.00     0.109 C 
ATOM     16  O   LIG d   1      -6.843  78.732 117.318  0.00  0.00    -0.276 OA
ATOM     17  H   LIG d   1      -4.636  76.623 118.134  0.00  0.00     0.149 HD
ENDBRANCH   6  13
BRANCH   5  18
ATOM     18  N   LIG d   1      -8.248  76.120 118.760  0.00  0.00     0.381 N 
ATOM     19  H   LIG d   1      -9.131  75.660 118.860  0.00  0.00    -0.090 HD
ATOM     20  H   LIG d   1      -8.376  76.922 118.168  0.00  0.00    -0.090 HD
ATOM     21  H   LIG d   1      -7.911  76.408 119.652  0.00  0.00    -0.090 HD
ENDBRANCH   5  18
BRANCH   3  22
ATOM     22  C   LIG d   1      -7.688  71.935 116.499  0.00  0.00     0.382 C 
ATOM     23  O   LIG d   1      -8.610  71.480 117.218  0.00  0.00    -0.241 OA
ATOM     24  O   LIG d   1      -7.126  71.188 115.677  0.00  0.00    -0.241 OA
ENDBRANCH   3  22
TORSDOF 7
ENDMDL
MODEL 8
REMARK VINA RESULT:      -4.6      3.454      5.830
REMARK  7 active torsions:
REMARK  status: ('A' for Active; 'I' for Inactive)
REMARK    1  A    between atoms: C_2  and  C_3 
REMARK    2  A    between atoms: C_3  and  O_6 
REMARK    3  A    between atoms: C_3  and  C_4 
REMARK    4  A    between atoms: C_7  and  O_6 
REMARK    5  A    between atoms: C_9  and  C_10 
REMARK    6  A    between atoms: N_15  and  C_14 
REMARK    7  A    between atoms: N_20  and  C_19 
REMARK       I    between atoms: C_22  and  N_20 
ROOT
ATOM      1  C   LIG d   1      -3.513  76.336 117.552  0.00  0.00     0.161 C 
ATOM      2  C   LIG d   1      -3.627  77.590 116.929  0.00  0.00     0.016 C 
ATOM      3  C   LIG d   1      -2.557  78.228 116.262  0.00  0.00     0.038 C 
ATOM      4  C   LIG d   1      -1.331  77.582 116.040  0.00  0.00     0.028 C 
ATOM      5  C   LIG d   1      -1.007  76.522 117.088  0.00  0.00    -0.047 C 
ATOM      6  C   LIG d   1      -2.215  75.568 117.226  0.00  0.00     0.091 C 
ENDROOT
BRANCH   1   7
ATOM      7  O   LIG d   1      -4.665  75.528 117.241  0.00  0.00    -0.368 OA
BRANCH   7   8
ATOM      8  C   LIG d   1      -5.407  75.906 116.055  0.00  0.00     0.119 C 
BRANCH   8   9
ATOM      9  C   LIG d   1      -6.904  75.891 116.421  0.00  0.00     0.028 C 
ATOM     10  C   LIG d   1      -7.136  75.800 117.939  0.00  0.00     0.006 C 
ENDBRANCH   8   9
BRANCH   8  11
ATOM     11  C   LIG d   1      -5.250  74.865 114.944  0.00  0.00     0.028 C 
ATOM     12  C   LIG d   1      -5.834  73.495 115.324  0.00  0.00     0.006 C 
ENDBRANCH   8  11
ENDBRANCH   7   8
ENDBRANCH   1   7
BRANCH   6  13
ATOM     13  N   LIG d   1      -2.015  74.550 118.291  0.00  0.00    -0.311 N 
ATOM     14  C   LIG d   1      -1.471  73.355 118.069  0.00  0.00     0.210 C 
ATOM     15  C   LIG d   1      -1.375  72.450 119.301  0.00  0.00     0.109 C 
ATOM     16  O   LIG d   1      -1.029  72.970 116.976  0.00  0.00    -0.276 OA
ATOM     17  H   LIG d   1      -2.316  74.791 119.214  0.00  0.00     0.149 HD
ENDBRANCH   6  13
BRANCH   5  18
ATOM     18  N   LIG d   1       0.227  75.835 116.660  0.00  0.00     0.381 N 
ATOM     19  H   LIG d   1       0.060  74.851 116.591  0.00  0.00    -0.090 HD
ATOM     20  H   LIG d   1       0.939  75.987 117.352  0.00  0.00    -0.090 HD
ATOM     21  H   LIG d   1       0.527  76.191 115.779  0.00  0.00    -0.090 HD
ENDBRANCH   5  18
BRANCH   3  22
ATOM     22  C   LIG d   1      -2.694  79.542 115.842  0.00  0.00     0.382 C 
ATOM     23  O   LIG d   1      -1.713  80.148 115.348  0.00  0.00    -0.241 OA
ATOM     24  O   LIG d   1      -3.774  80.143 115.992  0.00  0.00    -0.241 OA
ENDBRANCH   3  22
TORSDOF 7
ENDMDL
MODEL 9
REMARK VINA RESULT:      -4.5     12.349     15.572
REMARK  7 active torsions:
REMARK  status: ('A' for Active; 'I' for Inactive)
REMARK    1  A    between atoms: C_2  and  C_3 
REMARK    2  A    between atoms: C_3  and  O_6 
REMARK    3  A    between atoms: C_3  and  C_4 
REMARK    4  A    between atoms: C_7  and  O_6 
REMARK    5  A    between atoms: C_9  and  C_10 
REMARK    6  A    between atoms: N_15  and  C_14 
REMARK    7  A    between atoms: N_20  and  C_19 
REMARK       I    between atoms: C_22  and  N_20 
ROOT
ATOM      1  C   LIG d   1     -17.363  64.832 116.368  0.00  0.00     0.161 C 
ATOM      2  C   LIG d   1     -16.432  65.565 117.123  0.00  0.00     0.016 C 
ATOM      3  C   LIG d   1     -15.406  66.348 116.546  0.00  0.00     0.038 C 
ATOM      4  C   LIG d   1     -15.334  66.573 115.164  0.00  0.00     0.028 C 
ATOM      5  C   LIG d   1     -15.944  65.449 114.334  0.00  0.00    -0.047 C 
ATOM      6  C   LIG d   1     -17.368  65.154 114.859  0.00  0.00     0.091 C 
ENDROOT
BRANCH   1   7
ATOM      7  O   LIG d   1     -18.683  65.001 116.921  0.00  0.00    -0.368 OA
BRANCH   7   8
ATOM      8  C   LIG d   1     -18.873  66.156 117.774  0.00  0.00     0.119 C 
BRANCH   8   9
ATOM      9  C   LIG d   1     -19.775  65.723 118.946  0.00  0.00     0.028 C 
ATOM     10  C   LIG d   1     -19.428  64.317 119.464  0.00  0.00     0.006 C 
ENDBRANCH   8   9
BRANCH   8  11
ATOM     11  C   LIG d   1     -19.651  67.260 117.051  0.00  0.00     0.028 C 
ATOM     12  C   LIG d   1     -20.997  67.577 117.721  0.00  0.00     0.006 C 
ENDBRANCH   8  11
ENDBRANCH   7   8
ENDBRANCH   1   7
BRANCH   6  13
ATOM     13  N   LIG d   1     -18.005  64.009 114.157  0.00  0.00    -0.311 N 
ATOM     14  C   LIG d   1     -19.114  64.122 113.427  0.00  0.00     0.210 C 
ATOM     15  C   LIG d   1     -19.614  62.814 112.806  0.00  0.00     0.109 C 
ATOM     16  O   LIG d   1     -19.712  65.186 113.210  0.00  0.00    -0.276 OA
ATOM     17  H   LIG d   1     -17.567  63.114 114.254  0.00  0.00     0.149 HD
ENDBRANCH   6  13
BRANCH   5  18
ATOM     18  N   LIG d   1     -15.925  65.875 112.922  0.00  0.00     0.381 N 
ATOM     19  H   LIG d   1     -14.980  65.997 112.618  0.00  0.00    -0.090 HD
ATOM     20  H   LIG d   1     -16.398  66.759 112.843  0.00  0.00    -0.090 HD
ATOM     21  H   LIG d   1     -16.380  65.195 112.354  0.00  0.00    -0.090 HD
ENDBRANCH   5  18
BRANCH   3  22
ATOM     22  C   LIG d   1     -14.414  66.884 117.354  0.00  0.00     0.382 C 
ATOM     23  O   LIG d   1     -14.415  66.650 118.586  0.00  0.00    -0.241 OA
ATOM     24  O   LIG d   1     -13.544  67.633 116.872  0.00  0.00    -0.241 OA
ENDBRANCH   3  22
TORSDOF 7
ENDMDL
