MODEL 1
REMARK VINA RESULT:      -5.6      0.000      0.000
REMARK  7 active torsions:
REMARK  status: ('A' for Active; 'I' for Inactive)
REMARK    1  A    between atoms: C_2  and  C_3 
REMARK    2  A    between atoms: C_3  and  O_6 
REMARK    3  A    between atoms: C_3  and  C_4 
REMARK    4  A    between atoms: C_7  and  O_6 
REMARK    5  A    between atoms: C_9  and  C_10 
REMARK    6  A    between atoms: N_15  and  C_14 
REMARK    7  A    between atoms: N_20  and  C_19 
REMARK       I    between atoms: C_22  and  N_20 
ROOT
ATOM      1  C   LIG d   1      -7.160  76.725 117.278  0.00  0.00     0.161 C 
ATOM      2  C   LIG d   1      -8.462  77.175 117.556  0.00  0.00     0.016 C 
ATOM      3  C   LIG d   1      -8.773  78.524 117.845  0.00  0.00     0.038 C 
ATOM      4  C   LIG d   1      -7.821  79.547 117.726  0.00  0.00     0.028 C 
ATOM      5  C   LIG d   1      -6.389  79.069 117.941  0.00  0.00    -0.047 C 
ATOM      6  C   LIG d   1      -6.127  77.844 117.034  0.00  0.00     0.091 C 
ENDROOT
BRANCH   1   7
ATOM      7  O   LIG d   1      -7.187  75.815 116.160  0.00  0.00    -0.368 OA
BRANCH   7   8
ATOM      8  C   LIG d   1      -6.499  74.554 116.348  0.00  0.00     0.119 C 
BRANCH   8   9
ATOM      9  C   LIG d   1      -5.545  74.364 115.153  0.00  0.00     0.028 C 
ATOM     10  C   LIG d   1      -5.641  75.515 114.136  0.00  0.00     0.006 C 
ENDBRANCH   8   9
BRANCH   8  11
ATOM     11  C   LIG d   1      -7.472  73.373 116.281  0.00  0.00     0.028 C 
ATOM     12  C   LIG d   1      -6.777  72.046 115.940  0.00  0.00     0.006 C 
ENDBRANCH   8  11
ENDBRANCH   7   8
ENDBRANCH   1   7
BRANCH   6  13
ATOM     13  N   LIG d   1      -4.776  77.262 117.244  0.00  0.00    -0.311 N 
ATOM     14  C   LIG d   1      -3.718  77.576 116.497  0.00  0.00     0.210 C 
ATOM     15  C   LIG d   1      -2.424  76.846 116.870  0.00  0.00     0.109 C 
ATOM     16  O   LIG d   1      -3.722  78.413 115.582  0.00  0.00    -0.276 OA
ATOM     17  H   LIG d   1      -4.676  76.597 117.985  0.00  0.00     0.149 HD
ENDBRANCH   6  13
BRANCH   5  18
ATOM     18  N   LIG d   1      -5.492  80.204 117.652  0.00  0.00     0.381 N 
ATOM     19  H   LIG d   1      -4.800  79.928 116.984  0.00  0.00    -0.090 HD
ATOM     20  H   LIG d   1      -5.023  80.471 118.500  0.00  0.00    -0.090 HD
ATOM     21  H   LIG d   1      -6.018  80.973 117.299  0.00  0.00    -0.090 HD
ENDBRANCH   5  18
BRANCH   3  22
ATOM     22  C   LIG d   1     -10.042  78.854 118.297  0.00  0.00     0.382 C 
ATOM     23  O   LIG d   1     -10.809  77.958 118.722  0.00  0.00    -0.241 OA
ATOM     24  O   LIG d   1     -10.445  80.032 118.243  0.00  0.00    -0.241 OA
ENDBRANCH   3  22
TORSDOF 7
ENDMDL
MODEL 2
REMARK VINA RESULT:      -5.3      4.056      6.432
REMARK  7 active torsions:
REMARK  status: ('A' for Active; 'I' for Inactive)
REMARK    1  A    between atoms: C_2  and  C_3 
REMARK    2  A    between atoms: C_3  and  O_6 
REMARK    3  A    between atoms: C_3  and  C_4 
REMARK    4  A    between atoms: C_7  and  O_6 
REMARK    5  A    between atoms: C_9  and  C_10 
REMARK    6  A    between atoms: N_15  and  C_14 
REMARK    7  A    between atoms: N_20  and  C_19 
REMARK       I    between atoms: C_22  and  N_20 
ROOT
ATOM      1  C   LIG d   1      -2.565  75.307 115.968  0.00  0.00     0.161 C 
ATOM      2  C   LIG d   1      -2.063  74.416 116.931  0.00  0.00     0.016 C 
ATOM      3  C   LIG d   1      -0.827  74.600 117.592  0.00  0.00     0.038 C 
ATOM      4  C   LIG d   1      -0.074  75.775 117.442  0.00  0.00     0.028 C 
ATOM      5  C   LIG d   1      -0.293  76.468 116.102  0.00  0.00    -0.047 C 
ATOM      6  C   LIG d   1      -1.811  76.650 115.873  0.00  0.00     0.091 C 
ENDROOT
BRANCH   1   7
ATOM      7  O   LIG d   1      -3.969  75.536 116.199  0.00  0.00    -0.368 OA
BRANCH   7   8
ATOM      8  C   LIG d   1      -4.872  74.518 115.702  0.00  0.00     0.119 C 
BRANCH   8   9
ATOM      9  C   LIG d   1      -5.371  74.978 114.318  0.00  0.00     0.028 C 
ATOM     10  C   LIG d   1      -6.425  76.094 114.416  0.00  0.00     0.006 C 
ENDBRANCH   8   9
BRANCH   8  11
ATOM     11  C   LIG d   1      -6.128  74.413 116.572  0.00  0.00     0.028 C 
ATOM     12  C   LIG d   1      -6.872  73.082 116.386  0.00  0.00     0.006 C 
ENDBRANCH   8  11
ENDBRANCH   7   8
ENDBRANCH   1   7
BRANCH   6  13
ATOM     13  N   LIG d   1      -2.117  77.245 114.546  0.00  0.00    -0.311 N 
ATOM     14  C   LIG d   1      -2.257  78.554 114.344  0.00  0.00     0.210 C 
ATOM     15  C   LIG d   1      -2.591  78.954 112.904  0.00  0.00     0.109 C 
ATOM     16  O   LIG d   1      -2.104  79.424 115.215  0.00  0.00    -0.276 OA
ATOM     17  H   LIG d   1      -2.226  76.613 113.777  0.00  0.00     0.149 HD
ENDBRANCH   6  13
BRANCH   5  18
ATOM     18  N   LIG d   1       0.444  77.746 116.135  0.00  0.00     0.381 N 
ATOM     19  H   LIG d   1      -0.102  78.439 116.605  0.00  0.00    -0.090 HD
ATOM     20  H   LIG d   1       0.602  78.054 115.192  0.00  0.00    -0.090 HD
ATOM     21  H   LIG d   1       1.315  77.625 116.603  0.00  0.00    -0.090 HD
ENDBRANCH   5  18
BRANCH   3  22
ATOM     22  C   LIG d   1      -0.312  73.584 118.383  0.00  0.00     0.382 C 
ATOM     23  O   LIG d   1       0.825  73.707 118.899  0.00  0.00    -0.241 OA
ATOM     24  O   LIG d   1      -0.951  72.529 118.550  0.00  0.00    -0.241 OA
ENDBRANCH   3  22
TORSDOF 7
ENDMDL
MODEL 3
REMARK VINA RESULT:      -5.2      4.144      5.626
REMARK  7 active torsions:
REMARK  status: ('A' for Active; 'I' for Inactive)
REMARK    1  A    between atoms: C_2  and  C_3 
REMARK    2  A    between atoms: C_3  and  O_6 
REMARK    3  A    between atoms: C_3  and  C_4 
REMARK    4  A    between atoms: C_7  and  O_6 
REMARK    5  A    between atoms: C_9  and  C_10 
REMARK    6  A    between atoms: N_15  and  C_14 
REMARK    7  A    between atoms: N_20  and  C_19 
REMARK       I    between atoms: C_22  and  N_20 
ROOT
ATOM      1  C   LIG d   1      -3.004  75.417 116.769  0.00  0.00     0.161 C 
ATOM      2  C   LIG d   1      -3.419  76.704 116.389  0.00  0.00     0.016 C 
ATOM      3  C   LIG d   1      -2.565  77.644 115.768  0.00  0.00     0.038 C 
ATOM      4  C   LIG d   1      -1.271  77.306 115.346  0.00  0.00     0.028 C 
ATOM      5  C   LIG d   1      -0.643  76.181 116.162  0.00  0.00    -0.047 C 
ATOM      6  C   LIG d   1      -1.628  74.991 116.217  0.00  0.00     0.091 C 
ENDROOT
BRANCH   1   7
ATOM      7  O   LIG d   1      -4.011  74.451 116.405  0.00  0.00    -0.368 OA
BRANCH   7   8
ATOM      8  C   LIG d   1      -5.302  74.989 116.027  0.00  0.00     0.119 C 
BRANCH   8   9
ATOM      9  C   LIG d   1      -6.379  74.156 116.747  0.00  0.00     0.028 C 
ATOM     10  C   LIG d   1      -6.707  72.850 116.003  0.00  0.00     0.006 C 
ENDBRANCH   8   9
BRANCH   8  11
ATOM     11  C   LIG d   1      -5.570  74.793 114.531  0.00  0.00     0.028 C 
ATOM     12  C   LIG d   1      -6.290  75.992 113.894  0.00  0.00     0.006 C 
ENDBRANCH   8  11
ENDBRANCH   7   8
ENDBRANCH   1   7
BRANCH   6  13
ATOM     13  N   LIG d   1      -1.127  73.879 117.066  0.00  0.00    -0.311 N 
ATOM     14  C   LIG d   1      -1.003  73.965 118.389  0.00  0.00     0.210 C 
ATOM     15  C   LIG d   1      -0.448  72.711 119.071  0.00  0.00     0.109 C 
ATOM     16  O   LIG d   1      -1.331  74.951 119.067  0.00  0.00    -0.276 OA
ATOM     17  H   LIG d   1      -0.867  73.031 116.601  0.00  0.00     0.149 HD
ENDBRANCH   6  13
BRANCH   5  18
ATOM     18  N   LIG d   1       0.645  75.837 115.529  0.00  0.00     0.381 N 
ATOM     19  H   LIG d   1       0.959  74.947 115.862  0.00  0.00    -0.090 HD
ATOM     20  H   LIG d   1       1.328  76.528 115.785  0.00  0.00    -0.090 HD
ATOM     21  H   LIG d   1       0.542  75.811 114.539  0.00  0.00    -0.090 HD
ENDBRANCH   5  18
BRANCH   3  22
ATOM     22  C   LIG d   1      -2.991  78.953 115.600  0.00  0.00     0.382 C 
ATOM     23  O   LIG d   1      -2.340  79.735 114.865  0.00  0.00    -0.241 OA
ATOM     24  O   LIG d   1      -3.993  79.374 116.208  0.00  0.00    -0.241 OA
ENDBRANCH   3  22
TORSDOF 7
ENDMDL
MODEL 4
REMARK VINA RESULT:      -5.0      1.834      2.629
REMARK  7 active torsions:
REMARK  status: ('A' for Active; 'I' for Inactive)
REMARK    1  A    between atoms: C_2  and  C_3 
REMARK    2  A    between atoms: C_3  and  O_6 
REMARK    3  A    between atoms: C_3  and  C_4 
REMARK    4  A    between atoms: C_7  and  O_6 
REMARK    5  A    between atoms: C_9  and  C_10 
REMARK    6  A    between atoms: N_15  and  C_14 
REMARK    7  A    between atoms: N_20  and  C_19 
REMARK       I    between atoms: C_22  and  N_20 
ROOT
ATOM      1  C   LIG d   1      -5.533  76.213 118.103  0.00  0.00     0.161 C 
ATOM      2  C   LIG d   1      -6.697  76.979 117.922  0.00  0.00     0.016 C 
ATOM      3  C   LIG d   1      -6.680  78.358 117.608  0.00  0.00     0.038 C 
ATOM      4  C   LIG d   1      -5.490  79.034 117.301  0.00  0.00     0.028 C 
ATOM      5  C   LIG d   1      -4.259  78.424 117.963  0.00  0.00    -0.047 C 
ATOM      6  C   LIG d   1      -4.227  76.908 117.663  0.00  0.00     0.091 C 
ENDROOT
BRANCH   1   7
ATOM      7  O   LIG d   1      -5.675  74.944 117.434  0.00  0.00    -0.368 OA
BRANCH   7   8
ATOM      8  C   LIG d   1      -6.598  74.912 116.317  0.00  0.00     0.119 C 
BRANCH   8   9
ATOM      9  C   LIG d   1      -7.401  73.600 116.419  0.00  0.00     0.028 C 
ATOM     10  C   LIG d   1      -6.603  72.383 115.923  0.00  0.00     0.006 C 
ENDBRANCH   8   9
BRANCH   8  11
ATOM     11  C   LIG d   1      -5.853  74.829 114.982  0.00  0.00     0.028 C 
ATOM     12  C   LIG d   1      -6.226  75.968 114.020  0.00  0.00     0.006 C 
ENDBRANCH   8  11
ENDBRANCH   7   8
ENDBRANCH   1   7
BRANCH   6  13
ATOM     13  N   LIG d   1      -3.100  76.218 118.344  0.00  0.00    -0.311 N 
ATOM     14  C   LIG d   1      -2.302  75.342 117.736  0.00  0.00     0.210 C 
ATOM     15  C   LIG d   1      -1.215  74.733 118.626  0.00  0.00     0.109 C 
ATOM     16  O   LIG d   1      -2.371  75.036 116.536  0.00  0.00    -0.276 OA
ATOM     17  H   LIG d   1      -2.953  76.432 119.311  0.00  0.00     0.149 HD
ENDBRANCH   6  13
BRANCH   5  18
ATOM     18  N   LIG d   1      -3.076  79.140 117.450  0.00  0.00     0.381 N 
ATOM     19  H   LIG d   1      -3.364  79.964 116.962  0.00  0.00    -0.090 HD
ATOM     20  H   LIG d   1      -2.591  78.543 116.802  0.00  0.00    -0.090 HD
ATOM     21  H   LIG d   1      -2.472  79.385 118.203  0.00  0.00    -0.090 HD
ENDBRANCH   5  18
BRANCH   3  22
ATOM     22  C   LIG d   1      -7.861  79.083 117.636  0.00  0.00     0.382 C 
ATOM     23  O   LIG d   1      -8.949  78.502 117.865  0.00  0.00    -0.241 OA
ATOM     24  O   LIG d   1      -7.858  80.305 117.393  0.00  0.00    -0.241 OA
ENDBRANCH   3  22
TORSDOF 7
ENDMDL
MODEL 5
REMARK VINA RESULT:      -5.0      3.074      5.047
REMARK  7 active torsions:
REMARK  status: ('A' for Active; 'I' for Inactive)
REMARK    1  A    between atoms: C_2  and  C_3 
REMARK    2  A    between atoms: C_3  and  O_6 
REMARK    3  A    between atoms: C_3  and  C_4 
REMARK    4  A    between atoms: C_7  and  O_6 
REMARK    5  A    between atoms: C_9  and  C_10 
REMARK    6  A    between atoms: N_15  and  C_14 
REMARK    7  A    between atoms: N_20  and  C_19 
REMARK       I    between atoms: C_22  and  N_20 
ROOT
ATOM      1  C   LIG d   1      -4.297  75.196 116.530  0.00  0.00     0.161 C 
ATOM      2  C   LIG d   1      -5.022  74.045 116.180  0.00  0.00     0.016 C 
ATOM      3  C   LIG d   1      -6.434  73.975 116.208  0.00  0.00     0.038 C 
ATOM      4  C   LIG d   1      -7.227  75.108 116.445  0.00  0.00     0.028 C 
ATOM      5  C   LIG d   1      -6.533  76.166 117.296  0.00  0.00    -0.047 C 
ATOM      6  C   LIG d   1      -5.148  76.474 116.683  0.00  0.00     0.091 C 
ENDROOT
BRANCH   1   7
ATOM      7  O   LIG d   1      -3.235  75.412 115.579  0.00  0.00    -0.368 OA
BRANCH   7   8
ATOM      8  C   LIG d   1      -1.959  74.805 115.900  0.00  0.00     0.119 C 
BRANCH   8   9
ATOM      9  C   LIG d   1      -1.726  74.989 117.412  0.00  0.00     0.028 C 
ATOM     10  C   LIG d   1      -1.046  73.768 118.054  0.00  0.00     0.006 C 
ENDBRANCH   8   9
BRANCH   8  11
ATOM     11  C   LIG d   1      -0.804  75.543 115.218  0.00  0.00     0.028 C 
ATOM     12  C   LIG d   1      -0.663  76.998 115.694  0.00  0.00     0.006 C 
ENDBRANCH   8  11
ENDBRANCH   7   8
ENDBRANCH   1   7
BRANCH   6  13
ATOM     13  N   LIG d   1      -4.368  77.438 117.502  0.00  0.00    -0.311 N 
ATOM     14  C   LIG d   1      -3.769  78.515 116.994  0.00  0.00     0.210 C 
ATOM     15  C   LIG d   1      -3.000  79.366 118.009  0.00  0.00     0.109 C 
ATOM     16  O   LIG d   1      -3.830  78.863 115.805  0.00  0.00    -0.276 OA
ATOM     17  H   LIG d   1      -4.293  77.249 118.482  0.00  0.00     0.149 HD
ENDBRANCH   6  13
BRANCH   5  18
ATOM     18  N   LIG d   1      -7.417  77.346 117.348  0.00  0.00     0.381 N 
ATOM     19  H   LIG d   1      -8.357  77.057 117.535  0.00  0.00    -0.090 HD
ATOM     20  H   LIG d   1      -7.400  77.805 116.454  0.00  0.00    -0.090 HD
ATOM     21  H   LIG d   1      -7.108  77.973 118.058  0.00  0.00    -0.090 HD
ENDBRANCH   5  18
BRANCH   3  22
ATOM     22  C   LIG d   1      -7.065  72.753 116.037  0.00  0.00     0.382 C 
ATOM     23  O   LIG d   1      -6.455  71.803 115.490  0.00  0.00    -0.241 OA
ATOM     24  O   LIG d   1      -8.252  72.601 116.384  0.00  0.00    -0.241 OA
ENDBRANCH   3  22
TORSDOF 7
ENDMDL
MODEL 6
REMARK VINA RESULT:      -4.8      2.539      5.545
REMARK  7 active torsions:
REMARK  status: ('A' for Active; 'I' for Inactive)
REMARK    1  A    between atoms: C_2  and  C_3 
REMARK    2  A    between atoms: C_3  and  O_6 
REMARK    3  A    between atoms: C_3  and  C_4 
REMARK    4  A    between atoms: C_7  and  O_6 
REMARK    5  A    between atoms: C_9  and  C_10 
REMARK    6  A    between atoms: N_15  and  C_14 
REMARK    7  A    between atoms: N_20  and  C_19 
REMARK       I    between atoms: C_22  and  N_20 
ROOT
ATOM      1  C   LIG d   1      -4.429  75.991 117.046  0.00  0.00     0.161 C 
ATOM      2  C   LIG d   1      -3.481  75.077 116.556  0.00  0.00     0.016 C 
ATOM      3  C   LIG d   1      -2.137  75.041 116.992  0.00  0.00     0.038 C 
ATOM      4  C   LIG d   1      -1.685  75.822 118.066  0.00  0.00     0.028 C 
ATOM      5  C   LIG d   1      -2.475  77.113 118.251  0.00  0.00    -0.047 C 
ATOM      6  C   LIG d   1      -3.983  76.776 118.297  0.00  0.00     0.091 C 
ENDROOT
BRANCH   1   7
ATOM      7  O   LIG d   1      -5.676  75.313 117.299  0.00  0.00    -0.368 OA
BRANCH   7   8
ATOM      8  C   LIG d   1      -6.469  74.983 116.132  0.00  0.00     0.119 C 
BRANCH   8   9
ATOM      9  C   LIG d   1      -7.306  76.226 115.774  0.00  0.00     0.028 C 
ATOM     10  C   LIG d   1      -8.306  76.600 116.881  0.00  0.00     0.006 C 
ENDBRANCH   8   9
BRANCH   8  11
ATOM     11  C   LIG d   1      -7.489  73.884 116.445  0.00  0.00     0.028 C 
ATOM     12  C   LIG d   1      -6.944  72.472 116.180  0.00  0.00     0.006 C 
ENDBRANCH   8  11
ENDBRANCH   7   8
ENDBRANCH   1   7
BRANCH   6  13
ATOM     13  N   LIG d   1      -4.833  77.992 118.392  0.00  0.00    -0.311 N 
ATOM     14  C   LIG d   1      -4.930  78.896 117.419  0.00  0.00     0.210 C 
ATOM     15  C   LIG d   1      -5.845  80.084 117.729  0.00  0.00     0.109 C 
ATOM     16  O   LIG d   1      -4.370  78.810 116.316  0.00  0.00    -0.276 OA
ATOM     17  H   LIG d   1      -5.346  78.124 119.241  0.00  0.00     0.149 HD
ENDBRANCH   6  13
BRANCH   5  18
ATOM     18  N   LIG d   1      -1.989  77.760 119.484  0.00  0.00     0.381 N 
ATOM     19  H   LIG d   1      -2.615  77.564 120.239  0.00  0.00    -0.090 HD
ATOM     20  H   LIG d   1      -1.968  78.755 119.343  0.00  0.00    -0.090 HD
ATOM     21  H   LIG d   1      -1.076  77.429 119.706  0.00  0.00    -0.090 HD
ENDBRANCH   5  18
BRANCH   3  22
ATOM     22  C   LIG d   1      -1.219  74.244 116.325  0.00  0.00     0.382 C 
ATOM     23  O   LIG d   1      -0.559  73.385 116.957  0.00  0.00    -0.241 OA
ATOM     24  O   LIG d   1      -1.012  74.403 115.107  0.00  0.00    -0.241 OA
ENDBRANCH   3  22
TORSDOF 7
ENDMDL
MODEL 7
REMARK VINA RESULT:      -4.8      2.978      6.441
REMARK  7 active torsions:
REMARK  status: ('A' for Active; 'I' for Inactive)
REMARK    1  A    between atoms: C_2  and  C_3 
REMARK    2  A    between atoms: C_3  and  O_6 
REMARK    3  A    between atoms: C_3  and  C_4 
REMARK    4  A    between atoms: C_7  and  O_6 
REMARK    5  A    between atoms: C_9  and  C_10 
REMARK    6  A    between atoms: N_15  and  C_14 
REMARK    7  A    between atoms: N_20  and  C_19 
REMARK       I    between atoms: C_22  and  N_20 
ROOT
ATOM      1  C   LIG d   1      -3.307  78.473 116.977  0.00  0.00     0.161 C 
ATOM      2  C   LIG d   1      -2.442  79.433 117.526  0.00  0.00     0.016 C 
ATOM      3  C   LIG d   1      -1.072  79.530 117.191  0.00  0.00     0.038 C 
ATOM      4  C   LIG d   1      -0.505  78.763 116.162  0.00  0.00     0.028 C 
ATOM      5  C   LIG d   1      -1.218  77.435 115.933  0.00  0.00    -0.047 C 
ATOM      6  C   LIG d   1      -2.732  77.700 115.771  0.00  0.00     0.091 C 
ENDROOT
BRANCH   1   7
ATOM      7  O   LIG d   1      -4.561  79.089 116.625  0.00  0.00    -0.368 OA
BRANCH   7   8
ATOM      8  C   LIG d   1      -5.630  78.956 117.594  0.00  0.00     0.119 C 
BRANCH   8   9
ATOM      9  C   LIG d   1      -6.656  77.960 117.018  0.00  0.00     0.028 C 
ATOM     10  C   LIG d   1      -6.539  76.564 117.654  0.00  0.00     0.006 C 
ENDBRANCH   8   9
BRANCH   8  11
ATOM     11  C   LIG d   1      -6.395  80.272 117.764  0.00  0.00     0.028 C 
ATOM     12  C   LIG d   1      -7.916  80.069 117.859  0.00  0.00     0.006 C 
ENDBRANCH   8  11
ENDBRANCH   7   8
ENDBRANCH   1   7
BRANCH   6  13
ATOM     13  N   LIG d   1      -3.515  76.445 115.627  0.00  0.00    -0.311 N 
ATOM     14  C   LIG d   1      -4.260  76.164 114.559  0.00  0.00     0.210 C 
ATOM     15  C   LIG d   1      -5.002  74.825 114.622  0.00  0.00     0.109 C 
ATOM     16  O   LIG d   1      -4.352  76.882 113.552  0.00  0.00    -0.276 OA
ATOM     17  H   LIG d   1      -3.473  75.791 116.384  0.00  0.00     0.149 HD
ENDBRANCH   6  13
BRANCH   5  18
ATOM     18  N   LIG d   1      -0.612  76.802 114.746  0.00  0.00     0.381 N 
ATOM     19  H   LIG d   1      -1.312  76.309 114.230  0.00  0.00    -0.090 HD
ATOM     20  H   LIG d   1       0.081  76.141 115.049  0.00  0.00    -0.090 HD
ATOM     21  H   LIG d   1      -0.189  77.495 114.168  0.00  0.00    -0.090 HD
ENDBRANCH   5  18
BRANCH   3  22
ATOM     22  C   LIG d   1      -0.245  80.374 117.915  0.00  0.00     0.382 C 
ATOM     23  O   LIG d   1      -0.261  80.343 119.170  0.00  0.00    -0.241 OA
ATOM     24  O   LIG d   1       0.486  81.197 117.332  0.00  0.00    -0.241 OA
ENDBRANCH   3  22
TORSDOF 7
ENDMDL
MODEL 8
REMARK VINA RESULT:      -4.8      2.172      5.303
REMARK  7 active torsions:
REMARK  status: ('A' for Active; 'I' for Inactive)
REMARK    1  A    between atoms: C_2  and  C_3 
REMARK    2  A    between atoms: C_3  and  O_6 
REMARK    3  A    between atoms: C_3  and  C_4 
REMARK    4  A    between atoms: C_7  and  O_6 
REMARK    5  A    between atoms: C_9  and  C_10 
REMARK    6  A    between atoms: N_15  and  C_14 
REMARK    7  A    between atoms: N_20  and  C_19 
REMARK       I    between atoms: C_22  and  N_20 
ROOT
ATOM      1  C   LIG d   1      -5.339  78.095 117.137  0.00  0.00     0.161 C 
ATOM      2  C   LIG d   1      -5.343  76.832 116.521  0.00  0.00     0.016 C 
ATOM      3  C   LIG d   1      -6.515  76.064 116.328  0.00  0.00     0.038 C 
ATOM      4  C   LIG d   1      -7.791  76.577 116.604  0.00  0.00     0.028 C 
ATOM      5  C   LIG d   1      -7.793  77.645 117.692  0.00  0.00    -0.047 C 
ATOM      6  C   LIG d   1      -6.736  78.718 117.343  0.00  0.00     0.091 C 
ENDROOT
BRANCH   1   7
ATOM      7  O   LIG d   1      -4.493  78.996 116.397  0.00  0.00    -0.368 OA
BRANCH   7   8
ATOM      8  C   LIG d   1      -3.102  78.608 116.273  0.00  0.00     0.119 C 
BRANCH   8   9
ATOM      9  C   LIG d   1      -2.321  79.321 117.393  0.00  0.00     0.028 C 
ATOM     10  C   LIG d   1      -1.205  78.441 117.982  0.00  0.00     0.006 C 
ENDBRANCH   8   9
BRANCH   8  11
ATOM     11  C   LIG d   1      -2.495  79.122 114.964  0.00  0.00     0.028 C 
ATOM     12  C   LIG d   1      -2.584  78.097 113.823  0.00  0.00     0.006 C 
ENDBRANCH   8  11
ENDBRANCH   7   8
ENDBRANCH   1   7
BRANCH   6  13
ATOM     13  N   LIG d   1      -6.613  79.757 118.399  0.00  0.00    -0.311 N 
ATOM     14  C   LIG d   1      -6.894  81.043 118.198  0.00  0.00     0.210 C 
ATOM     15  C   LIG d   1      -6.680  81.949 119.415  0.00  0.00     0.109 C 
ATOM     16  O   LIG d   1      -7.331  81.514 117.138  0.00  0.00    -0.276 OA
ATOM     17  H   LIG d   1      -6.295  79.456 119.300  0.00  0.00     0.149 HD
ENDBRANCH   6  13
BRANCH   5  18
ATOM     18  N   LIG d   1      -9.161  78.189 117.780  0.00  0.00     0.381 N 
ATOM     19  H   LIG d   1      -9.238  78.782 118.582  0.00  0.00    -0.090 HD
ATOM     20  H   LIG d   1      -9.807  77.427 117.888  0.00  0.00    -0.090 HD
ATOM     21  H   LIG d   1      -9.377  78.704 116.955  0.00  0.00    -0.090 HD
ENDBRANCH   5  18
BRANCH   3  22
ATOM     22  C   LIG d   1      -6.412  74.752 115.891  0.00  0.00     0.382 C 
ATOM     23  O   LIG d   1      -5.684  74.474 114.907  0.00  0.00    -0.241 OA
ATOM     24  O   LIG d   1      -7.073  73.850 116.439  0.00  0.00    -0.241 OA
ENDBRANCH   3  22
TORSDOF 7
ENDMDL
MODEL 9
REMARK VINA RESULT:      -4.6     15.558     18.303
REMARK  7 active torsions:
REMARK  status: ('A' for Active; 'I' for Inactive)
REMARK    1  A    between atoms: C_2  and  C_3 
REMARK    2  A    between atoms: C_3  and  O_6 
REMARK    3  A    between atoms: C_3  and  C_4 
REMARK    4  A    between atoms: C_7  and  O_6 
REMARK    5  A    between atoms: C_9  and  C_10 
REMARK    6  A    between atoms: N_15  and  C_14 
REMARK    7  A    between atoms: N_20  and  C_19 
REMARK       I    between atoms: C_22  and  N_20 
ROOT
ATOM      1  C   LIG d   1      10.938  79.049 115.136  0.00  0.00     0.161 C 
ATOM      2  C   LIG d   1      10.610  77.729 114.784  0.00  0.00     0.016 C 
ATOM      3  C   LIG d   1       9.408  77.095 115.177  0.00  0.00     0.038 C 
ATOM      4  C   LIG d   1       8.379  77.794 115.825  0.00  0.00     0.028 C 
ATOM      5  C   LIG d   1       8.874  78.983 116.641  0.00  0.00    -0.047 C 
ATOM      6  C   LIG d   1       9.779  79.863 115.747  0.00  0.00     0.091 C 
ENDROOT
BRANCH   1   7
ATOM      7  O   LIG d   1      11.485  79.737 113.993  0.00  0.00    -0.368 OA
BRANCH   7   8
ATOM      8  C   LIG d   1      12.913  79.978 114.017  0.00  0.00     0.119 C 
BRANCH   8   9
ATOM      9  C   LIG d   1      13.580  78.895 113.147  0.00  0.00     0.028 C 
ATOM     10  C   LIG d   1      14.429  77.917 113.976  0.00  0.00     0.006 C 
ENDBRANCH   8   9
BRANCH   8  11
ATOM     11  C   LIG d   1      13.488  79.779 115.423  0.00  0.00     0.028 C 
ATOM     12  C   LIG d   1      14.062  81.073 116.021  0.00  0.00     0.006 C 
ENDBRANCH   8  11
ENDBRANCH   7   8
ENDBRANCH   1   7
BRANCH   6  13
ATOM     13  N   LIG d   1      10.374  81.003 116.492  0.00  0.00    -0.311 N 
ATOM     14  C   LIG d   1      10.471  82.234 115.992  0.00  0.00     0.210 C 
ATOM     15  C   LIG d   1      11.135  83.257 116.918  0.00  0.00     0.109 C 
ATOM     16  O   LIG d   1      10.040  82.583 114.883  0.00  0.00    -0.276 OA
ATOM     17  H   LIG d   1      10.720  80.816 117.412  0.00  0.00     0.149 HD
ENDBRANCH   6  13
BRANCH   5  18
ATOM     18  N   LIG d   1       7.689  79.701 117.148  0.00  0.00     0.381 N 
ATOM     19  H   LIG d   1       7.194  79.121 117.795  0.00  0.00    -0.090 HD
ATOM     20  H   LIG d   1       7.078  79.905 116.376  0.00  0.00    -0.090 HD
ATOM     21  H   LIG d   1       7.968  80.547 117.594  0.00  0.00    -0.090 HD
ENDBRANCH   5  18
BRANCH   3  22
ATOM     22  C   LIG d   1       9.244  75.736 114.956  0.00  0.00     0.382 C 
ATOM     23  O   LIG d   1      10.074  74.920 115.425  0.00  0.00    -0.241 OA
ATOM     24  O   LIG d   1       8.301  75.319 114.257  0.00  0.00    -0.241 OA
ENDBRANCH   3  22
TORSDOF 7
ENDMDL
