MODEL 1
REMARK VINA RESULT:      -5.2      0.000      0.000
REMARK  7 active torsions:
REMARK  status: ('A' for Active; 'I' for Inactive)
REMARK    1  A    between atoms: C_2  and  C_3 
REMARK    2  A    between atoms: C_3  and  O_6 
REMARK    3  A    between atoms: C_3  and  C_4 
REMARK    4  A    between atoms: C_7  and  O_6 
REMARK    5  A    between atoms: C_9  and  C_10 
REMARK    6  A    between atoms: N_15  and  C_14 
REMARK    7  A    between atoms: N_20  and  C_19 
REMARK       I    between atoms: C_22  and  N_20 
ROOT
ATOM      1  C   LIG d   1      -5.571  77.245 116.325  0.00  0.00     0.161 C 
ATOM      2  C   LIG d   1      -6.883  76.873 116.663  0.00  0.00     0.016 C 
ATOM      3  C   LIG d   1      -7.705  77.624 117.535  0.00  0.00     0.038 C 
ATOM      4  C   LIG d   1      -7.321  78.887 118.011  0.00  0.00     0.028 C 
ATOM      5  C   LIG d   1      -5.809  79.066 118.101  0.00  0.00    -0.047 C 
ATOM      6  C   LIG d   1      -5.176  78.676 116.746  0.00  0.00     0.091 C 
ENDROOT
BRANCH   1   7
ATOM      7  O   LIG d   1      -5.362  77.064 114.910  0.00  0.00    -0.368 OA
BRANCH   7   8
ATOM      8  C   LIG d   1      -4.514  75.952 114.529  0.00  0.00     0.119 C 
BRANCH   8   9
ATOM      9  C   LIG d   1      -5.431  74.829 114.007  0.00  0.00     0.028 C 
ATOM     10  C   LIG d   1      -5.637  73.710 115.042  0.00  0.00     0.006 C 
ENDBRANCH   8   9
BRANCH   8  11
ATOM     11  C   LIG d   1      -3.796  75.357 115.744  0.00  0.00     0.028 C 
ATOM     12  C   LIG d   1      -2.267  75.497 115.660  0.00  0.00     0.006 C 
ENDBRANCH   8  11
ENDBRANCH   7   8
ENDBRANCH   1   7
BRANCH   6  13
ATOM     13  N   LIG d   1      -3.691  78.742 116.775  0.00  0.00    -0.311 N 
ATOM     14  C   LIG d   1      -2.969  79.396 115.866  0.00  0.00     0.210 C 
ATOM     15  C   LIG d   1      -1.453  79.321 116.070  0.00  0.00     0.109 C 
ATOM     16  O   LIG d   1      -3.442  80.057 114.930  0.00  0.00    -0.276 OA
ATOM     17  H   LIG d   1      -3.227  78.259 117.519  0.00  0.00     0.149 HD
ENDBRANCH   6  13
BRANCH   5  18
ATOM     18  N   LIG d   1      -5.549  80.469 118.479  0.00  0.00     0.381 N 
ATOM     19  H   LIG d   1      -4.617  80.722 118.219  0.00  0.00    -0.090 HD
ATOM     20  H   LIG d   1      -5.634  80.558 119.476  0.00  0.00    -0.090 HD
ATOM     21  H   LIG d   1      -6.202  81.070 118.027  0.00  0.00    -0.090 HD
ENDBRANCH   5  18
BRANCH   3  22
ATOM     22  C   LIG d   1      -8.910  77.095 117.970  0.00  0.00     0.382 C 
ATOM     23  O   LIG d   1      -9.100  75.855 117.932  0.00  0.00    -0.241 OA
ATOM     24  O   LIG d   1      -9.826  77.844 118.359  0.00  0.00    -0.241 OA
ENDBRANCH   3  22
TORSDOF 7
ENDMDL
MODEL 2
REMARK VINA RESULT:      -4.9      3.415      5.900
REMARK  7 active torsions:
REMARK  status: ('A' for Active; 'I' for Inactive)
REMARK    1  A    between atoms: C_2  and  C_3 
REMARK    2  A    between atoms: C_3  and  O_6 
REMARK    3  A    between atoms: C_3  and  C_4 
REMARK    4  A    between atoms: C_7  and  O_6 
REMARK    5  A    between atoms: C_9  and  C_10 
REMARK    6  A    between atoms: N_15  and  C_14 
REMARK    7  A    between atoms: N_20  and  C_19 
REMARK       I    between atoms: C_22  and  N_20 
ROOT
ATOM      1  C   LIG d   1      -2.916  77.128 114.638  0.00  0.00     0.161 C 
ATOM      2  C   LIG d   1      -3.041  78.310 113.889  0.00  0.00     0.016 C 
ATOM      3  C   LIG d   1      -1.973  79.210 113.672  0.00  0.00     0.038 C 
ATOM      4  C   LIG d   1      -0.660  78.911 114.066  0.00  0.00     0.028 C 
ATOM      5  C   LIG d   1      -0.586  77.969 115.263  0.00  0.00    -0.047 C 
ATOM      6  C   LIG d   1      -1.465  76.730 114.981  0.00  0.00     0.091 C 
ENDROOT
BRANCH   1   7
ATOM      7  O   LIG d   1      -3.585  76.047 113.960  0.00  0.00    -0.368 OA
BRANCH   7   8
ATOM      8  C   LIG d   1      -4.876  75.661 114.494  0.00  0.00     0.119 C 
BRANCH   8   9
ATOM      9  C   LIG d   1      -5.277  76.716 115.543  0.00  0.00     0.028 C 
ATOM     10  C   LIG d   1      -6.290  76.172 116.565  0.00  0.00     0.006 C 
ENDBRANCH   8   9
BRANCH   8  11
ATOM     11  C   LIG d   1      -4.788  74.339 115.262  0.00  0.00     0.028 C 
ATOM     12  C   LIG d   1      -5.750  73.270 114.719  0.00  0.00     0.006 C 
ENDBRANCH   8  11
ENDBRANCH   7   8
ENDBRANCH   1   7
BRANCH   6  13
ATOM     13  N   LIG d   1      -1.516  75.797 116.136  0.00  0.00    -0.311 N 
ATOM     14  C   LIG d   1      -1.239  74.497 116.042  0.00  0.00     0.210 C 
ATOM     15  C   LIG d   1      -1.372  73.711 117.350  0.00  0.00     0.109 C 
ATOM     16  O   LIG d   1      -0.865  73.927 115.006  0.00  0.00    -0.276 OA
ATOM     17  H   LIG d   1      -1.780  76.181 117.022  0.00  0.00     0.149 HD
ENDBRANCH   6  13
BRANCH   5  18
ATOM     18  N   LIG d   1       0.835  77.634 115.478  0.00  0.00     0.381 N 
ATOM     19  H   LIG d   1       1.386  78.468 115.461  0.00  0.00    -0.090 HD
ATOM     20  H   LIG d   1       1.144  77.035 114.733  0.00  0.00    -0.090 HD
ATOM     21  H   LIG d   1       0.946  77.171 116.354  0.00  0.00    -0.090 HD
ENDBRANCH   5  18
BRANCH   3  22
ATOM     22  C   LIG d   1      -2.221  80.444 113.090  0.00  0.00     0.382 C 
ATOM     23  O   LIG d   1      -3.396  80.778 112.805  0.00  0.00    -0.241 OA
ATOM     24  O   LIG d   1      -1.280  81.209 112.805  0.00  0.00    -0.241 OA
ENDBRANCH   3  22
TORSDOF 7
ENDMDL
MODEL 3
REMARK VINA RESULT:      -4.6     14.987     17.567
REMARK  7 active torsions:
REMARK  status: ('A' for Active; 'I' for Inactive)
REMARK    1  A    between atoms: C_2  and  C_3 
REMARK    2  A    between atoms: C_3  and  O_6 
REMARK    3  A    between atoms: C_3  and  C_4 
REMARK    4  A    between atoms: C_7  and  O_6 
REMARK    5  A    between atoms: C_9  and  C_10 
REMARK    6  A    between atoms: N_15  and  C_14 
REMARK    7  A    between atoms: N_20  and  C_19 
REMARK       I    between atoms: C_22  and  N_20 
ROOT
ATOM      1  C   LIG d   1     -16.578  64.557 115.135  0.00  0.00     0.161 C 
ATOM      2  C   LIG d   1     -16.032  65.580 114.341  0.00  0.00     0.016 C 
ATOM      3  C   LIG d   1     -15.353  66.700 114.872  0.00  0.00     0.038 C 
ATOM      4  C   LIG d   1     -15.039  66.797 116.236  0.00  0.00     0.028 C 
ATOM      5  C   LIG d   1     -16.008  66.040 117.137  0.00  0.00    -0.047 C 
ATOM      6  C   LIG d   1     -16.148  64.591 116.617  0.00  0.00     0.091 C 
ENDROOT
BRANCH   1   7
ATOM      7  O   LIG d   1     -16.275  63.273 114.554  0.00  0.00    -0.368 OA
BRANCH   7   8
ATOM      8  C   LIG d   1     -17.271  62.731 113.652  0.00  0.00     0.119 C 
BRANCH   8   9
ATOM      9  C   LIG d   1     -18.643  63.270 114.100  0.00  0.00     0.028 C 
ATOM     10  C   LIG d   1     -19.475  63.807 112.923  0.00  0.00     0.006 C 
ENDBRANCH   8   9
BRANCH   8  11
ATOM     11  C   LIG d   1     -17.370  61.208 113.783  0.00  0.00     0.028 C 
ATOM     12  C   LIG d   1     -17.269  60.727 115.239  0.00  0.00     0.006 C 
ENDBRANCH   8  11
ENDBRANCH   7   8
ENDBRANCH   1   7
BRANCH   6  13
ATOM     13  N   LIG d   1     -17.143  63.804 117.391  0.00  0.00    -0.311 N 
ATOM     14  C   LIG d   1     -16.818  63.016 118.415  0.00  0.00     0.210 C 
ATOM     15  C   LIG d   1     -17.995  62.279 119.062  0.00  0.00     0.109 C 
ATOM     16  O   LIG d   1     -15.672  62.883 118.869  0.00  0.00    -0.276 OA
ATOM     17  H   LIG d   1     -18.101  63.877 117.110  0.00  0.00     0.149 HD
ENDBRANCH   6  13
BRANCH   5  18
ATOM     18  N   LIG d   1     -15.485  66.111 118.514  0.00  0.00     0.381 N 
ATOM     19  H   LIG d   1     -15.502  65.202 118.931  0.00  0.00    -0.090 HD
ATOM     20  H   LIG d   1     -16.077  66.717 119.056  0.00  0.00    -0.090 HD
ATOM     21  H   LIG d   1     -14.554  66.464 118.508  0.00  0.00    -0.090 HD
ENDBRANCH   5  18
BRANCH   3  22
ATOM     22  C   LIG d   1     -15.015  67.757 114.041  0.00  0.00     0.382 C 
ATOM     23  O   LIG d   1     -14.632  68.845 114.535  0.00  0.00    -0.241 OA
ATOM     24  O   LIG d   1     -15.131  67.651 112.806  0.00  0.00    -0.241 OA
ENDBRANCH   3  22
TORSDOF 7
ENDMDL
MODEL 4
REMARK VINA RESULT:      -4.5     15.755     18.276
REMARK  7 active torsions:
REMARK  status: ('A' for Active; 'I' for Inactive)
REMARK    1  A    between atoms: C_2  and  C_3 
REMARK    2  A    between atoms: C_3  and  O_6 
REMARK    3  A    between atoms: C_3  and  C_4 
REMARK    4  A    between atoms: C_7  and  O_6 
REMARK    5  A    between atoms: C_9  and  C_10 
REMARK    6  A    between atoms: N_15  and  C_14 
REMARK    7  A    between atoms: N_20  and  C_19 
REMARK       I    between atoms: C_22  and  N_20 
ROOT
ATOM      1  C   LIG d   1     -16.557  63.332 116.067  0.00  0.00     0.161 C 
ATOM      2  C   LIG d   1     -16.813  62.025 115.623  0.00  0.00     0.016 C 
ATOM      3  C   LIG d   1     -17.338  61.726 114.345  0.00  0.00     0.038 C 
ATOM      4  C   LIG d   1     -17.503  62.712 113.362  0.00  0.00     0.028 C 
ATOM      5  C   LIG d   1     -17.734  64.106 113.935  0.00  0.00    -0.047 C 
ATOM      6  C   LIG d   1     -16.626  64.414 114.968  0.00  0.00     0.091 C 
ENDROOT
BRANCH   1   7
ATOM      7  O   LIG d   1     -15.282  63.380 116.737  0.00  0.00    -0.368 OA
BRANCH   7   8
ATOM      8  C   LIG d   1     -15.293  63.889 118.094  0.00  0.00     0.119 C 
BRANCH   8   9
ATOM      9  C   LIG d   1     -14.478  62.911 118.962  0.00  0.00     0.028 C 
ATOM     10  C   LIG d   1     -14.630  61.452 118.502  0.00  0.00     0.006 C 
ENDBRANCH   8   9
BRANCH   8  11
ATOM     11  C   LIG d   1     -16.707  63.873 118.683  0.00  0.00     0.028 C 
ATOM     12  C   LIG d   1     -17.132  65.237 119.249  0.00  0.00     0.006 C 
ENDBRANCH   8  11
ENDBRANCH   7   8
ENDBRANCH   1   7
BRANCH   6  13
ATOM     13  N   LIG d   1     -16.824  65.725 115.639  0.00  0.00    -0.311 N 
ATOM     14  C   LIG d   1     -15.880  66.661 115.712  0.00  0.00     0.210 C 
ATOM     15  C   LIG d   1     -16.286  67.932 116.466  0.00  0.00     0.109 C 
ATOM     16  O   LIG d   1     -14.756  66.574 115.196  0.00  0.00    -0.276 OA
ATOM     17  H   LIG d   1     -17.718  65.892 116.058  0.00  0.00     0.149 HD
ENDBRANCH   6  13
BRANCH   5  18
ATOM     18  N   LIG d   1     -17.751  65.056 112.806  0.00  0.00     0.381 N 
ATOM     19  H   LIG d   1     -18.622  65.549 112.792  0.00  0.00    -0.090 HD
ATOM     20  H   LIG d   1     -17.666  64.541 111.947  0.00  0.00    -0.090 HD
ATOM     21  H   LIG d   1     -16.997  65.701 112.892  0.00  0.00    -0.090 HD
ENDBRANCH   5  18
BRANCH   3  22
ATOM     22  C   LIG d   1     -17.743  60.432 114.054  0.00  0.00     0.382 C 
ATOM     23  O   LIG d   1     -16.947  59.636 113.499  0.00  0.00    -0.241 OA
ATOM     24  O   LIG d   1     -18.907  60.064 114.298  0.00  0.00    -0.241 OA
ENDBRANCH   3  22
TORSDOF 7
ENDMDL
MODEL 5
REMARK VINA RESULT:      -4.4      2.067      4.457
REMARK  7 active torsions:
REMARK  status: ('A' for Active; 'I' for Inactive)
REMARK    1  A    between atoms: C_2  and  C_3 
REMARK    2  A    between atoms: C_3  and  O_6 
REMARK    3  A    between atoms: C_3  and  C_4 
REMARK    4  A    between atoms: C_7  and  O_6 
REMARK    5  A    between atoms: C_9  and  C_10 
REMARK    6  A    between atoms: N_15  and  C_14 
REMARK    7  A    between atoms: N_20  and  C_19 
REMARK       I    between atoms: C_22  and  N_20 
ROOT
ATOM      1  C   LIG d   1      -4.356  78.061 116.269  0.00  0.00     0.161 C 
ATOM      2  C   LIG d   1      -4.323  76.861 115.541  0.00  0.00     0.016 C 
ATOM      3  C   LIG d   1      -5.376  75.917 115.547  0.00  0.00     0.038 C 
ATOM      4  C   LIG d   1      -6.606  76.183 116.168  0.00  0.00     0.028 C 
ATOM      5  C   LIG d   1      -6.497  77.161 117.333  0.00  0.00    -0.047 C 
ATOM      6  C   LIG d   1      -5.734  78.420 116.863  0.00  0.00     0.091 C 
ENDROOT
BRANCH   1   7
ATOM      7  O   LIG d   1      -3.866  79.142 115.451  0.00  0.00    -0.368 OA
BRANCH   7   8
ATOM      8  C   LIG d   1      -2.563  79.670 115.806  0.00  0.00     0.119 C 
BRANCH   8   9
ATOM      9  C   LIG d   1      -1.559  79.170 114.750  0.00  0.00     0.028 C 
ATOM     10  C   LIG d   1      -2.131  79.224 113.323  0.00  0.00     0.006 C 
ENDBRANCH   8   9
BRANCH   8  11
ATOM     11  C   LIG d   1      -2.073  79.094 117.137  0.00  0.00     0.028 C 
ATOM     12  C   LIG d   1      -1.947  80.161 118.237  0.00  0.00     0.006 C 
ENDBRANCH   8  11
ENDBRANCH   7   8
ENDBRANCH   1   7
BRANCH   6  13
ATOM     13  N   LIG d   1      -5.510  79.392 117.965  0.00  0.00    -0.311 N 
ATOM     14  C   LIG d   1      -6.310  80.430 118.200  0.00  0.00     0.210 C 
ATOM     15  C   LIG d   1      -5.886  81.320 119.373  0.00  0.00     0.109 C 
ATOM     16  O   LIG d   1      -7.347  80.681 117.569  0.00  0.00    -0.276 OA
ATOM     17  H   LIG d   1      -4.708  79.245 118.546  0.00  0.00     0.149 HD
ENDBRANCH   6  13
BRANCH   5  18
ATOM     18  N   LIG d   1      -7.866  77.454 117.798  0.00  0.00     0.381 N 
ATOM     19  H   LIG d   1      -7.840  77.778 118.744  0.00  0.00    -0.090 HD
ATOM     20  H   LIG d   1      -8.407  76.608 117.769  0.00  0.00    -0.090 HD
ATOM     21  H   LIG d   1      -8.284  78.145 117.214  0.00  0.00    -0.090 HD
ENDBRANCH   5  18
BRANCH   3  22
ATOM     22  C   LIG d   1      -5.189  74.675 114.961  0.00  0.00     0.382 C 
ATOM     23  O   LIG d   1      -4.359  74.539 114.030  0.00  0.00    -0.241 OA
ATOM     24  O   LIG d   1      -5.873  73.697 115.320  0.00  0.00    -0.241 OA
ENDBRANCH   3  22
TORSDOF 7
ENDMDL
MODEL 6
REMARK VINA RESULT:      -4.3     14.768     17.742
REMARK  7 active torsions:
REMARK  status: ('A' for Active; 'I' for Inactive)
REMARK    1  A    between atoms: C_2  and  C_3 
REMARK    2  A    between atoms: C_3  and  O_6 
REMARK    3  A    between atoms: C_3  and  C_4 
REMARK    4  A    between atoms: C_7  and  O_6 
REMARK    5  A    between atoms: C_9  and  C_10 
REMARK    6  A    between atoms: N_15  and  C_14 
REMARK    7  A    between atoms: N_20  and  C_19 
REMARK       I    between atoms: C_22  and  N_20 
ROOT
ATOM      1  C   LIG d   1     -15.960  65.013 116.817  0.00  0.00     0.161 C 
ATOM      2  C   LIG d   1     -15.609  66.210 116.172  0.00  0.00     0.016 C 
ATOM      3  C   LIG d   1     -15.651  66.379 114.768  0.00  0.00     0.038 C 
ATOM      4  C   LIG d   1     -16.195  65.404 113.920  0.00  0.00     0.028 C 
ATOM      5  C   LIG d   1     -16.093  63.989 114.479  0.00  0.00    -0.047 C 
ATOM      6  C   LIG d   1     -16.662  63.975 115.916  0.00  0.00     0.091 C 
ENDROOT
BRANCH   1   7
ATOM      7  O   LIG d   1     -16.769  65.301 117.974  0.00  0.00    -0.368 OA
BRANCH   7   8
ATOM      8  C   LIG d   1     -17.648  66.448 117.868  0.00  0.00     0.119 C 
BRANCH   8   9
ATOM      9  C   LIG d   1     -17.545  67.234 119.189  0.00  0.00     0.028 C 
ATOM     10  C   LIG d   1     -18.860  67.942 119.555  0.00  0.00     0.006 C 
ENDBRANCH   8   9
BRANCH   8  11
ATOM     11  C   LIG d   1     -19.115  66.018 117.765  0.00  0.00     0.028 C 
ATOM     12  C   LIG d   1     -19.635  66.014 116.319  0.00  0.00     0.006 C 
ENDBRANCH   8  11
ENDBRANCH   7   8
ENDBRANCH   1   7
BRANCH   6  13
ATOM     13  N   LIG d   1     -16.524  62.647 116.568  0.00  0.00    -0.311 N 
ATOM     14  C   LIG d   1     -17.555  61.955 117.051  0.00  0.00     0.210 C 
ATOM     15  C   LIG d   1     -17.189  60.617 117.701  0.00  0.00     0.109 C 
ATOM     16  O   LIG d   1     -18.741  62.308 116.973  0.00  0.00    -0.276 OA
ATOM     17  H   LIG d   1     -15.599  62.271 116.645  0.00  0.00     0.149 HD
ENDBRANCH   6  13
BRANCH   5  18
ATOM     18  N   LIG d   1     -16.820  63.093 113.560  0.00  0.00     0.381 N 
ATOM     19  H   LIG d   1     -17.617  62.706 114.025  0.00  0.00    -0.090 HD
ATOM     20  H   LIG d   1     -16.212  62.338 113.294  0.00  0.00    -0.090 HD
ATOM     21  H   LIG d   1     -17.110  63.597 112.751  0.00  0.00    -0.090 HD
ENDBRANCH   5  18
BRANCH   3  22
ATOM     22  C   LIG d   1     -15.107  67.520 114.197  0.00  0.00     0.382 C 
ATOM     23  O   LIG d   1     -14.702  68.455 114.929  0.00  0.00    -0.241 OA
ATOM     24  O   LIG d   1     -15.056  67.644 112.959  0.00  0.00    -0.241 OA
ENDBRANCH   3  22
TORSDOF 7
ENDMDL
MODEL 7
REMARK VINA RESULT:      -4.2     18.856     20.780
REMARK  7 active torsions:
REMARK  status: ('A' for Active; 'I' for Inactive)
REMARK    1  A    between atoms: C_2  and  C_3 
REMARK    2  A    between atoms: C_3  and  O_6 
REMARK    3  A    between atoms: C_3  and  C_4 
REMARK    4  A    between atoms: C_7  and  O_6 
REMARK    5  A    between atoms: C_9  and  C_10 
REMARK    6  A    between atoms: N_15  and  C_14 
REMARK    7  A    between atoms: N_20  and  C_19 
REMARK       I    between atoms: C_22  and  N_20 
ROOT
ATOM      1  C   LIG d   1     -23.908  83.088 113.579  0.00  0.00     0.161 C 
ATOM      2  C   LIG d   1     -23.081  84.208 113.766  0.00  0.00     0.016 C 
ATOM      3  C   LIG d   1     -23.576  85.523 113.921  0.00  0.00     0.038 C 
ATOM      4  C   LIG d   1     -24.947  85.789 114.052  0.00  0.00     0.028 C 
ATOM      5  C   LIG d   1     -25.833  84.755 113.364  0.00  0.00    -0.047 C 
ATOM      6  C   LIG d   1     -25.409  83.343 113.830  0.00  0.00     0.091 C 
ENDROOT
BRANCH   1   7
ATOM      7  O   LIG d   1     -23.442  81.995 114.395  0.00  0.00    -0.368 OA
BRANCH   7   8
ATOM      8  C   LIG d   1     -24.054  81.870 115.702  0.00  0.00     0.119 C 
BRANCH   8   9
ATOM      9  C   LIG d   1     -23.009  82.307 116.747  0.00  0.00     0.028 C 
ATOM     10  C   LIG d   1     -23.472  83.523 117.566  0.00  0.00     0.006 C 
ENDBRANCH   8   9
BRANCH   8  11
ATOM     11  C   LIG d   1     -24.370  80.408 116.032  0.00  0.00     0.028 C 
ATOM     12  C   LIG d   1     -24.211  79.476 114.820  0.00  0.00     0.006 C 
ENDBRANCH   8  11
ENDBRANCH   7   8
ENDBRANCH   1   7
BRANCH   6  13
ATOM     13  N   LIG d   1     -26.169  82.267 113.141  0.00  0.00    -0.311 N 
ATOM     14  C   LIG d   1     -27.226  81.659 113.676  0.00  0.00     0.210 C 
ATOM     15  C   LIG d   1     -27.851  80.564 112.806  0.00  0.00     0.109 C 
ATOM     16  O   LIG d   1     -27.725  81.944 114.775  0.00  0.00    -0.276 OA
ATOM     17  H   LIG d   1     -25.851  81.995 112.231  0.00  0.00     0.149 HD
ENDBRANCH   6  13
BRANCH   5  18
ATOM     18  N   LIG d   1     -27.233  85.077 113.696  0.00  0.00     0.381 N 
ATOM     19  H   LIG d   1     -27.791  84.247 113.652  0.00  0.00    -0.090 HD
ATOM     20  H   LIG d   1     -27.586  85.730 113.019  0.00  0.00    -0.090 HD
ATOM     21  H   LIG d   1     -27.286  85.472 114.609  0.00  0.00    -0.090 HD
ENDBRANCH   5  18
BRANCH   3  22
ATOM     22  C   LIG d   1     -22.696  86.595 113.907  0.00  0.00     0.382 C 
ATOM     23  O   LIG d   1     -22.985  87.651 114.519  0.00  0.00    -0.241 OA
ATOM     24  O   LIG d   1     -21.637  86.534 113.254  0.00  0.00    -0.241 OA
ENDBRANCH   3  22
TORSDOF 7
ENDMDL
MODEL 8
REMARK VINA RESULT:      -4.1     15.046     17.344
REMARK  7 active torsions:
REMARK  status: ('A' for Active; 'I' for Inactive)
REMARK    1  A    between atoms: C_2  and  C_3 
REMARK    2  A    between atoms: C_3  and  O_6 
REMARK    3  A    between atoms: C_3  and  C_4 
REMARK    4  A    between atoms: C_7  and  O_6 
REMARK    5  A    between atoms: C_9  and  C_10 
REMARK    6  A    between atoms: N_15  and  C_14 
REMARK    7  A    between atoms: N_20  and  C_19 
REMARK       I    between atoms: C_22  and  N_20 
ROOT
ATOM      1  C   LIG d   1      10.920  75.331 115.615  0.00  0.00     0.161 C 
ATOM      2  C   LIG d   1       9.817  76.193 115.496  0.00  0.00     0.016 C 
ATOM      3  C   LIG d   1       9.924  77.538 115.072  0.00  0.00     0.038 C 
ATOM      4  C   LIG d   1      11.129  78.070 114.590  0.00  0.00     0.028 C 
ATOM      5  C   LIG d   1      12.366  77.389 115.167  0.00  0.00    -0.047 C 
ATOM      6  C   LIG d   1      12.226  75.860 114.988  0.00  0.00     0.091 C 
ENDROOT
BRANCH   1   7
ATOM      7  O   LIG d   1      10.589  74.038 115.069  0.00  0.00    -0.368 OA
BRANCH   7   8
ATOM      8  C   LIG d   1      10.541  72.941 116.014  0.00  0.00     0.119 C 
BRANCH   8   9
ATOM      9  C   LIG d   1      11.272  71.745 115.372  0.00  0.00     0.028 C 
ATOM     10  C   LIG d   1      12.677  71.532 115.960  0.00  0.00     0.006 C 
ENDBRANCH   8   9
BRANCH   8  11
ATOM     11  C   LIG d   1       9.104  72.463 116.241  0.00  0.00     0.028 C 
ATOM     12  C   LIG d   1       9.014  71.297 117.238  0.00  0.00     0.006 C 
ENDBRANCH   8  11
ENDBRANCH   7   8
ENDBRANCH   1   7
BRANCH   6  13
ATOM     13  N   LIG d   1      13.355  75.112 115.601  0.00  0.00    -0.311 N 
ATOM     14  C   LIG d   1      14.499  74.863 114.967  0.00  0.00     0.210 C 
ATOM     15  C   LIG d   1      15.523  74.059 115.773  0.00  0.00     0.109 C 
ATOM     16  O   LIG d   1      14.776  75.259 113.824  0.00  0.00    -0.276 OA
ATOM     17  H   LIG d   1      13.227  74.781 116.537  0.00  0.00     0.149 HD
ENDBRANCH   6  13
BRANCH   5  18
ATOM     18  N   LIG d   1      13.544  77.947 114.477  0.00  0.00     0.381 N 
ATOM     19  H   LIG d   1      13.302  78.195 113.539  0.00  0.00    -0.090 HD
ATOM     20  H   LIG d   1      14.263  77.245 114.442  0.00  0.00    -0.090 HD
ATOM     21  H   LIG d   1      13.877  78.749 114.965  0.00  0.00    -0.090 HD
ENDBRANCH   5  18
BRANCH   3  22
ATOM     22  C   LIG d   1       8.824  78.377 115.166  0.00  0.00     0.382 C 
ATOM     23  O   LIG d   1       8.971  79.563 115.549  0.00  0.00    -0.241 OA
ATOM     24  O   LIG d   1       7.681  77.951 114.914  0.00  0.00    -0.241 OA
ENDBRANCH   3  22
TORSDOF 7
ENDMDL
MODEL 9
REMARK VINA RESULT:      -4.1     15.794     18.655
REMARK  7 active torsions:
REMARK  status: ('A' for Active; 'I' for Inactive)
REMARK    1  A    between atoms: C_2  and  C_3 
REMARK    2  A    between atoms: C_3  and  O_6 
REMARK    3  A    between atoms: C_3  and  C_4 
REMARK    4  A    between atoms: C_7  and  O_6 
REMARK    5  A    between atoms: C_9  and  C_10 
REMARK    6  A    between atoms: N_15  and  C_14 
REMARK    7  A    between atoms: N_20  and  C_19 
REMARK       I    between atoms: C_22  and  N_20 
ROOT
ATOM      1  C   LIG d   1     -17.324  64.557 116.834  0.00  0.00     0.161 C 
ATOM      2  C   LIG d   1     -16.596  65.757 116.792  0.00  0.00     0.016 C 
ATOM      3  C   LIG d   1     -15.846  66.173 115.668  0.00  0.00     0.038 C 
ATOM      4  C   LIG d   1     -15.896  65.484 114.447  0.00  0.00     0.028 C 
ATOM      5  C   LIG d   1     -16.214  64.001 114.601  0.00  0.00    -0.047 C 
ATOM      6  C   LIG d   1     -17.481  63.847 115.473  0.00  0.00     0.091 C 
ENDROOT
BRANCH   1   7
ATOM      7  O   LIG d   1     -18.616  64.790 117.430  0.00  0.00    -0.368 OA
BRANCH   7   8
ATOM      8  C   LIG d   1     -19.698  65.077 116.511  0.00  0.00     0.119 C 
BRANCH   8   9
ATOM      9  C   LIG d   1     -20.126  66.540 116.743  0.00  0.00     0.028 C 
ATOM     10  C   LIG d   1     -21.170  67.015 115.719  0.00  0.00     0.006 C 
ENDBRANCH   8   9
BRANCH   8  11
ATOM     11  C   LIG d   1     -20.938  64.237 116.831  0.00  0.00     0.028 C 
ATOM     12  C   LIG d   1     -20.677  63.176 117.912  0.00  0.00     0.006 C 
ENDBRANCH   8  11
ENDBRANCH   7   8
ENDBRANCH   1   7
BRANCH   6  13
ATOM     13  N   LIG d   1     -17.814  62.424 115.744  0.00  0.00    -0.311 N 
ATOM     14  C   LIG d   1     -18.711  61.735 115.041  0.00  0.00     0.210 C 
ATOM     15  C   LIG d   1     -18.917  60.287 115.499  0.00  0.00     0.109 C 
ATOM     16  O   LIG d   1     -19.332  62.175 114.062  0.00  0.00    -0.276 OA
ATOM     17  H   LIG d   1     -17.333  61.979 116.501  0.00  0.00     0.149 HD
ENDBRANCH   6  13
BRANCH   5  18
ATOM     18  N   LIG d   1     -16.372  63.436 113.247  0.00  0.00     0.381 N 
ATOM     19  H   LIG d   1     -17.147  63.870 112.787  0.00  0.00    -0.090 HD
ATOM     20  H   LIG d   1     -16.562  62.452 113.326  0.00  0.00    -0.090 HD
ATOM     21  H   LIG d   1     -15.540  63.579 112.719  0.00  0.00    -0.090 HD
ENDBRANCH   5  18
BRANCH   3  22
ATOM     22  C   LIG d   1     -15.002  67.269 115.771  0.00  0.00     0.382 C 
ATOM     23  O   LIG d   1     -15.222  68.296 115.085  0.00  0.00    -0.241 OA
ATOM     24  O   LIG d   1     -13.999  67.226 116.509  0.00  0.00    -0.241 OA
ENDBRANCH   3  22
TORSDOF 7
ENDMDL
