MODEL 1
REMARK VINA RESULT:      -5.3      0.000      0.000
REMARK  7 active torsions:
REMARK  status: ('A' for Active; 'I' for Inactive)
REMARK    1  A    between atoms: C_2  and  C_3 
REMARK    2  A    between atoms: C_3  and  O_6 
REMARK    3  A    between atoms: C_3  and  C_4 
REMARK    4  A    between atoms: C_7  and  O_6 
REMARK    5  A    between atoms: C_9  and  C_10 
REMARK    6  A    between atoms: N_15  and  C_14 
REMARK    7  A    between atoms: N_20  and  C_19 
REMARK       I    between atoms: C_22  and  N_20 
ROOT
ATOM      1  C   LIG d   1      -2.889  76.827 116.518  0.00  0.00     0.161 C 
ATOM      2  C   LIG d   1      -3.032  77.875 115.593  0.00  0.00     0.016 C 
ATOM      3  C   LIG d   1      -2.000  78.286 114.718  0.00  0.00     0.038 C 
ATOM      4  C   LIG d   1      -0.797  77.573 114.604  0.00  0.00     0.028 C 
ATOM      5  C   LIG d   1      -0.417  76.819 115.873  0.00  0.00    -0.047 C 
ATOM      6  C   LIG d   1      -1.622  75.966 116.331  0.00  0.00     0.091 C 
ENDROOT
BRANCH   1   7
ATOM      7  O   LIG d   1      -4.067  75.996 116.501  0.00  0.00    -0.368 OA
BRANCH   7   8
ATOM      8  C   LIG d   1      -5.277  76.615 115.999  0.00  0.00     0.119 C 
BRANCH   8   9
ATOM      9  C   LIG d   1      -6.361  76.459 117.083  0.00  0.00     0.028 C 
ATOM     10  C   LIG d   1      -7.728  76.074 116.494  0.00  0.00     0.006 C 
ENDBRANCH   8   9
BRANCH   8  11
ATOM     11  C   LIG d   1      -5.817  75.871 114.775  0.00  0.00     0.028 C 
ATOM     12  C   LIG d   1      -4.824  74.838 114.219  0.00  0.00     0.006 C 
ENDBRANCH   8  11
ENDBRANCH   7   8
ENDBRANCH   1   7
BRANCH   6  13
ATOM     13  N   LIG d   1      -1.364  75.261 117.613  0.00  0.00    -0.311 N 
ATOM     14  C   LIG d   1      -0.743  74.085 117.691  0.00  0.00     0.210 C 
ATOM     15  C   LIG d   1      -0.597  73.523 119.108  0.00  0.00     0.109 C 
ATOM     16  O   LIG d   1      -0.271  73.469 116.723  0.00  0.00    -0.276 OA
ATOM     17  H   LIG d   1      -1.686  75.705 118.451  0.00  0.00     0.149 HD
ENDBRANCH   6  13
BRANCH   5  18
ATOM     18  N   LIG d   1       0.780  76.012 115.571  0.00  0.00     0.381 N 
ATOM     19  H   LIG d   1       1.555  76.338 116.113  0.00  0.00    -0.090 HD
ATOM     20  H   LIG d   1       1.009  76.121 114.598  0.00  0.00    -0.090 HD
ATOM     21  H   LIG d   1       0.605  75.052 115.772  0.00  0.00    -0.090 HD
ENDBRANCH   5  18
BRANCH   3  22
ATOM     22  C   LIG d   1      -2.152  79.446 113.974  0.00  0.00     0.382 C 
ATOM     23  O   LIG d   1      -3.299  79.902 113.751  0.00  0.00    -0.241 OA
ATOM     24  O   LIG d   1      -1.159  80.018 113.486  0.00  0.00    -0.241 OA
ENDBRANCH   3  22
TORSDOF 7
ENDMDL
MODEL 2
REMARK VINA RESULT:      -4.9     11.372     13.271
REMARK  7 active torsions:
REMARK  status: ('A' for Active; 'I' for Inactive)
REMARK    1  A    between atoms: C_2  and  C_3 
REMARK    2  A    between atoms: C_3  and  O_6 
REMARK    3  A    between atoms: C_3  and  C_4 
REMARK    4  A    between atoms: C_7  and  O_6 
REMARK    5  A    between atoms: C_9  and  C_10 
REMARK    6  A    between atoms: N_15  and  C_14 
REMARK    7  A    between atoms: N_20  and  C_19 
REMARK       I    between atoms: C_22  and  N_20 
ROOT
ATOM      1  C   LIG d   1       1.276  87.731 116.610  0.00  0.00     0.161 C 
ATOM      2  C   LIG d   1      -0.089  87.722 116.939  0.00  0.00     0.016 C 
ATOM      3  C   LIG d   1      -0.736  88.787 117.607  0.00  0.00     0.038 C 
ATOM      4  C   LIG d   1      -0.089  90.006 117.858  0.00  0.00     0.028 C 
ATOM      5  C   LIG d   1       1.423  89.872 117.996  0.00  0.00    -0.047 C 
ATOM      6  C   LIG d   1       1.972  89.098 116.776  0.00  0.00     0.091 C 
ENDROOT
BRANCH   1   7
ATOM      7  O   LIG d   1       1.459  87.236 115.268  0.00  0.00    -0.368 OA
BRANCH   7   8
ATOM      8  C   LIG d   1       1.883  85.855 115.151  0.00  0.00     0.119 C 
BRANCH   8   9
ATOM      9  C   LIG d   1       2.674  85.504 116.426  0.00  0.00     0.028 C 
ATOM     10  C   LIG d   1       4.174  85.310 116.151  0.00  0.00     0.006 C 
ENDBRANCH   8   9
BRANCH   8  11
ATOM     11  C   LIG d   1       2.872  85.673 113.996  0.00  0.00     0.028 C 
ATOM     12  C   LIG d   1       2.880  86.864 113.024  0.00  0.00     0.006 C 
ENDBRANCH   8  11
ENDBRANCH   7   8
ENDBRANCH   1   7
BRANCH   6  13
ATOM     13  N   LIG d   1       3.434  88.849 116.873  0.00  0.00    -0.311 N 
ATOM     14  C   LIG d   1       4.292  89.124 115.892  0.00  0.00     0.210 C 
ATOM     15  C   LIG d   1       5.752  88.772 116.191  0.00  0.00     0.109 C 
ATOM     16  O   LIG d   1       3.986  89.657 114.814  0.00  0.00    -0.276 OA
ATOM     17  H   LIG d   1       3.773  88.448 117.726  0.00  0.00     0.149 HD
ENDBRANCH   6  13
BRANCH   5  18
ATOM     18  N   LIG d   1       1.982  91.232 118.117  0.00  0.00     0.381 N 
ATOM     19  H   LIG d   1       2.289  91.553 117.221  0.00  0.00    -0.090 HD
ATOM     20  H   LIG d   1       2.778  91.203 118.731  0.00  0.00    -0.090 HD
ATOM     21  H   LIG d   1       1.294  91.852 118.483  0.00  0.00    -0.090 HD
ENDBRANCH   5  18
BRANCH   3  22
ATOM     22  C   LIG d   1      -2.034  88.623 118.067  0.00  0.00     0.382 C 
ATOM     23  O   LIG d   1      -2.991  89.140 117.441  0.00  0.00    -0.241 OA
ATOM     24  O   LIG d   1      -2.256  88.002 119.124  0.00  0.00    -0.241 OA
ENDBRANCH   3  22
TORSDOF 7
ENDMDL
MODEL 3
REMARK VINA RESULT:      -4.8     12.738     15.352
REMARK  7 active torsions:
REMARK  status: ('A' for Active; 'I' for Inactive)
REMARK    1  A    between atoms: C_2  and  C_3 
REMARK    2  A    between atoms: C_3  and  O_6 
REMARK    3  A    between atoms: C_3  and  C_4 
REMARK    4  A    between atoms: C_7  and  O_6 
REMARK    5  A    between atoms: C_9  and  C_10 
REMARK    6  A    between atoms: N_15  and  C_14 
REMARK    7  A    between atoms: N_20  and  C_19 
REMARK       I    between atoms: C_22  and  N_20 
ROOT
ATOM      1  C   LIG d   1      11.680  78.742 113.798  0.00  0.00     0.161 C 
ATOM      2  C   LIG d   1      10.329  78.954 114.119  0.00  0.00     0.016 C 
ATOM      3  C   LIG d   1       9.491  77.951 114.659  0.00  0.00     0.038 C 
ATOM      4  C   LIG d   1       9.990  76.702 115.056  0.00  0.00     0.028 C 
ATOM      5  C   LIG d   1      11.234  76.274 114.285  0.00  0.00    -0.047 C 
ATOM      6  C   LIG d   1      12.271  77.419 114.328  0.00  0.00     0.091 C 
ENDROOT
BRANCH   1   7
ATOM      7  O   LIG d   1      12.471  79.860 114.248  0.00  0.00    -0.368 OA
BRANCH   7   8
ATOM      8  C   LIG d   1      13.004  79.763 115.591  0.00  0.00     0.119 C 
BRANCH   8   9
ATOM      9  C   LIG d   1      12.307  80.840 116.445  0.00  0.00     0.028 C 
ATOM     10  C   LIG d   1      11.322  80.237 117.460  0.00  0.00     0.006 C 
ENDBRANCH   8   9
BRANCH   8  11
ATOM     11  C   LIG d   1      14.493  80.120 115.626  0.00  0.00     0.028 C 
ATOM     12  C   LIG d   1      15.071  80.405 114.231  0.00  0.00     0.006 C 
ENDBRANCH   8  11
ENDBRANCH   7   8
ENDBRANCH   1   7
BRANCH   6  13
ATOM     13  N   LIG d   1      13.485  77.115 113.526  0.00  0.00    -0.311 N 
ATOM     14  C   LIG d   1      14.614  76.645 114.054  0.00  0.00     0.210 C 
ATOM     15  C   LIG d   1      15.751  76.419 113.053  0.00  0.00     0.109 C 
ATOM     16  O   LIG d   1      14.771  76.364 115.252  0.00  0.00    -0.276 OA
ATOM     17  H   LIG d   1      13.435  77.284 112.541  0.00  0.00     0.149 HD
ENDBRANCH   6  13
BRANCH   5  18
ATOM     18  N   LIG d   1      11.727  75.024 114.894  0.00  0.00     0.381 N 
ATOM     19  H   LIG d   1      11.173  74.795 115.695  0.00  0.00    -0.090 HD
ATOM     20  H   LIG d   1      12.675  75.161 115.195  0.00  0.00    -0.090 HD
ATOM     21  H   LIG d   1      11.685  74.282 114.230  0.00  0.00    -0.090 HD
ENDBRANCH   5  18
BRANCH   3  22
ATOM     22  C   LIG d   1       8.128  78.181 114.768  0.00  0.00     0.382 C 
ATOM     23  O   LIG d   1       7.313  77.365 114.272  0.00  0.00    -0.241 OA
ATOM     24  O   LIG d   1       7.703  79.215 115.316  0.00  0.00    -0.241 OA
ENDBRANCH   3  22
TORSDOF 7
ENDMDL
MODEL 4
REMARK VINA RESULT:      -4.7      2.605      3.433
REMARK  7 active torsions:
REMARK  status: ('A' for Active; 'I' for Inactive)
REMARK    1  A    between atoms: C_2  and  C_3 
REMARK    2  A    between atoms: C_3  and  O_6 
REMARK    3  A    between atoms: C_3  and  C_4 
REMARK    4  A    between atoms: C_7  and  O_6 
REMARK    5  A    between atoms: C_9  and  C_10 
REMARK    6  A    between atoms: N_15  and  C_14 
REMARK    7  A    between atoms: N_20  and  C_19 
REMARK       I    between atoms: C_22  and  N_20 
ROOT
ATOM      1  C   LIG d   1      -3.982  76.957 117.418  0.00  0.00     0.161 C 
ATOM      2  C   LIG d   1      -4.954  77.913 117.756  0.00  0.00     0.016 C 
ATOM      3  C   LIG d   1      -4.940  79.242 117.272  0.00  0.00     0.038 C 
ATOM      4  C   LIG d   1      -4.031  79.663 116.290  0.00  0.00     0.028 C 
ATOM      5  C   LIG d   1      -2.724  78.878 116.297  0.00  0.00    -0.047 C 
ATOM      6  C   LIG d   1      -3.046  77.367 116.261  0.00  0.00     0.091 C 
ENDROOT
BRANCH   1   7
ATOM      7  O   LIG d   1      -4.617  75.697 117.126  0.00  0.00    -0.368 OA
BRANCH   7   8
ATOM      8  C   LIG d   1      -5.739  75.746 116.210  0.00  0.00     0.119 C 
BRANCH   8   9
ATOM      9  C   LIG d   1      -6.900  74.966 116.858  0.00  0.00     0.028 C 
ATOM     10  C   LIG d   1      -6.729  73.443 116.728  0.00  0.00     0.006 C 
ENDBRANCH   8   9
BRANCH   8  11
ATOM     11  C   LIG d   1      -5.428  75.002 114.908  0.00  0.00     0.028 C 
ATOM     12  C   LIG d   1      -5.448  75.922 113.677  0.00  0.00     0.006 C 
ENDBRANCH   8  11
ENDBRANCH   7   8
ENDBRANCH   1   7
BRANCH   6  13
ATOM     13  N   LIG d   1      -1.825  76.524 116.351  0.00  0.00    -0.311 N 
ATOM     14  C   LIG d   1      -1.443  75.684 115.391  0.00  0.00     0.210 C 
ATOM     15  C   LIG d   1      -0.164  74.896 115.694  0.00  0.00     0.109 C 
ATOM     16  O   LIG d   1      -2.023  75.539 114.305  0.00  0.00    -0.276 OA
ATOM     17  H   LIG d   1      -1.278  76.602 117.185  0.00  0.00     0.149 HD
ENDBRANCH   6  13
BRANCH   5  18
ATOM     18  N   LIG d   1      -1.928  79.327 115.139  0.00  0.00     0.381 N 
ATOM     19  H   LIG d   1      -1.521  78.536 114.681  0.00  0.00    -0.090 HD
ATOM     20  H   LIG d   1      -1.185  79.919 115.466  0.00  0.00    -0.090 HD
ATOM     21  H   LIG d   1      -2.507  79.828 114.501  0.00  0.00    -0.090 HD
ENDBRANCH   5  18
BRANCH   3  22
ATOM     22  C   LIG d   1      -5.818  80.175 117.801  0.00  0.00     0.382 C 
ATOM     23  O   LIG d   1      -6.044  80.195 119.035  0.00  0.00    -0.241 OA
ATOM     24  O   LIG d   1      -6.422  80.968 117.054  0.00  0.00    -0.241 OA
ENDBRANCH   3  22
TORSDOF 7
ENDMDL
MODEL 5
REMARK VINA RESULT:      -4.4      9.295     11.500
REMARK  7 active torsions:
REMARK  status: ('A' for Active; 'I' for Inactive)
REMARK    1  A    between atoms: C_2  and  C_3 
REMARK    2  A    between atoms: C_3  and  O_6 
REMARK    3  A    between atoms: C_3  and  C_4 
REMARK    4  A    between atoms: C_7  and  O_6 
REMARK    5  A    between atoms: C_9  and  C_10 
REMARK    6  A    between atoms: N_15  and  C_14 
REMARK    7  A    between atoms: N_20  and  C_19 
REMARK       I    between atoms: C_22  and  N_20 
ROOT
ATOM      1  C   LIG d   1       3.794  85.598 115.770  0.00  0.00     0.161 C 
ATOM      2  C   LIG d   1       3.468  86.511 114.753  0.00  0.00     0.016 C 
ATOM      3  C   LIG d   1       4.142  87.740 114.566  0.00  0.00     0.038 C 
ATOM      4  C   LIG d   1       5.293  88.073 115.295  0.00  0.00     0.028 C 
ATOM      5  C   LIG d   1       5.352  87.412 116.668  0.00  0.00    -0.047 C 
ATOM      6  C   LIG d   1       5.118  85.893 116.505  0.00  0.00     0.091 C 
ENDROOT
BRANCH   1   7
ATOM      7  O   LIG d   1       3.803  84.258 115.239  0.00  0.00    -0.368 OA
BRANCH   7   8
ATOM      8  C   LIG d   1       2.515  83.602 115.140  0.00  0.00     0.119 C 
BRANCH   8   9
ATOM      9  C   LIG d   1       2.508  82.440 116.151  0.00  0.00     0.028 C 
ATOM     10  C   LIG d   1       3.638  81.429 115.892  0.00  0.00     0.006 C 
ENDBRANCH   8   9
BRANCH   8  11
ATOM     11  C   LIG d   1       2.327  82.948 113.768  0.00  0.00     0.028 C 
ATOM     12  C   LIG d   1       1.495  83.810 112.805  0.00  0.00     0.006 C 
ENDBRANCH   8  11
ENDBRANCH   7   8
ENDBRANCH   1   7
BRANCH   6  13
ATOM     13  N   LIG d   1       5.077  85.182 117.809  0.00  0.00    -0.311 N 
ATOM     14  C   LIG d   1       5.688  84.020 118.031  0.00  0.00     0.210 C 
ATOM     15  C   LIG d   1       5.502  83.449 119.440  0.00  0.00     0.109 C 
ATOM     16  O   LIG d   1       6.394  83.423 117.203  0.00  0.00    -0.276 OA
ATOM     17  H   LIG d   1       4.552  85.611 118.546  0.00  0.00     0.149 HD
ENDBRANCH   6  13
BRANCH   5  18
ATOM     18  N   LIG d   1       6.664  87.734 117.261  0.00  0.00     0.381 N 
ATOM     19  H   LIG d   1       6.862  88.707 117.139  0.00  0.00    -0.090 HD
ATOM     20  H   LIG d   1       7.374  87.206 116.786  0.00  0.00    -0.090 HD
ATOM     21  H   LIG d   1       6.665  87.507 118.231  0.00  0.00    -0.090 HD
ENDBRANCH   5  18
BRANCH   3  22
ATOM     22  C   LIG d   1       3.639  88.669 113.668  0.00  0.00     0.382 C 
ATOM     23  O   LIG d   1       2.623  88.395 112.985  0.00  0.00    -0.241 OA
ATOM     24  O   LIG d   1       4.215  89.760 113.499  0.00  0.00    -0.241 OA
ENDBRANCH   3  22
TORSDOF 7
ENDMDL
MODEL 6
REMARK VINA RESULT:      -4.4     10.509     13.213
REMARK  7 active torsions:
REMARK  status: ('A' for Active; 'I' for Inactive)
REMARK    1  A    between atoms: C_2  and  C_3 
REMARK    2  A    between atoms: C_3  and  O_6 
REMARK    3  A    between atoms: C_3  and  C_4 
REMARK    4  A    between atoms: C_7  and  O_6 
REMARK    5  A    between atoms: C_9  and  C_10 
REMARK    6  A    between atoms: N_15  and  C_14 
REMARK    7  A    between atoms: N_20  and  C_19 
REMARK       I    between atoms: C_22  and  N_20 
ROOT
ATOM      1  C   LIG d   1       1.670  87.624 116.429  0.00  0.00     0.161 C 
ATOM      2  C   LIG d   1       2.668  87.784 115.453  0.00  0.00     0.016 C 
ATOM      3  C   LIG d   1       3.633  88.817 115.488  0.00  0.00     0.038 C 
ATOM      4  C   LIG d   1       3.759  89.675 116.590  0.00  0.00     0.028 C 
ATOM      5  C   LIG d   1       2.457  89.870 117.359  0.00  0.00    -0.047 C 
ATOM      6  C   LIG d   1       1.861  88.484 117.696  0.00  0.00     0.091 C 
ENDROOT
BRANCH   1   7
ATOM      7  O   LIG d   1       1.551  86.231 116.782  0.00  0.00    -0.368 OA
BRANCH   7   8
ATOM      8  C   LIG d   1       2.726  85.414 116.560  0.00  0.00     0.119 C 
BRANCH   8   9
ATOM      9  C   LIG d   1       2.250  84.060 116.001  0.00  0.00     0.028 C 
ATOM     10  C   LIG d   1       2.908  83.717 114.654  0.00  0.00     0.006 C 
ENDBRANCH   8   9
BRANCH   8  11
ATOM     11  C   LIG d   1       3.432  85.084 117.879  0.00  0.00     0.028 C 
ATOM     12  C   LIG d   1       4.704  85.917 118.100  0.00  0.00     0.006 C 
ENDBRANCH   8  11
ENDBRANCH   7   8
ENDBRANCH   1   7
BRANCH   6  13
ATOM     13  N   LIG d   1       0.543  88.583 118.375  0.00  0.00    -0.311 N 
ATOM     14  C   LIG d   1      -0.505  89.217 117.852  0.00  0.00     0.210 C 
ATOM     15  C   LIG d   1      -1.763  89.217 118.726  0.00  0.00     0.109 C 
ATOM     16  O   LIG d   1      -0.523  89.751 116.732  0.00  0.00    -0.276 OA
ATOM     17  H   LIG d   1       0.459  88.151 119.274  0.00  0.00     0.149 HD
ENDBRANCH   6  13
BRANCH   5  18
ATOM     18  N   LIG d   1       2.763  90.674 118.558  0.00  0.00     0.381 N 
ATOM     19  H   LIG d   1       2.326  90.266 119.360  0.00  0.00    -0.090 HD
ATOM     20  H   LIG d   1       2.391  91.599 118.432  0.00  0.00    -0.090 HD
ATOM     21  H   LIG d   1       3.748  90.720 118.695  0.00  0.00    -0.090 HD
ENDBRANCH   5  18
BRANCH   3  22
ATOM     22  C   LIG d   1       4.459  89.023 114.394  0.00  0.00     0.382 C 
ATOM     23  O   LIG d   1       5.599  88.500 114.362  0.00  0.00    -0.241 OA
ATOM     24  O   LIG d   1       4.097  89.762 113.459  0.00  0.00    -0.241 OA
ENDBRANCH   3  22
TORSDOF 7
ENDMDL
MODEL 7
REMARK VINA RESULT:      -4.2     12.650     15.318
REMARK  7 active torsions:
REMARK  status: ('A' for Active; 'I' for Inactive)
REMARK    1  A    between atoms: C_2  and  C_3 
REMARK    2  A    between atoms: C_3  and  O_6 
REMARK    3  A    between atoms: C_3  and  C_4 
REMARK    4  A    between atoms: C_7  and  O_6 
REMARK    5  A    between atoms: C_9  and  C_10 
REMARK    6  A    between atoms: N_15  and  C_14 
REMARK    7  A    between atoms: N_20  and  C_19 
REMARK       I    between atoms: C_22  and  N_20 
ROOT
ATOM      1  C   LIG d   1      11.489  78.446 114.769  0.00  0.00     0.161 C 
ATOM      2  C   LIG d   1      10.142  78.611 114.409  0.00  0.00     0.016 C 
ATOM      3  C   LIG d   1       9.062  78.233 115.239  0.00  0.00     0.038 C 
ATOM      4  C   LIG d   1       9.258  77.800 116.559  0.00  0.00     0.028 C 
ATOM      5  C   LIG d   1      10.615  77.142 116.785  0.00  0.00    -0.047 C 
ATOM      6  C   LIG d   1      11.722  78.079 116.250  0.00  0.00     0.091 C 
ENDROOT
BRANCH   1   7
ATOM      7  O   LIG d   1      12.236  79.629 114.424  0.00  0.00    -0.368 OA
BRANCH   7   8
ATOM      8  C   LIG d   1      13.156  79.500 113.312  0.00  0.00     0.119 C 
BRANCH   8   9
ATOM      9  C   LIG d   1      13.255  78.002 112.965  0.00  0.00     0.028 C 
ATOM     10  C   LIG d   1      14.700  77.479 113.033  0.00  0.00     0.006 C 
ENDBRANCH   8   9
BRANCH   8  11
ATOM     11  C   LIG d   1      14.574  79.919 113.710  0.00  0.00     0.028 C 
ATOM     12  C   LIG d   1      14.593  81.118 114.672  0.00  0.00     0.006 C 
ENDBRANCH   8  11
ENDBRANCH   7   8
ENDBRANCH   1   7
BRANCH   6  13
ATOM     13  N   LIG d   1      13.076  77.474 116.356  0.00  0.00    -0.311 N 
ATOM     14  C   LIG d   1      14.103  78.077 116.953  0.00  0.00     0.210 C 
ATOM     15  C   LIG d   1      15.415  77.287 116.933  0.00  0.00     0.109 C 
ATOM     16  O   LIG d   1      14.043  79.175 117.525  0.00  0.00    -0.276 OA
ATOM     17  H   LIG d   1      13.205  76.570 115.946  0.00  0.00     0.149 HD
ENDBRANCH   6  13
BRANCH   5  18
ATOM     18  N   LIG d   1      10.740  76.865 118.229  0.00  0.00     0.381 N 
ATOM     19  H   LIG d   1      11.107  77.669 118.698  0.00  0.00    -0.090 HD
ATOM     20  H   LIG d   1      11.383  76.104 118.359  0.00  0.00    -0.090 HD
ATOM     21  H   LIG d   1       9.851  76.626 118.609  0.00  0.00    -0.090 HD
ENDBRANCH   5  18
BRANCH   3  22
ATOM     22  C   LIG d   1       7.770  78.249 114.736  0.00  0.00     0.382 C 
ATOM     23  O   LIG d   1       7.278  77.208 114.238  0.00  0.00    -0.241 OA
ATOM     24  O   LIG d   1       7.105  79.302 114.734  0.00  0.00    -0.241 OA
ENDBRANCH   3  22
TORSDOF 7
ENDMDL
MODEL 8
REMARK VINA RESULT:      -4.2      3.122      5.029
REMARK  7 active torsions:
REMARK  status: ('A' for Active; 'I' for Inactive)
REMARK    1  A    between atoms: C_2  and  C_3 
REMARK    2  A    between atoms: C_3  and  O_6 
REMARK    3  A    between atoms: C_3  and  C_4 
REMARK    4  A    between atoms: C_7  and  O_6 
REMARK    5  A    between atoms: C_9  and  C_10 
REMARK    6  A    between atoms: N_15  and  C_14 
REMARK    7  A    between atoms: N_20  and  C_19 
REMARK       I    between atoms: C_22  and  N_20 
ROOT
ATOM      1  C   LIG d   1      -3.689  77.518 116.950  0.00  0.00     0.161 C 
ATOM      2  C   LIG d   1      -2.544  78.271 117.261  0.00  0.00     0.016 C 
ATOM      3  C   LIG d   1      -2.594  79.592 117.760  0.00  0.00     0.038 C 
ATOM      4  C   LIG d   1      -3.803  80.200 118.129  0.00  0.00     0.028 C 
ATOM      5  C   LIG d   1      -5.008  79.667 117.361  0.00  0.00    -0.047 C 
ATOM      6  C   LIG d   1      -5.017  78.124 117.450  0.00  0.00     0.091 C 
ENDROOT
BRANCH   1   7
ATOM      7  O   LIG d   1      -3.536  76.171 117.442  0.00  0.00    -0.368 OA
BRANCH   7   8
ATOM      8  C   LIG d   1      -3.317  75.148 116.440  0.00  0.00     0.119 C 
BRANCH   8   9
ATOM      9  C   LIG d   1      -1.825  74.764 116.489  0.00  0.00     0.028 C 
ATOM     10  C   LIG d   1      -1.047  75.275 115.265  0.00  0.00     0.006 C 
ENDBRANCH   8   9
BRANCH   8  11
ATOM     11  C   LIG d   1      -3.549  75.692 115.027  0.00  0.00     0.028 C 
ATOM     12  C   LIG d   1      -4.711  74.994 114.304  0.00  0.00     0.006 C 
ENDBRANCH   8  11
ENDBRANCH   7   8
ENDBRANCH   1   7
BRANCH   6  13
ATOM     13  N   LIG d   1      -6.116  77.516 116.655  0.00  0.00    -0.311 N 
ATOM     14  C   LIG d   1      -6.929  76.574 117.129  0.00  0.00     0.210 C 
ATOM     15  C   LIG d   1      -7.982  76.070 116.137  0.00  0.00     0.109 C 
ATOM     16  O   LIG d   1      -6.900  76.131 118.287  0.00  0.00    -0.276 OA
ATOM     17  H   LIG d   1      -6.231  77.840 115.714  0.00  0.00     0.149 HD
ENDBRANCH   6  13
BRANCH   5  18
ATOM     18  N   LIG d   1      -6.215  80.286 117.939  0.00  0.00     0.381 N 
ATOM     19  H   LIG d   1      -5.965  81.121 118.431  0.00  0.00    -0.090 HD
ATOM     20  H   LIG d   1      -6.627  79.645 118.594  0.00  0.00    -0.090 HD
ATOM     21  H   LIG d   1      -6.868  80.500 117.218  0.00  0.00    -0.090 HD
ENDBRANCH   5  18
BRANCH   3  22
ATOM     22  C   LIG d   1      -1.427  80.334 117.859  0.00  0.00     0.382 C 
ATOM     23  O   LIG d   1      -1.318  81.218 118.743  0.00  0.00    -0.241 OA
ATOM     24  O   LIG d   1      -0.498  80.162 117.047  0.00  0.00    -0.241 OA
ENDBRANCH   3  22
TORSDOF 7
ENDMDL
MODEL 9
REMARK VINA RESULT:      -4.2     17.116     19.551
REMARK  7 active torsions:
REMARK  status: ('A' for Active; 'I' for Inactive)
REMARK    1  A    between atoms: C_2  and  C_3 
REMARK    2  A    between atoms: C_3  and  O_6 
REMARK    3  A    between atoms: C_3  and  C_4 
REMARK    4  A    between atoms: C_7  and  O_6 
REMARK    5  A    between atoms: C_9  and  C_10 
REMARK    6  A    between atoms: N_15  and  C_14 
REMARK    7  A    between atoms: N_20  and  C_19 
REMARK       I    between atoms: C_22  and  N_20 
ROOT
ATOM      1  C   LIG d   1      -1.581  57.670 117.109  0.00  0.00     0.161 C 
ATOM      2  C   LIG d   1      -2.367  58.803 117.376  0.00  0.00     0.016 C 
ATOM      3  C   LIG d   1      -3.533  58.771 118.174  0.00  0.00     0.038 C 
ATOM      4  C   LIG d   1      -3.911  57.625 118.889  0.00  0.00     0.028 C 
ATOM      5  C   LIG d   1      -3.431  56.326 118.249  0.00  0.00    -0.047 C 
ATOM      6  C   LIG d   1      -1.914  56.434 117.971  0.00  0.00     0.091 C 
ENDROOT
BRANCH   1   7
ATOM      7  O   LIG d   1      -0.184  58.004 117.232  0.00  0.00    -0.368 OA
BRANCH   7   8
ATOM      8  C   LIG d   1       0.246  58.477 118.533  0.00  0.00     0.119 C 
BRANCH   8   9
ATOM      9  C   LIG d   1       0.332  60.014 118.461  0.00  0.00     0.028 C 
ATOM     10  C   LIG d   1      -0.503  60.700 119.555  0.00  0.00     0.006 C 
ENDBRANCH   8   9
BRANCH   8  11
ATOM     11  C   LIG d   1       1.667  58.005 118.855  0.00  0.00     0.028 C 
ATOM     12  C   LIG d   1       2.730  59.079 118.574  0.00  0.00     0.006 C 
ENDBRANCH   8  11
ENDBRANCH   7   8
ENDBRANCH   1   7
BRANCH   6  13
ATOM     13  N   LIG d   1      -1.381  55.238 117.268  0.00  0.00    -0.311 N 
ATOM     14  C   LIG d   1      -0.244  54.634 117.609  0.00  0.00     0.210 C 
ATOM     15  C   LIG d   1       0.135  53.430 116.741  0.00  0.00     0.109 C 
ATOM     16  O   LIG d   1       0.471  54.961 118.569  0.00  0.00    -0.276 OA
ATOM     17  H   LIG d   1      -1.913  54.887 116.497  0.00  0.00     0.149 HD
ENDBRANCH   6  13
BRANCH   5  18
ATOM     18  N   LIG d   1      -3.773  55.224 119.167  0.00  0.00     0.381 N 
ATOM     19  H   LIG d   1      -3.122  54.473 119.052  0.00  0.00    -0.090 HD
ATOM     20  H   LIG d   1      -4.691  54.883 118.939  0.00  0.00    -0.090 HD
ATOM     21  H   LIG d   1      -3.756  55.547 120.109  0.00  0.00    -0.090 HD
ENDBRANCH   5  18
BRANCH   3  22
ATOM     22  C   LIG d   1      -4.358  59.884 118.232  0.00  0.00     0.382 C 
ATOM     23  O   LIG d   1      -5.273  59.943 119.088  0.00  0.00    -0.241 OA
ATOM     24  O   LIG d   1      -4.226  60.811 117.410  0.00  0.00    -0.241 OA
ENDBRANCH   3  22
TORSDOF 7
ENDMDL
