MODEL 1
REMARK VINA RESULT:      -5.1      0.000      0.000
REMARK  7 active torsions:
REMARK  status: ('A' for Active; 'I' for Inactive)
REMARK    1  A    between atoms: C_2  and  C_3 
REMARK    2  A    between atoms: C_3  and  O_6 
REMARK    3  A    between atoms: C_3  and  C_4 
REMARK    4  A    between atoms: C_7  and  O_6 
REMARK    5  A    between atoms: C_9  and  C_10 
REMARK    6  A    between atoms: N_15  and  C_14 
REMARK    7  A    between atoms: N_20  and  C_19 
REMARK       I    between atoms: C_22  and  N_20 
ROOT
ATOM      1  C   LIG d   1      -4.938  76.503 117.096  0.00  0.00     0.161 C 
ATOM      2  C   LIG d   1      -5.835  77.473 117.572  0.00  0.00     0.016 C 
ATOM      3  C   LIG d   1      -5.642  78.863 117.401  0.00  0.00     0.038 C 
ATOM      4  C   LIG d   1      -4.608  79.375 116.603  0.00  0.00     0.028 C 
ATOM      5  C   LIG d   1      -3.393  78.456 116.524  0.00  0.00    -0.047 C 
ATOM      6  C   LIG d   1      -3.862  77.038 116.128  0.00  0.00     0.091 C 
ENDROOT
BRANCH   1   7
ATOM      7  O   LIG d   1      -5.667  75.420 116.485  0.00  0.00    -0.368 OA
BRANCH   7   8
ATOM      8  C   LIG d   1      -6.893  75.782 115.803  0.00  0.00     0.119 C 
BRANCH   8   9
ATOM      9  C   LIG d   1      -7.943  74.704 116.132  0.00  0.00     0.028 C 
ATOM     10  C   LIG d   1      -7.328  73.482 116.836  0.00  0.00     0.006 C 
ENDBRANCH   8   9
BRANCH   8  11
ATOM     11  C   LIG d   1      -6.720  75.729 114.282  0.00  0.00     0.028 C 
ATOM     12  C   LIG d   1      -5.568  74.811 113.845  0.00  0.00     0.006 C 
ENDBRANCH   8  11
ENDBRANCH   7   8
ENDBRANCH   1   7
BRANCH   6  13
ATOM     13  N   LIG d   1      -2.746  76.056 116.109  0.00  0.00    -0.311 N 
ATOM     14  C   LIG d   1      -2.079  75.725 115.005  0.00  0.00     0.210 C 
ATOM     15  C   LIG d   1      -0.978  74.678 115.203  0.00  0.00     0.109 C 
ATOM     16  O   LIG d   1      -2.274  76.221 113.885  0.00  0.00    -0.276 OA
ATOM     17  H   LIG d   1      -2.500  75.628 116.980  0.00  0.00     0.149 HD
ENDBRANCH   6  13
BRANCH   5  18
ATOM     18  N   LIG d   1      -2.451  79.046 115.553  0.00  0.00     0.381 N 
ATOM     19  H   LIG d   1      -1.734  78.384 115.333  0.00  0.00    -0.090 HD
ATOM     20  H   LIG d   1      -2.019  79.853 115.969  0.00  0.00    -0.090 HD
ATOM     21  H   LIG d   1      -2.936  79.310 114.724  0.00  0.00    -0.090 HD
ENDBRANCH   5  18
BRANCH   3  22
ATOM     22  C   LIG d   1      -6.467  79.759 118.064  0.00  0.00     0.382 C 
ATOM     23  O   LIG d   1      -6.705  79.604 119.286  0.00  0.00    -0.241 OA
ATOM     24  O   LIG d   1      -7.011  80.693 117.446  0.00  0.00    -0.241 OA
ENDBRANCH   3  22
TORSDOF 7
ENDMDL
MODEL 2
REMARK VINA RESULT:      -4.9      2.670      5.392
REMARK  7 active torsions:
REMARK  status: ('A' for Active; 'I' for Inactive)
REMARK    1  A    between atoms: C_2  and  C_3 
REMARK    2  A    between atoms: C_3  and  O_6 
REMARK    3  A    between atoms: C_3  and  C_4 
REMARK    4  A    between atoms: C_7  and  O_6 
REMARK    5  A    between atoms: C_9  and  C_10 
REMARK    6  A    between atoms: N_15  and  C_14 
REMARK    7  A    between atoms: N_20  and  C_19 
REMARK       I    between atoms: C_22  and  N_20 
ROOT
ATOM      1  C   LIG d   1      -3.562  75.350 116.249  0.00  0.00     0.161 C 
ATOM      2  C   LIG d   1      -2.618  76.162 115.599  0.00  0.00     0.016 C 
ATOM      3  C   LIG d   1      -2.843  76.760 114.338  0.00  0.00     0.038 C 
ATOM      4  C   LIG d   1      -4.094  76.709 113.706  0.00  0.00     0.028 C 
ATOM      5  C   LIG d   1      -4.915  75.481 114.085  0.00  0.00    -0.047 C 
ATOM      6  C   LIG d   1      -4.974  75.374 115.626  0.00  0.00     0.091 C 
ENDROOT
BRANCH   1   7
ATOM      7  O   LIG d   1      -3.625  75.696 117.647  0.00  0.00    -0.368 OA
BRANCH   7   8
ATOM      8  C   LIG d   1      -3.175  77.029 117.994  0.00  0.00     0.119 C 
BRANCH   8   9
ATOM      9  C   LIG d   1      -2.434  76.931 119.341  0.00  0.00     0.028 C 
ATOM     10  C   LIG d   1      -1.521  75.696 119.420  0.00  0.00     0.006 C 
ENDBRANCH   8   9
BRANCH   8  11
ATOM     11  C   LIG d   1      -4.358  77.968 118.249  0.00  0.00     0.028 C 
ATOM     12  C   LIG d   1      -4.656  78.889 117.056  0.00  0.00     0.006 C 
ENDBRANCH   8  11
ENDBRANCH   7   8
ENDBRANCH   1   7
BRANCH   6  13
ATOM     13  N   LIG d   1      -5.688  74.153 116.082  0.00  0.00    -0.311 N 
ATOM     14  C   LIG d   1      -6.971  74.144 116.439  0.00  0.00     0.210 C 
ATOM     15  C   LIG d   1      -7.506  72.783 116.896  0.00  0.00     0.109 C 
ATOM     16  O   LIG d   1      -7.726  75.126 116.388  0.00  0.00    -0.276 OA
ATOM     17  H   LIG d   1      -5.159  73.304 116.124  0.00  0.00     0.149 HD
ENDBRANCH   6  13
BRANCH   5  18
ATOM     18  N   LIG d   1      -6.245  75.625 113.465  0.00  0.00     0.381 N 
ATOM     19  H   LIG d   1      -6.145  75.903 112.509  0.00  0.00    -0.090 HD
ATOM     20  H   LIG d   1      -6.754  76.343 113.950  0.00  0.00    -0.090 HD
ATOM     21  H   LIG d   1      -6.741  74.763 113.517  0.00  0.00    -0.090 HD
ENDBRANCH   5  18
BRANCH   3  22
ATOM     22  C   LIG d   1      -1.796  77.385 113.678  0.00  0.00     0.382 C 
ATOM     23  O   LIG d   1      -1.525  78.585 113.925  0.00  0.00    -0.241 OA
ATOM     24  O   LIG d   1      -1.147  76.777 112.805  0.00  0.00    -0.241 OA
ENDBRANCH   3  22
TORSDOF 7
ENDMDL
MODEL 3
REMARK VINA RESULT:      -4.7      1.950      4.559
REMARK  7 active torsions:
REMARK  status: ('A' for Active; 'I' for Inactive)
REMARK    1  A    between atoms: C_2  and  C_3 
REMARK    2  A    between atoms: C_3  and  O_6 
REMARK    3  A    between atoms: C_3  and  C_4 
REMARK    4  A    between atoms: C_7  and  O_6 
REMARK    5  A    between atoms: C_9  and  C_10 
REMARK    6  A    between atoms: N_15  and  C_14 
REMARK    7  A    between atoms: N_20  and  C_19 
REMARK       I    between atoms: C_22  and  N_20 
ROOT
ATOM      1  C   LIG d   1      -4.967  77.315 115.680  0.00  0.00     0.161 C 
ATOM      2  C   LIG d   1      -6.014  76.468 116.078  0.00  0.00     0.016 C 
ATOM      3  C   LIG d   1      -5.861  75.075 116.264  0.00  0.00     0.038 C 
ATOM      4  C   LIG d   1      -4.604  74.454 116.210  0.00  0.00     0.028 C 
ATOM      5  C   LIG d   1      -3.606  75.183 115.317  0.00  0.00    -0.047 C 
ATOM      6  C   LIG d   1      -3.564  76.674 115.724  0.00  0.00     0.091 C 
ENDROOT
BRANCH   1   7
ATOM      7  O   LIG d   1      -4.990  78.524 116.465  0.00  0.00    -0.368 OA
BRANCH   7   8
ATOM      8  C   LIG d   1      -5.981  78.579 117.520  0.00  0.00     0.119 C 
BRANCH   8   9
ATOM      9  C   LIG d   1      -6.460  80.040 117.629  0.00  0.00     0.028 C 
ATOM     10  C   LIG d   1      -7.916  80.146 118.114  0.00  0.00     0.006 C 
ENDBRANCH   8   9
BRANCH   8  11
ATOM     11  C   LIG d   1      -5.364  78.252 118.883  0.00  0.00     0.028 C 
ATOM     12  C   LIG d   1      -4.323  79.290 119.330  0.00  0.00     0.006 C 
ENDBRANCH   8  11
ENDBRANCH   7   8
ENDBRANCH   1   7
BRANCH   6  13
ATOM     13  N   LIG d   1      -2.675  77.477 114.845  0.00  0.00    -0.311 N 
ATOM     14  C   LIG d   1      -2.832  77.563 113.525  0.00  0.00     0.210 C 
ATOM     15  C   LIG d   1      -1.793  78.428 112.805  0.00  0.00     0.109 C 
ATOM     16  O   LIG d   1      -3.752  77.031 112.886  0.00  0.00    -0.276 OA
ATOM     17  H   LIG d   1      -1.920  77.966 115.284  0.00  0.00     0.149 HD
ENDBRANCH   6  13
BRANCH   5  18
ATOM     18  N   LIG d   1      -2.303  74.508 115.461  0.00  0.00     0.381 N 
ATOM     19  H   LIG d   1      -1.568  75.126 115.181  0.00  0.00    -0.090 HD
ATOM     20  H   LIG d   1      -2.285  73.704 114.858  0.00  0.00    -0.090 HD
ATOM     21  H   LIG d   1      -2.167  74.226 116.406  0.00  0.00    -0.090 HD
ENDBRANCH   5  18
BRANCH   3  22
ATOM     22  C   LIG d   1      -6.979  74.282 116.468  0.00  0.00     0.382 C 
ATOM     23  O   LIG d   1      -6.860  73.034 116.534  0.00  0.00    -0.241 OA
ATOM     24  O   LIG d   1      -8.112  74.794 116.543  0.00  0.00    -0.241 OA
ENDBRANCH   3  22
TORSDOF 7
ENDMDL
MODEL 4
REMARK VINA RESULT:      -4.4      2.423      4.541
REMARK  7 active torsions:
REMARK  status: ('A' for Active; 'I' for Inactive)
REMARK    1  A    between atoms: C_2  and  C_3 
REMARK    2  A    between atoms: C_3  and  O_6 
REMARK    3  A    between atoms: C_3  and  C_4 
REMARK    4  A    between atoms: C_7  and  O_6 
REMARK    5  A    between atoms: C_9  and  C_10 
REMARK    6  A    between atoms: N_15  and  C_14 
REMARK    7  A    between atoms: N_20  and  C_19 
REMARK       I    between atoms: C_22  and  N_20 
ROOT
ATOM      1  C   LIG d   1      -3.462  76.441 117.354  0.00  0.00     0.161 C 
ATOM      2  C   LIG d   1      -4.476  75.583 116.898  0.00  0.00     0.016 C 
ATOM      3  C   LIG d   1      -5.787  76.018 116.595  0.00  0.00     0.038 C 
ATOM      4  C   LIG d   1      -6.132  77.378 116.584  0.00  0.00     0.028 C 
ATOM      5  C   LIG d   1      -5.282  78.226 117.523  0.00  0.00    -0.047 C 
ATOM      6  C   LIG d   1      -3.789  77.945 117.241  0.00  0.00     0.091 C 
ENDROOT
BRANCH   1   7
ATOM      7  O   LIG d   1      -2.227  76.144 116.672  0.00  0.00    -0.368 OA
BRANCH   7   8
ATOM      8  C   LIG d   1      -2.350  75.672 115.308  0.00  0.00     0.119 C 
BRANCH   8   9
ATOM      9  C   LIG d   1      -1.237  74.631 115.076  0.00  0.00     0.028 C 
ATOM     10  C   LIG d   1      -0.107  75.170 114.183  0.00  0.00     0.006 C 
ENDBRANCH   8   9
BRANCH   8  11
ATOM     11  C   LIG d   1      -2.071  76.794 114.303  0.00  0.00     0.028 C 
ATOM     12  C   LIG d   1      -3.337  77.267 113.571  0.00  0.00     0.006 C 
ENDBRANCH   8  11
ENDBRANCH   7   8
ENDBRANCH   1   7
BRANCH   6  13
ATOM     13  N   LIG d   1      -2.889  78.672 118.174  0.00  0.00    -0.311 N 
ATOM     14  C   LIG d   1      -1.799  79.328 117.780  0.00  0.00     0.210 C 
ATOM     15  C   LIG d   1      -1.001  79.992 118.906  0.00  0.00     0.109 C 
ATOM     16  O   LIG d   1      -1.435  79.450 116.601  0.00  0.00    -0.276 OA
ATOM     17  H   LIG d   1      -3.126  78.650 119.147  0.00  0.00     0.149 HD
ENDBRANCH   6  13
BRANCH   5  18
ATOM     18  N   LIG d   1      -5.655  79.637 117.309  0.00  0.00     0.381 N 
ATOM     19  H   LIG d   1      -6.651  79.726 117.296  0.00  0.00    -0.090 HD
ATOM     20  H   LIG d   1      -5.300  79.936 116.418  0.00  0.00    -0.090 HD
ATOM     21  H   LIG d   1      -5.273  80.205 118.034  0.00  0.00    -0.090 HD
ENDBRANCH   5  18
BRANCH   3  22
ATOM     22  C   LIG d   1      -6.779  75.084 116.338  0.00  0.00     0.382 C 
ATOM     23  O   LIG d   1      -7.975  75.451 116.244  0.00  0.00    -0.241 OA
ATOM     24  O   LIG d   1      -6.498  73.875 116.242  0.00  0.00    -0.241 OA
ENDBRANCH   3  22
TORSDOF 7
ENDMDL
MODEL 5
REMARK VINA RESULT:      -4.4     18.569     20.663
REMARK  7 active torsions:
REMARK  status: ('A' for Active; 'I' for Inactive)
REMARK    1  A    between atoms: C_2  and  C_3 
REMARK    2  A    between atoms: C_3  and  O_6 
REMARK    3  A    between atoms: C_3  and  C_4 
REMARK    4  A    between atoms: C_7  and  O_6 
REMARK    5  A    between atoms: C_9  and  C_10 
REMARK    6  A    between atoms: N_15  and  C_14 
REMARK    7  A    between atoms: N_20  and  C_19 
REMARK       I    between atoms: C_22  and  N_20 
ROOT
ATOM      1  C   LIG d   1     -23.591  83.278 115.279  0.00  0.00     0.161 C 
ATOM      2  C   LIG d   1     -22.709  84.330 114.977  0.00  0.00     0.016 C 
ATOM      3  C   LIG d   1     -23.130  85.568 114.439  0.00  0.00     0.038 C 
ATOM      4  C   LIG d   1     -24.488  85.895 114.306  0.00  0.00     0.028 C 
ATOM      5  C   LIG d   1     -25.389  84.679 114.125  0.00  0.00    -0.047 C 
ATOM      6  C   LIG d   1     -25.086  83.658 115.245  0.00  0.00     0.091 C 
ENDROOT
BRANCH   1   7
ATOM      7  O   LIG d   1     -23.248  82.705 116.557  0.00  0.00    -0.368 OA
BRANCH   7   8
ATOM      8  C   LIG d   1     -22.443  83.533 117.431  0.00  0.00     0.119 C 
BRANCH   8   9
ATOM      9  C   LIG d   1     -21.425  82.613 118.133  0.00  0.00     0.028 C 
ATOM     10  C   LIG d   1     -22.019  81.917 119.370  0.00  0.00     0.006 C 
ENDBRANCH   8   9
BRANCH   8  11
ATOM     11  C   LIG d   1     -23.286  84.139 118.558  0.00  0.00     0.028 C 
ATOM     12  C   LIG d   1     -23.586  85.630 118.341  0.00  0.00     0.006 C 
ENDBRANCH   8  11
ENDBRANCH   7   8
ENDBRANCH   1   7
BRANCH   6  13
ATOM     13  N   LIG d   1     -25.865  82.401 115.093  0.00  0.00    -0.311 N 
ATOM     14  C   LIG d   1     -25.803  81.626 114.012  0.00  0.00     0.210 C 
ATOM     15  C   LIG d   1     -26.703  80.387 114.052  0.00  0.00     0.109 C 
ATOM     16  O   LIG d   1     -25.063  81.829 113.038  0.00  0.00    -0.276 OA
ATOM     17  H   LIG d   1     -26.468  82.144 115.850  0.00  0.00     0.149 HD
ENDBRANCH   6  13
BRANCH   5  18
ATOM     18  N   LIG d   1     -26.786  85.153 114.137  0.00  0.00     0.381 N 
ATOM     19  H   LIG d   1     -27.237  84.901 113.281  0.00  0.00    -0.090 HD
ATOM     20  H   LIG d   1     -26.788  86.155 114.212  0.00  0.00    -0.090 HD
ATOM     21  H   LIG d   1     -27.274  84.754 114.909  0.00  0.00    -0.090 HD
ENDBRANCH   5  18
BRANCH   3  22
ATOM     22  C   LIG d   1     -22.186  86.478 113.990  0.00  0.00     0.382 C 
ATOM     23  O   LIG d   1     -22.145  87.633 114.480  0.00  0.00    -0.241 OA
ATOM     24  O   LIG d   1     -21.403  86.175 113.070  0.00  0.00    -0.241 OA
ENDBRANCH   3  22
TORSDOF 7
ENDMDL
MODEL 6
REMARK VINA RESULT:      -4.4     12.498     14.682
REMARK  7 active torsions:
REMARK  status: ('A' for Active; 'I' for Inactive)
REMARK    1  A    between atoms: C_2  and  C_3 
REMARK    2  A    between atoms: C_3  and  O_6 
REMARK    3  A    between atoms: C_3  and  C_4 
REMARK    4  A    between atoms: C_7  and  O_6 
REMARK    5  A    between atoms: C_9  and  C_10 
REMARK    6  A    between atoms: N_15  and  C_14 
REMARK    7  A    between atoms: N_20  and  C_19 
REMARK       I    between atoms: C_22  and  N_20 
ROOT
ATOM      1  C   LIG d   1       2.474  88.809 116.115  0.00  0.00     0.161 C 
ATOM      2  C   LIG d   1       3.044  90.002 116.589  0.00  0.00     0.016 C 
ATOM      3  C   LIG d   1       4.148  90.636 115.974  0.00  0.00     0.038 C 
ATOM      4  C   LIG d   1       4.664  90.198 114.745  0.00  0.00     0.028 C 
ATOM      5  C   LIG d   1       4.446  88.709 114.493  0.00  0.00    -0.047 C 
ATOM      6  C   LIG d   1       2.953  88.377 114.713  0.00  0.00     0.091 C 
ENDROOT
BRANCH   1   7
ATOM      7  O   LIG d   1       1.036  88.910 116.144  0.00  0.00    -0.368 OA
BRANCH   7   8
ATOM      8  C   LIG d   1       0.449  89.281 117.415  0.00  0.00     0.119 C 
BRANCH   8   9
ATOM      9  C   LIG d   1      -0.346  88.065 117.930  0.00  0.00     0.028 C 
ATOM     10  C   LIG d   1      -1.836  88.384 118.137  0.00  0.00     0.006 C 
ENDBRANCH   8   9
BRANCH   8  11
ATOM     11  C   LIG d   1      -0.583  90.399 117.247  0.00  0.00     0.028 C 
ATOM     12  C   LIG d   1      -0.043  91.776 117.665  0.00  0.00     0.006 C 
ENDBRANCH   8  11
ENDBRANCH   7   8
ENDBRANCH   1   7
BRANCH   6  13
ATOM     13  N   LIG d   1       2.668  86.925 114.569  0.00  0.00    -0.311 N 
ATOM     14  C   LIG d   1       1.733  86.439 113.754  0.00  0.00     0.210 C 
ATOM     15  C   LIG d   1       1.590  84.914 113.772  0.00  0.00     0.109 C 
ATOM     16  O   LIG d   1       1.031  87.123 112.995  0.00  0.00    -0.276 OA
ATOM     17  H   LIG d   1       3.213  86.296 115.125  0.00  0.00     0.149 HD
ENDBRANCH   6  13
BRANCH   5  18
ATOM     18  N   LIG d   1       4.908  88.417 113.123  0.00  0.00     0.381 N 
ATOM     19  H   LIG d   1       4.124  88.372 112.503  0.00  0.00    -0.090 HD
ATOM     20  H   LIG d   1       5.366  87.523 113.118  0.00  0.00    -0.090 HD
ATOM     21  H   LIG d   1       5.541  89.124 112.818  0.00  0.00    -0.090 HD
ENDBRANCH   5  18
BRANCH   3  22
ATOM     22  C   LIG d   1       4.772  91.698 116.609  0.00  0.00     0.382 C 
ATOM     23  O   LIG d   1       5.891  91.534 117.153  0.00  0.00    -0.241 OA
ATOM     24  O   LIG d   1       4.211  92.808 116.684  0.00  0.00    -0.241 OA
ENDBRANCH   3  22
TORSDOF 7
ENDMDL
MODEL 7
REMARK VINA RESULT:      -4.3     13.575     16.244
REMARK  7 active torsions:
REMARK  status: ('A' for Active; 'I' for Inactive)
REMARK    1  A    between atoms: C_2  and  C_3 
REMARK    2  A    between atoms: C_3  and  O_6 
REMARK    3  A    between atoms: C_3  and  C_4 
REMARK    4  A    between atoms: C_7  and  O_6 
REMARK    5  A    between atoms: C_9  and  C_10 
REMARK    6  A    between atoms: N_15  and  C_14 
REMARK    7  A    between atoms: N_20  and  C_19 
REMARK       I    between atoms: C_22  and  N_20 
ROOT
ATOM      1  C   LIG d   1      10.226  77.012 114.549  0.00  0.00     0.161 C 
ATOM      2  C   LIG d   1       9.598  75.853 115.036  0.00  0.00     0.016 C 
ATOM      3  C   LIG d   1      10.283  74.640 115.278  0.00  0.00     0.038 C 
ATOM      4  C   LIG d   1      11.680  74.547 115.192  0.00  0.00     0.028 C 
ATOM      5  C   LIG d   1      12.295  75.548 114.219  0.00  0.00    -0.047 C 
ATOM      6  C   LIG d   1      11.769  76.962 114.555  0.00  0.00     0.091 C 
ENDROOT
BRANCH   1   7
ATOM      7  O   LIG d   1       9.759  78.164 115.278  0.00  0.00    -0.368 OA
BRANCH   7   8
ATOM      8  C   LIG d   1       8.954  77.892 116.452  0.00  0.00     0.119 C 
BRANCH   8   9
ATOM      9  C   LIG d   1       7.816  78.931 116.483  0.00  0.00     0.028 C 
ATOM     10  C   LIG d   1       7.032  78.982 115.161  0.00  0.00     0.006 C 
ENDBRANCH   8   9
BRANCH   8  11
ATOM     11  C   LIG d   1       9.751  78.124 117.739  0.00  0.00     0.028 C 
ATOM     12  C   LIG d   1      10.058  76.820 118.493  0.00  0.00     0.006 C 
ENDBRANCH   8  11
ENDBRANCH   7   8
ENDBRANCH   1   7
BRANCH   6  13
ATOM     13  N   LIG d   1      12.255  77.990 113.598  0.00  0.00    -0.311 N 
ATOM     14  C   LIG d   1      12.597  79.225 113.960  0.00  0.00     0.210 C 
ATOM     15  C   LIG d   1      13.053  80.132 112.813  0.00  0.00     0.109 C 
ATOM     16  O   LIG d   1      12.597  79.646 115.127  0.00  0.00    -0.276 OA
ATOM     17  H   LIG d   1      12.316  77.724 112.634  0.00  0.00     0.149 HD
ENDBRANCH   6  13
BRANCH   5  18
ATOM     18  N   LIG d   1      13.761  75.435 114.331  0.00  0.00     0.381 N 
ATOM     19  H   LIG d   1      14.002  74.571 114.774  0.00  0.00    -0.090 HD
ATOM     20  H   LIG d   1      14.103  76.188 114.902  0.00  0.00    -0.090 HD
ATOM     21  H   LIG d   1      14.177  75.480 113.426  0.00  0.00    -0.090 HD
ENDBRANCH   5  18
BRANCH   3  22
ATOM     22  C   LIG d   1       9.564  73.492 115.572  0.00  0.00     0.382 C 
ATOM     23  O   LIG d   1       8.768  73.016 114.726  0.00  0.00    -0.241 OA
ATOM     24  O   LIG d   1       9.667  72.951 116.689  0.00  0.00    -0.241 OA
ENDBRANCH   3  22
TORSDOF 7
ENDMDL
MODEL 8
REMARK VINA RESULT:      -4.2     12.350     14.262
REMARK  7 active torsions:
REMARK  status: ('A' for Active; 'I' for Inactive)
REMARK    1  A    between atoms: C_2  and  C_3 
REMARK    2  A    between atoms: C_3  and  O_6 
REMARK    3  A    between atoms: C_3  and  C_4 
REMARK    4  A    between atoms: C_7  and  O_6 
REMARK    5  A    between atoms: C_9  and  C_10 
REMARK    6  A    between atoms: N_15  and  C_14 
REMARK    7  A    between atoms: N_20  and  C_19 
REMARK       I    between atoms: C_22  and  N_20 
ROOT
ATOM      1  C   LIG d   1       3.088  88.198 115.113  0.00  0.00     0.161 C 
ATOM      2  C   LIG d   1       3.175  89.354 115.907  0.00  0.00     0.016 C 
ATOM      3  C   LIG d   1       4.171  90.343 115.735  0.00  0.00     0.038 C 
ATOM      4  C   LIG d   1       5.063  90.316 114.653  0.00  0.00     0.028 C 
ATOM      5  C   LIG d   1       5.335  88.911 114.126  0.00  0.00    -0.047 C 
ATOM      6  C   LIG d   1       3.985  88.207 113.858  0.00  0.00     0.091 C 
ENDROOT
BRANCH   1   7
ATOM      7  O   LIG d   1       1.715  87.959 114.746  0.00  0.00    -0.368 OA
BRANCH   7   8
ATOM      8  C   LIG d   1       1.035  86.906 115.473  0.00  0.00     0.119 C 
BRANCH   8   9
ATOM      9  C   LIG d   1       0.149  87.577 116.539  0.00  0.00     0.028 C 
ATOM     10  C   LIG d   1       0.415  87.031 117.952  0.00  0.00     0.006 C 
ENDBRANCH   8   9
BRANCH   8  11
ATOM     11  C   LIG d   1       2.026  86.040 116.255  0.00  0.00     0.028 C 
ATOM     12  C   LIG d   1       2.004  84.566 115.819  0.00  0.00     0.006 C 
ENDBRANCH   8  11
ENDBRANCH   7   8
ENDBRANCH   1   7
BRANCH   6  13
ATOM     13  N   LIG d   1       4.159  86.798 113.419  0.00  0.00    -0.311 N 
ATOM     14  C   LIG d   1       4.982  85.939 114.019  0.00  0.00     0.210 C 
ATOM     15  C   LIG d   1       5.025  84.541 113.395  0.00  0.00     0.109 C 
ATOM     16  O   LIG d   1       5.656  86.194 115.029  0.00  0.00    -0.276 OA
ATOM     17  H   LIG d   1       3.626  86.498 112.626  0.00  0.00     0.149 HD
ENDBRANCH   6  13
BRANCH   5  18
ATOM     18  N   LIG d   1       6.169  89.042 112.917  0.00  0.00     0.381 N 
ATOM     19  H   LIG d   1       5.950  88.309 112.273  0.00  0.00    -0.090 HD
ATOM     20  H   LIG d   1       7.135  88.954 113.178  0.00  0.00    -0.090 HD
ATOM     21  H   LIG d   1       6.013  89.928 112.489  0.00  0.00    -0.090 HD
ENDBRANCH   5  18
BRANCH   3  22
ATOM     22  C   LIG d   1       4.306  91.353 116.676  0.00  0.00     0.382 C 
ATOM     23  O   LIG d   1       5.096  91.209 117.640  0.00  0.00    -0.241 OA
ATOM     24  O   LIG d   1       3.616  92.386 116.597  0.00  0.00    -0.241 OA
ENDBRANCH   3  22
TORSDOF 7
ENDMDL
MODEL 9
REMARK VINA RESULT:      -4.2     14.602     16.882
REMARK  7 active torsions:
REMARK  status: ('A' for Active; 'I' for Inactive)
REMARK    1  A    between atoms: C_2  and  C_3 
REMARK    2  A    between atoms: C_3  and  O_6 
REMARK    3  A    between atoms: C_3  and  C_4 
REMARK    4  A    between atoms: C_7  and  O_6 
REMARK    5  A    between atoms: C_9  and  C_10 
REMARK    6  A    between atoms: N_15  and  C_14 
REMARK    7  A    between atoms: N_20  and  C_19 
REMARK       I    between atoms: C_22  and  N_20 
ROOT
ATOM      1  C   LIG d   1     -16.541  64.809 116.576  0.00  0.00     0.161 C 
ATOM      2  C   LIG d   1     -16.612  66.212 116.608  0.00  0.00     0.016 C 
ATOM      3  C   LIG d   1     -15.901  67.007 117.536  0.00  0.00     0.038 C 
ATOM      4  C   LIG d   1     -14.947  66.457 118.404  0.00  0.00     0.028 C 
ATOM      5  C   LIG d   1     -15.213  64.996 118.751  0.00  0.00    -0.047 C 
ATOM      6  C   LIG d   1     -15.420  64.199 117.442  0.00  0.00     0.091 C 
ENDROOT
BRANCH   1   7
ATOM      7  O   LIG d   1     -16.423  64.357 115.212  0.00  0.00    -0.368 OA
BRANCH   7   8
ATOM      8  C   LIG d   1     -17.644  63.891 114.587  0.00  0.00     0.119 C 
BRANCH   8   9
ATOM      9  C   LIG d   1     -17.341  62.526 113.939  0.00  0.00     0.028 C 
ATOM     10  C   LIG d   1     -17.516  61.358 114.923  0.00  0.00     0.006 C 
ENDBRANCH   8   9
BRANCH   8  11
ATOM     11  C   LIG d   1     -18.062  64.805 113.431  0.00  0.00     0.028 C 
ATOM     12  C   LIG d   1     -19.558  65.153 113.458  0.00  0.00     0.006 C 
ENDBRANCH   8  11
ENDBRANCH   7   8
ENDBRANCH   1   7
BRANCH   6  13
ATOM     13  N   LIG d   1     -15.769  62.777 117.694  0.00  0.00    -0.311 N 
ATOM     14  C   LIG d   1     -14.873  61.792 117.700  0.00  0.00     0.210 C 
ATOM     15  C   LIG d   1     -15.448  60.396 117.960  0.00  0.00     0.109 C 
ATOM     16  O   LIG d   1     -13.652  61.946 117.547  0.00  0.00    -0.276 OA
ATOM     17  H   LIG d   1     -16.734  62.566 117.859  0.00  0.00     0.149 HD
ENDBRANCH   6  13
BRANCH   5  18
ATOM     18  N   LIG d   1     -14.071  64.511 119.549  0.00  0.00     0.381 N 
ATOM     19  H   LIG d   1     -13.974  63.522 119.435  0.00  0.00    -0.090 HD
ATOM     20  H   LIG d   1     -14.249  64.701 120.519  0.00  0.00    -0.090 HD
ATOM     21  H   LIG d   1     -13.235  64.970 119.261  0.00  0.00    -0.090 HD
ENDBRANCH   5  18
BRANCH   3  22
ATOM     22  C   LIG d   1     -16.172  68.363 117.629  0.00  0.00     0.382 C 
ATOM     23  O   LIG d   1     -16.235  69.063 116.589  0.00  0.00    -0.241 OA
ATOM     24  O   LIG d   1     -16.311  68.905 118.742  0.00  0.00    -0.241 OA
ENDBRANCH   3  22
TORSDOF 7
ENDMDL
