MODEL 1
REMARK VINA RESULT:      -5.4      0.000      0.000
REMARK  7 active torsions:
REMARK  status: ('A' for Active; 'I' for Inactive)
REMARK    1  A    between atoms: C_2  and  C_3 
REMARK    2  A    between atoms: C_3  and  O_6 
REMARK    3  A    between atoms: C_3  and  C_4 
REMARK    4  A    between atoms: C_7  and  O_6 
REMARK    5  A    between atoms: C_9  and  C_10 
REMARK    6  A    between atoms: N_15  and  C_14 
REMARK    7  A    between atoms: N_20  and  C_19 
REMARK       I    between atoms: C_22  and  N_20 
ROOT
ATOM      1  C   LIG d   1      -6.750  75.999 116.848  0.00  0.00     0.161 C 
ATOM      2  C   LIG d   1      -5.765  76.540 116.005  0.00  0.00     0.016 C 
ATOM      3  C   LIG d   1      -5.063  75.780 115.041  0.00  0.00     0.038 C 
ATOM      4  C   LIG d   1      -5.408  74.452 114.749  0.00  0.00     0.028 C 
ATOM      5  C   LIG d   1      -6.052  73.722 115.923  0.00  0.00    -0.047 C 
ATOM      6  C   LIG d   1      -7.218  74.579 116.468  0.00  0.00     0.091 C 
ENDROOT
BRANCH   1   7
ATOM      7  O   LIG d   1      -7.877  76.895 116.919  0.00  0.00    -0.368 OA
BRANCH   7   8
ATOM      8  C   LIG d   1      -8.055  77.596 118.175  0.00  0.00     0.119 C 
BRANCH   8   9
ATOM      9  C   LIG d   1      -9.406  77.151 118.767  0.00  0.00     0.028 C 
ATOM     10  C   LIG d   1     -10.364  76.604 117.696  0.00  0.00     0.006 C 
ENDBRANCH   8   9
BRANCH   8  11
ATOM     11  C   LIG d   1      -8.186  79.107 117.956  0.00  0.00     0.028 C 
ATOM     12  C   LIG d   1      -6.833  79.794 117.714  0.00  0.00     0.006 C 
ENDBRANCH   8  11
ENDBRANCH   7   8
ENDBRANCH   1   7
BRANCH   6  13
ATOM     13  N   LIG d   1      -7.850  73.977 117.670  0.00  0.00    -0.311 N 
ATOM     14  C   LIG d   1      -8.889  73.145 117.614  0.00  0.00     0.210 C 
ATOM     15  C   LIG d   1      -9.399  72.655 118.973  0.00  0.00     0.109 C 
ATOM     16  O   LIG d   1      -9.415  72.741 116.566  0.00  0.00    -0.276 OA
ATOM     17  H   LIG d   1      -7.466  74.226 118.561  0.00  0.00     0.149 HD
ENDBRANCH   6  13
BRANCH   5  18
ATOM     18  N   LIG d   1      -6.486  72.397 115.440  0.00  0.00     0.381 N 
ATOM     19  H   LIG d   1      -6.007  71.679 115.946  0.00  0.00    -0.090 HD
ATOM     20  H   LIG d   1      -6.245  72.311 114.468  0.00  0.00    -0.090 HD
ATOM     21  H   LIG d   1      -7.470  72.297 115.556  0.00  0.00    -0.090 HD
ENDBRANCH   5  18
BRANCH   3  22
ATOM     22  C   LIG d   1      -3.976  76.337 114.385  0.00  0.00     0.382 C 
ATOM     23  O   LIG d   1      -4.104  76.769 113.214  0.00  0.00    -0.241 OA
ATOM     24  O   LIG d   1      -2.858  76.374 114.934  0.00  0.00    -0.241 OA
ENDBRANCH   3  22
TORSDOF 7
ENDMDL
MODEL 2
REMARK VINA RESULT:      -5.4      2.403      5.584
REMARK  7 active torsions:
REMARK  status: ('A' for Active; 'I' for Inactive)
REMARK    1  A    between atoms: C_2  and  C_3 
REMARK    2  A    between atoms: C_3  and  O_6 
REMARK    3  A    between atoms: C_3  and  C_4 
REMARK    4  A    between atoms: C_7  and  O_6 
REMARK    5  A    between atoms: C_9  and  C_10 
REMARK    6  A    between atoms: N_15  and  C_14 
REMARK    7  A    between atoms: N_20  and  C_19 
REMARK       I    between atoms: C_22  and  N_20 
ROOT
ATOM      1  C   LIG d   1      -6.249  74.658 118.033  0.00  0.00     0.161 C 
ATOM      2  C   LIG d   1      -6.340  73.310 117.650  0.00  0.00     0.016 C 
ATOM      3  C   LIG d   1      -7.470  72.760 117.002  0.00  0.00     0.038 C 
ATOM      4  C   LIG d   1      -8.531  73.561 116.555  0.00  0.00     0.028 C 
ATOM      5  C   LIG d   1      -8.709  74.839 117.368  0.00  0.00    -0.047 C 
ATOM      6  C   LIG d   1      -7.350  75.571 117.455  0.00  0.00     0.091 C 
ENDROOT
BRANCH   1   7
ATOM      7  O   LIG d   1      -4.944  75.174 117.700  0.00  0.00    -0.368 OA
BRANCH   7   8
ATOM      8  C   LIG d   1      -4.224  74.463 116.664  0.00  0.00     0.119 C 
BRANCH   8   9
ATOM      9  C   LIG d   1      -2.744  74.401 117.088  0.00  0.00     0.028 C 
ATOM     10  C   LIG d   1      -1.791  74.318 115.883  0.00  0.00     0.006 C 
ENDBRANCH   8   9
BRANCH   8  11
ATOM     11  C   LIG d   1      -4.235  75.240 115.344  0.00  0.00     0.028 C 
ATOM     12  C   LIG d   1      -5.209  74.649 114.313  0.00  0.00     0.006 C 
ENDBRANCH   8  11
ENDBRANCH   7   8
ENDBRANCH   1   7
BRANCH   6  13
ATOM     13  N   LIG d   1      -7.416  76.789 118.304  0.00  0.00    -0.311 N 
ATOM     14  C   LIG d   1      -6.944  77.975 117.923  0.00  0.00     0.210 C 
ATOM     15  C   LIG d   1      -7.095  79.094 118.958  0.00  0.00     0.109 C 
ATOM     16  O   LIG d   1      -6.444  78.213 116.813  0.00  0.00    -0.276 OA
ATOM     17  H   LIG d   1      -7.834  76.693 119.209  0.00  0.00     0.149 HD
ENDBRANCH   6  13
BRANCH   5  18
ATOM     18  N   LIG d   1      -9.757  75.643 116.711  0.00  0.00     0.381 N 
ATOM     19  H   LIG d   1     -10.561  75.073 116.536  0.00  0.00    -0.090 HD
ATOM     20  H   LIG d   1      -9.408  75.975 115.830  0.00  0.00    -0.090 HD
ATOM     21  H   LIG d   1     -10.008  76.415 117.289  0.00  0.00    -0.090 HD
ENDBRANCH   5  18
BRANCH   3  22
ATOM     22  C   LIG d   1      -7.564  71.387 116.830  0.00  0.00     0.382 C 
ATOM     23  O   LIG d   1      -6.721  70.785 116.121  0.00  0.00    -0.241 OA
ATOM     24  O   LIG d   1      -8.505  70.750 117.339  0.00  0.00    -0.241 OA
ENDBRANCH   3  22
TORSDOF 7
ENDMDL
MODEL 3
REMARK VINA RESULT:      -5.4      2.424      6.122
REMARK  7 active torsions:
REMARK  status: ('A' for Active; 'I' for Inactive)
REMARK    1  A    between atoms: C_2  and  C_3 
REMARK    2  A    between atoms: C_3  and  O_6 
REMARK    3  A    between atoms: C_3  and  C_4 
REMARK    4  A    between atoms: C_7  and  O_6 
REMARK    5  A    between atoms: C_9  and  C_10 
REMARK    6  A    between atoms: N_15  and  C_14 
REMARK    7  A    between atoms: N_20  and  C_19 
REMARK       I    between atoms: C_22  and  N_20 
ROOT
ATOM      1  C   LIG d   1      -7.545  76.161 117.607  0.00  0.00     0.161 C 
ATOM      2  C   LIG d   1      -8.788  76.709 117.965  0.00  0.00     0.016 C 
ATOM      3  C   LIG d   1      -9.011  78.097 118.123  0.00  0.00     0.038 C 
ATOM      4  C   LIG d   1      -8.036  79.047 117.785  0.00  0.00     0.028 C 
ATOM      5  C   LIG d   1      -6.609  78.520 117.904  0.00  0.00    -0.047 C 
ATOM      6  C   LIG d   1      -6.500  77.189 117.126  0.00  0.00     0.091 C 
ENDROOT
BRANCH   1   7
ATOM      7  O   LIG d   1      -7.732  75.134 116.614  0.00  0.00    -0.368 OA
BRANCH   7   8
ATOM      8  C   LIG d   1      -7.604  73.767 117.078  0.00  0.00     0.119 C 
BRANCH   8   9
ATOM      9  C   LIG d   1      -6.808  72.989 116.012  0.00  0.00     0.028 C 
ATOM     10  C   LIG d   1      -6.819  71.472 116.263  0.00  0.00     0.006 C 
ENDBRANCH   8   9
BRANCH   8  11
ATOM     11  C   LIG d   1      -8.967  73.074 117.153  0.00  0.00     0.028 C 
ATOM     12  C   LIG d   1      -9.360  72.685 118.587  0.00  0.00     0.006 C 
ENDBRANCH   8  11
ENDBRANCH   7   8
ENDBRANCH   1   7
BRANCH   6  13
ATOM     13  N   LIG d   1      -5.159  76.563 117.261  0.00  0.00    -0.311 N 
ATOM     14  C   LIG d   1      -4.176  76.737 116.378  0.00  0.00     0.210 C 
ATOM     15  C   LIG d   1      -2.880  75.985 116.697  0.00  0.00     0.109 C 
ATOM     16  O   LIG d   1      -4.244  77.469 115.380  0.00  0.00    -0.276 OA
ATOM     17  H   LIG d   1      -5.006  75.978 118.059  0.00  0.00     0.149 HD
ENDBRANCH   6  13
BRANCH   5  18
ATOM     18  N   LIG d   1      -5.704  79.566 117.391  0.00  0.00     0.381 N 
ATOM     19  H   LIG d   1      -6.196  80.155 116.750  0.00  0.00    -0.090 HD
ATOM     20  H   LIG d   1      -4.947  79.127 116.898  0.00  0.00    -0.090 HD
ATOM     21  H   LIG d   1      -5.348  80.109 118.146  0.00  0.00    -0.090 HD
ENDBRANCH   5  18
BRANCH   3  22
ATOM     22  C   LIG d   1     -10.207  78.544 118.663  0.00  0.00     0.382 C 
ATOM     23  O   LIG d   1     -10.301  79.719 119.092  0.00  0.00    -0.241 OA
ATOM     24  O   LIG d   1     -11.180  77.773 118.767  0.00  0.00    -0.241 OA
ENDBRANCH   3  22
TORSDOF 7
ENDMDL
MODEL 4
REMARK VINA RESULT:      -5.1      2.218      4.871
REMARK  7 active torsions:
REMARK  status: ('A' for Active; 'I' for Inactive)
REMARK    1  A    between atoms: C_2  and  C_3 
REMARK    2  A    between atoms: C_3  and  O_6 
REMARK    3  A    between atoms: C_3  and  C_4 
REMARK    4  A    between atoms: C_7  and  O_6 
REMARK    5  A    between atoms: C_9  and  C_10 
REMARK    6  A    between atoms: N_15  and  C_14 
REMARK    7  A    between atoms: N_20  and  C_19 
REMARK       I    between atoms: C_22  and  N_20 
ROOT
ATOM      1  C   LIG d   1      -7.069  76.599 117.117  0.00  0.00     0.161 C 
ATOM      2  C   LIG d   1      -6.709  77.947 117.279  0.00  0.00     0.016 C 
ATOM      3  C   LIG d   1      -7.582  78.928 117.802  0.00  0.00     0.038 C 
ATOM      4  C   LIG d   1      -8.833  78.594 118.344  0.00  0.00     0.028 C 
ATOM      5  C   LIG d   1      -9.437  77.330 117.741  0.00  0.00    -0.047 C 
ATOM      6  C   LIG d   1      -8.390  76.195 117.805  0.00  0.00     0.091 C 
ENDROOT
BRANCH   1   7
ATOM      7  O   LIG d   1      -5.993  75.749 117.560  0.00  0.00    -0.368 OA
BRANCH   7   8
ATOM      8  C   LIG d   1      -5.038  75.349 116.547  0.00  0.00     0.119 C 
BRANCH   8   9
ATOM      9  C   LIG d   1      -5.836  74.783 115.356  0.00  0.00     0.028 C 
ATOM     10  C   LIG d   1      -5.336  75.322 114.005  0.00  0.00     0.006 C 
ENDBRANCH   8   9
BRANCH   8  11
ATOM     11  C   LIG d   1      -4.161  74.192 117.033  0.00  0.00     0.028 C 
ATOM     12  C   LIG d   1      -2.667  74.417 116.752  0.00  0.00     0.006 C 
ENDBRANCH   8  11
ENDBRANCH   7   8
ENDBRANCH   1   7
BRANCH   6  13
ATOM     13  N   LIG d   1      -8.870  74.945 117.159  0.00  0.00    -0.311 N 
ATOM     14  C   LIG d   1      -8.739  73.739 117.710  0.00  0.00     0.210 C 
ATOM     15  C   LIG d   1      -9.285  72.582 116.867  0.00  0.00     0.109 C 
ATOM     16  O   LIG d   1      -8.253  73.521 118.830  0.00  0.00    -0.276 OA
ATOM     17  H   LIG d   1      -9.305  75.033 116.262  0.00  0.00     0.149 HD
ENDBRANCH   6  13
BRANCH   5  18
ATOM     18  N   LIG d   1     -10.669  77.024 118.491  0.00  0.00     0.381 N 
ATOM     19  H   LIG d   1     -10.452  76.890 119.459  0.00  0.00    -0.090 HD
ATOM     20  H   LIG d   1     -11.062  76.170 118.135  0.00  0.00    -0.090 HD
ATOM     21  H   LIG d   1     -11.324  77.768 118.390  0.00  0.00    -0.090 HD
ENDBRANCH   5  18
BRANCH   3  22
ATOM     22  C   LIG d   1      -7.223  80.266 117.751  0.00  0.00     0.382 C 
ATOM     23  O   LIG d   1      -8.022  81.112 117.284  0.00  0.00    -0.241 OA
ATOM     24  O   LIG d   1      -6.092  80.631 118.125  0.00  0.00    -0.241 OA
ENDBRANCH   3  22
TORSDOF 7
ENDMDL
MODEL 5
REMARK VINA RESULT:      -5.0      1.197      2.001
REMARK  7 active torsions:
REMARK  status: ('A' for Active; 'I' for Inactive)
REMARK    1  A    between atoms: C_2  and  C_3 
REMARK    2  A    between atoms: C_3  and  O_6 
REMARK    3  A    between atoms: C_3  and  C_4 
REMARK    4  A    between atoms: C_7  and  O_6 
REMARK    5  A    between atoms: C_9  and  C_10 
REMARK    6  A    between atoms: N_15  and  C_14 
REMARK    7  A    between atoms: N_20  and  C_19 
REMARK       I    between atoms: C_22  and  N_20 
ROOT
ATOM      1  C   LIG d   1      -6.675  74.899 118.001  0.00  0.00     0.161 C 
ATOM      2  C   LIG d   1      -5.755  75.638 117.239  0.00  0.00     0.016 C 
ATOM      3  C   LIG d   1      -5.245  75.199 115.995  0.00  0.00     0.038 C 
ATOM      4  C   LIG d   1      -5.740  74.054 115.353  0.00  0.00     0.028 C 
ATOM      5  C   LIG d   1      -6.300  73.014 116.317  0.00  0.00    -0.047 C 
ATOM      6  C   LIG d   1      -7.310  73.701 117.265  0.00  0.00     0.091 C 
ENDROOT
BRANCH   1   7
ATOM      7  O   LIG d   1      -7.701  75.774 118.512  0.00  0.00    -0.368 OA
BRANCH   7   8
ATOM      8  C   LIG d   1      -8.307  76.674 117.551  0.00  0.00     0.119 C 
BRANCH   8   9
ATOM      9  C   LIG d   1      -8.290  78.086 118.167  0.00  0.00     0.028 C 
ATOM     10  C   LIG d   1      -7.136  78.948 117.627  0.00  0.00     0.006 C 
ENDBRANCH   8   9
BRANCH   8  11
ATOM     11  C   LIG d   1      -9.787  76.343 117.335  0.00  0.00     0.028 C 
ATOM     12  C   LIG d   1     -10.713  77.092 118.306  0.00  0.00     0.006 C 
ENDBRANCH   8  11
ENDBRANCH   7   8
ENDBRANCH   1   7
BRANCH   6  13
ATOM     13  N   LIG d   1      -7.843  72.771 118.295  0.00  0.00    -0.311 N 
ATOM     14  C   LIG d   1      -8.916  72.005 118.106  0.00  0.00     0.210 C 
ATOM     15  C   LIG d   1      -9.308  71.134 119.303  0.00  0.00     0.109 C 
ATOM     16  O   LIG d   1      -9.562  71.940 117.048  0.00  0.00    -0.276 OA
ATOM     17  H   LIG d   1      -7.362  72.737 119.172  0.00  0.00     0.149 HD
ENDBRANCH   6  13
BRANCH   5  18
ATOM     18  N   LIG d   1      -6.905  71.938 115.509  0.00  0.00     0.381 N 
ATOM     19  H   LIG d   1      -6.187  71.350 115.137  0.00  0.00    -0.090 HD
ATOM     20  H   LIG d   1      -7.405  72.350 114.741  0.00  0.00    -0.090 HD
ATOM     21  H   LIG d   1      -7.528  71.400 116.070  0.00  0.00    -0.090 HD
ENDBRANCH   5  18
BRANCH   3  22
ATOM     22  C   LIG d   1      -4.200  75.889 115.399  0.00  0.00     0.382 C 
ATOM     23  O   LIG d   1      -4.236  77.141 115.327  0.00  0.00    -0.241 OA
ATOM     24  O   LIG d   1      -3.243  75.272 114.894  0.00  0.00    -0.241 OA
ENDBRANCH   3  22
TORSDOF 7
ENDMDL
MODEL 6
REMARK VINA RESULT:      -4.9      2.649      4.583
REMARK  7 active torsions:
REMARK  status: ('A' for Active; 'I' for Inactive)
REMARK    1  A    between atoms: C_2  and  C_3 
REMARK    2  A    between atoms: C_3  and  O_6 
REMARK    3  A    between atoms: C_3  and  C_4 
REMARK    4  A    between atoms: C_7  and  O_6 
REMARK    5  A    between atoms: C_9  and  C_10 
REMARK    6  A    between atoms: N_15  and  C_14 
REMARK    7  A    between atoms: N_20  and  C_19 
REMARK       I    between atoms: C_22  and  N_20 
ROOT
ATOM      1  C   LIG d   1      -5.738  74.971 117.321  0.00  0.00     0.161 C 
ATOM      2  C   LIG d   1      -4.618  74.306 116.794  0.00  0.00     0.016 C 
ATOM      3  C   LIG d   1      -3.285  74.673 117.090  0.00  0.00     0.038 C 
ATOM      4  C   LIG d   1      -2.980  75.641 118.058  0.00  0.00     0.028 C 
ATOM      5  C   LIG d   1      -4.078  76.683 118.240  0.00  0.00    -0.047 C 
ATOM      6  C   LIG d   1      -5.425  75.958 118.465  0.00  0.00     0.091 C 
ENDROOT
BRANCH   1   7
ATOM      7  O   LIG d   1      -6.723  74.008 117.745  0.00  0.00    -0.368 OA
BRANCH   7   8
ATOM      8  C   LIG d   1      -7.845  73.807 116.851  0.00  0.00     0.119 C 
BRANCH   8   9
ATOM      9  C   LIG d   1      -9.084  74.439 117.514  0.00  0.00     0.028 C 
ATOM     10  C   LIG d   1      -9.742  75.510 116.627  0.00  0.00     0.006 C 
ENDBRANCH   8   9
BRANCH   8  11
ATOM     11  C   LIG d   1      -8.179  72.320 116.700  0.00  0.00     0.028 C 
ATOM     12  C   LIG d   1      -9.122  71.808 117.800  0.00  0.00     0.006 C 
ENDBRANCH   8  11
ENDBRANCH   7   8
ENDBRANCH   1   7
BRANCH   6  13
ATOM     13  N   LIG d   1      -6.567  76.903 118.569  0.00  0.00    -0.311 N 
ATOM     14  C   LIG d   1      -6.892  77.769 117.611  0.00  0.00     0.210 C 
ATOM     15  C   LIG d   1      -8.092  78.665 117.929  0.00  0.00     0.109 C 
ATOM     16  O   LIG d   1      -6.319  77.857 116.514  0.00  0.00    -0.276 OA
ATOM     17  H   LIG d   1      -7.105  76.877 119.413  0.00  0.00     0.149 HD
ENDBRANCH   6  13
BRANCH   5  18
ATOM     18  N   LIG d   1      -3.691  77.546 119.372  0.00  0.00     0.381 N 
ATOM     19  H   LIG d   1      -4.341  77.432 120.124  0.00  0.00    -0.090 HD
ATOM     20  H   LIG d   1      -3.719  78.505 119.074  0.00  0.00    -0.090 HD
ATOM     21  H   LIG d   1      -2.772  77.313 119.679  0.00  0.00    -0.090 HD
ENDBRANCH   5  18
BRANCH   3  22
ATOM     22  C   LIG d   1      -2.241  74.096 116.383  0.00  0.00     0.382 C 
ATOM     23  O   LIG d   1      -2.106  74.333 115.158  0.00  0.00    -0.241 OA
ATOM     24  O   LIG d   1      -1.458  73.306 116.945  0.00  0.00    -0.241 OA
ENDBRANCH   3  22
TORSDOF 7
ENDMDL
MODEL 7
REMARK VINA RESULT:      -4.9      2.208      4.546
REMARK  7 active torsions:
REMARK  status: ('A' for Active; 'I' for Inactive)
REMARK    1  A    between atoms: C_2  and  C_3 
REMARK    2  A    between atoms: C_3  and  O_6 
REMARK    3  A    between atoms: C_3  and  C_4 
REMARK    4  A    between atoms: C_7  and  O_6 
REMARK    5  A    between atoms: C_9  and  C_10 
REMARK    6  A    between atoms: N_15  and  C_14 
REMARK    7  A    between atoms: N_20  and  C_19 
REMARK       I    between atoms: C_22  and  N_20 
ROOT
ATOM      1  C   LIG d   1      -6.990  75.777 116.295  0.00  0.00     0.161 C 
ATOM      2  C   LIG d   1      -7.754  74.608 116.447  0.00  0.00     0.016 C 
ATOM      3  C   LIG d   1      -7.199  73.356 116.798  0.00  0.00     0.038 C 
ATOM      4  C   LIG d   1      -5.853  73.220 117.172  0.00  0.00     0.028 C 
ATOM      5  C   LIG d   1      -4.942  74.270 116.545  0.00  0.00    -0.047 C 
ATOM      6  C   LIG d   1      -5.538  75.672 116.806  0.00  0.00     0.091 C 
ENDROOT
BRANCH   1   7
ATOM      7  O   LIG d   1      -7.664  76.886 116.923  0.00  0.00    -0.368 OA
BRANCH   7   8
ATOM      8  C   LIG d   1      -7.559  76.960 118.366  0.00  0.00     0.119 C 
BRANCH   8   9
ATOM      9  C   LIG d   1      -8.971  76.749 118.945  0.00  0.00     0.028 C 
ATOM     10  C   LIG d   1     -10.077  77.127 117.945  0.00  0.00     0.006 C 
ENDBRANCH   8   9
BRANCH   8  11
ATOM     11  C   LIG d   1      -7.139  78.361 118.822  0.00  0.00     0.028 C 
ATOM     12  C   LIG d   1      -6.910  79.326 117.649  0.00  0.00     0.006 C 
ENDBRANCH   8  11
ENDBRANCH   7   8
ENDBRANCH   1   7
BRANCH   6  13
ATOM     13  N   LIG d   1      -4.753  76.752 116.155  0.00  0.00    -0.311 N 
ATOM     14  C   LIG d   1      -3.828  77.471 116.789  0.00  0.00     0.210 C 
ATOM     15  C   LIG d   1      -3.150  78.548 115.937  0.00  0.00     0.109 C 
ATOM     16  O   LIG d   1      -3.482  77.297 117.967  0.00  0.00    -0.276 OA
ATOM     17  H   LIG d   1      -4.947  76.939 115.190  0.00  0.00     0.149 HD
ENDBRANCH   6  13
BRANCH   5  18
ATOM     18  N   LIG d   1      -3.597  74.096 117.126  0.00  0.00     0.381 N 
ATOM     19  H   LIG d   1      -3.119  74.975 117.142  0.00  0.00    -0.090 HD
ATOM     20  H   LIG d   1      -3.073  73.463 116.548  0.00  0.00    -0.090 HD
ATOM     21  H   LIG d   1      -3.669  73.732 118.050  0.00  0.00    -0.090 HD
ENDBRANCH   5  18
BRANCH   3  22
ATOM     22  C   LIG d   1      -7.985  72.215 116.740  0.00  0.00     0.382 C 
ATOM     23  O   LIG d   1      -7.448  71.092 116.583  0.00  0.00    -0.241 OA
ATOM     24  O   LIG d   1      -9.226  72.299 116.798  0.00  0.00    -0.241 OA
ENDBRANCH   3  22
TORSDOF 7
ENDMDL
MODEL 8
REMARK VINA RESULT:      -4.8      2.912      6.469
REMARK  7 active torsions:
REMARK  status: ('A' for Active; 'I' for Inactive)
REMARK    1  A    between atoms: C_2  and  C_3 
REMARK    2  A    between atoms: C_3  and  O_6 
REMARK    3  A    between atoms: C_3  and  C_4 
REMARK    4  A    between atoms: C_7  and  O_6 
REMARK    5  A    between atoms: C_9  and  C_10 
REMARK    6  A    between atoms: N_15  and  C_14 
REMARK    7  A    between atoms: N_20  and  C_19 
REMARK       I    between atoms: C_22  and  N_20 
ROOT
ATOM      1  C   LIG d   1      -4.280  74.764 116.191  0.00  0.00     0.161 C 
ATOM      2  C   LIG d   1      -5.165  73.683 116.039  0.00  0.00     0.016 C 
ATOM      3  C   LIG d   1      -6.566  73.799 116.184  0.00  0.00     0.038 C 
ATOM      4  C   LIG d   1      -7.195  75.042 116.343  0.00  0.00     0.028 C 
ATOM      5  C   LIG d   1      -6.307  76.090 117.004  0.00  0.00    -0.047 C 
ATOM      6  C   LIG d   1      -4.956  76.149 116.254  0.00  0.00     0.091 C 
ENDROOT
BRANCH   1   7
ATOM      7  O   LIG d   1      -3.291  74.736 115.143  0.00  0.00    -0.368 OA
BRANCH   7   8
ATOM      8  C   LIG d   1      -1.945  74.383 115.546  0.00  0.00     0.119 C 
BRANCH   8   9
ATOM      9  C   LIG d   1      -1.946  74.227 117.079  0.00  0.00     0.028 C 
ATOM     10  C   LIG d   1      -0.817  73.309 117.576  0.00  0.00     0.006 C 
ENDBRANCH   8   9
BRANCH   8  11
ATOM     11  C   LIG d   1      -0.960  75.518 115.254  0.00  0.00     0.028 C 
ATOM     12  C   LIG d   1       0.234  75.067 114.398  0.00  0.00     0.006 C 
ENDBRANCH   8  11
ENDBRANCH   7   8
ENDBRANCH   1   7
BRANCH   6  13
ATOM     13  N   LIG d   1      -3.996  77.090 116.888  0.00  0.00    -0.311 N 
ATOM     14  C   LIG d   1      -3.363  78.052 116.219  0.00  0.00     0.210 C 
ATOM     15  C   LIG d   1      -2.401  78.898 117.060  0.00  0.00     0.109 C 
ATOM     16  O   LIG d   1      -3.531  78.306 115.017  0.00  0.00    -0.276 OA
ATOM     17  H   LIG d   1      -3.824  76.975 117.868  0.00  0.00     0.149 HD
ENDBRANCH   6  13
BRANCH   5  18
ATOM     18  N   LIG d   1      -7.037  77.372 116.982  0.00  0.00     0.381 N 
ATOM     19  H   LIG d   1      -7.647  77.400 116.189  0.00  0.00    -0.090 HD
ATOM     20  H   LIG d   1      -6.374  78.122 116.896  0.00  0.00    -0.090 HD
ATOM     21  H   LIG d   1      -7.564  77.479 117.820  0.00  0.00    -0.090 HD
ENDBRANCH   5  18
BRANCH   3  22
ATOM     22  C   LIG d   1      -7.351  72.656 116.211  0.00  0.00     0.382 C 
ATOM     23  O   LIG d   1      -8.579  72.744 116.451  0.00  0.00    -0.241 OA
ATOM     24  O   LIG d   1      -6.838  71.533 116.041  0.00  0.00    -0.241 OA
ENDBRANCH   3  22
TORSDOF 7
ENDMDL
MODEL 9
REMARK VINA RESULT:      -4.7      2.057      4.967
REMARK  7 active torsions:
REMARK  status: ('A' for Active; 'I' for Inactive)
REMARK    1  A    between atoms: C_2  and  C_3 
REMARK    2  A    between atoms: C_3  and  O_6 
REMARK    3  A    between atoms: C_3  and  C_4 
REMARK    4  A    between atoms: C_7  and  O_6 
REMARK    5  A    between atoms: C_9  and  C_10 
REMARK    6  A    between atoms: N_15  and  C_14 
REMARK    7  A    between atoms: N_20  and  C_19 
REMARK       I    between atoms: C_22  and  N_20 
ROOT
ATOM      1  C   LIG d   1      -6.976  76.166 116.978  0.00  0.00     0.161 C 
ATOM      2  C   LIG d   1      -7.506  77.398 117.395  0.00  0.00     0.016 C 
ATOM      3  C   LIG d   1      -8.616  77.514 118.264  0.00  0.00     0.038 C 
ATOM      4  C   LIG d   1      -9.180  76.398 118.899  0.00  0.00     0.028 C 
ATOM      5  C   LIG d   1      -9.000  75.101 118.117  0.00  0.00    -0.047 C 
ATOM      6  C   LIG d   1      -7.508  74.940 117.749  0.00  0.00     0.091 C 
ENDROOT
BRANCH   1   7
ATOM      7  O   LIG d   1      -5.536  76.209 117.037  0.00  0.00    -0.368 OA
BRANCH   7   8
ATOM      8  C   LIG d   1      -4.859  76.569 115.808  0.00  0.00     0.119 C 
BRANCH   8   9
ATOM      9  C   LIG d   1      -4.180  75.298 115.264  0.00  0.00     0.028 C 
ATOM     10  C   LIG d   1      -5.080  74.523 114.287  0.00  0.00     0.006 C 
ENDBRANCH   8   9
BRANCH   8  11
ATOM     11  C   LIG d   1      -3.719  77.558 116.069  0.00  0.00     0.028 C 
ATOM     12  C   LIG d   1      -2.340  76.881 116.109  0.00  0.00     0.006 C 
ENDBRANCH   8  11
ENDBRANCH   7   8
ENDBRANCH   1   7
BRANCH   6  13
ATOM     13  N   LIG d   1      -7.258  73.738 116.910  0.00  0.00    -0.311 N 
ATOM     14  C   LIG d   1      -6.869  72.565 117.407  0.00  0.00     0.210 C 
ATOM     15  C   LIG d   1      -6.648  71.464 116.366  0.00  0.00     0.109 C 
ATOM     16  O   LIG d   1      -6.716  72.324 118.614  0.00  0.00    -0.276 OA
ATOM     17  H   LIG d   1      -7.388  73.837 115.922  0.00  0.00     0.149 HD
ENDBRANCH   6  13
BRANCH   5  18
ATOM     18  N   LIG d   1      -9.511  74.001 118.956  0.00  0.00     0.381 N 
ATOM     19  H   LIG d   1      -8.802  73.707 119.598  0.00  0.00    -0.090 HD
ATOM     20  H   LIG d   1      -9.744  73.222 118.365  0.00  0.00    -0.090 HD
ATOM     21  H   LIG d   1     -10.319  74.300 119.457  0.00  0.00    -0.090 HD
ENDBRANCH   5  18
BRANCH   3  22
ATOM     22  C   LIG d   1      -9.198  78.755 118.473  0.00  0.00     0.382 C 
ATOM     23  O   LIG d   1      -8.516  79.696 118.947  0.00  0.00    -0.241 OA
ATOM     24  O   LIG d   1     -10.407  78.934 118.235  0.00  0.00    -0.241 OA
ENDBRANCH   3  22
TORSDOF 7
ENDMDL
