MODEL 1
REMARK VINA RESULT:      -5.4      0.000      0.000
REMARK  7 active torsions:
REMARK  status: ('A' for Active; 'I' for Inactive)
REMARK    1  A    between atoms: C_2  and  C_3 
REMARK    2  A    between atoms: C_3  and  O_6 
REMARK    3  A    between atoms: C_3  and  C_4 
REMARK    4  A    between atoms: C_7  and  O_6 
REMARK    5  A    between atoms: C_9  and  C_10 
REMARK    6  A    between atoms: N_15  and  C_14 
REMARK    7  A    between atoms: N_20  and  C_19 
REMARK       I    between atoms: C_22  and  N_20 
ROOT
ATOM      1  C   LIG d   1      -7.423  75.162 117.811  0.00  0.00     0.161 C 
ATOM      2  C   LIG d   1      -8.728  75.622 118.058  0.00  0.00     0.016 C 
ATOM      3  C   LIG d   1      -9.075  76.992 118.104  0.00  0.00     0.038 C 
ATOM      4  C   LIG d   1      -8.164  77.999 117.754  0.00  0.00     0.028 C 
ATOM      5  C   LIG d   1      -6.709  77.609 117.990  0.00  0.00    -0.047 C 
ATOM      6  C   LIG d   1      -6.440  76.244 117.317  0.00  0.00     0.091 C 
ENDROOT
BRANCH   1   7
ATOM      7  O   LIG d   1      -7.461  74.059 116.885  0.00  0.00    -0.368 OA
BRANCH   7   8
ATOM      8  C   LIG d   1      -7.745  72.757 117.455  0.00  0.00     0.119 C 
BRANCH   8   9
ATOM      9  C   LIG d   1      -6.667  71.783 116.944  0.00  0.00     0.028 C 
ATOM     10  C   LIG d   1      -6.104  72.197 115.574  0.00  0.00     0.006 C 
ENDBRANCH   8   9
BRANCH   8  11
ATOM     11  C   LIG d   1      -9.074  72.200 116.938  0.00  0.00     0.028 C 
ATOM     12  C   LIG d   1      -9.147  70.666 117.014  0.00  0.00     0.006 C 
ENDBRANCH   8  11
ENDBRANCH   7   8
ENDBRANCH   1   7
BRANCH   6  13
ATOM     13  N   LIG d   1      -5.062  75.748 117.571  0.00  0.00    -0.311 N 
ATOM     14  C   LIG d   1      -4.222  75.388 116.602  0.00  0.00     0.210 C 
ATOM     15  C   LIG d   1      -2.857  74.887 117.083  0.00  0.00     0.109 C 
ATOM     16  O   LIG d   1      -4.467  75.466 115.389  0.00  0.00    -0.276 OA
ATOM     17  H   LIG d   1      -4.770  75.682 118.526  0.00  0.00     0.149 HD
ENDBRANCH   6  13
BRANCH   5  18
ATOM     18  N   LIG d   1      -5.864  78.694 117.455  0.00  0.00     0.381 N 
ATOM     19  H   LIG d   1      -6.308  79.108 116.660  0.00  0.00    -0.090 HD
ATOM     20  H   LIG d   1      -4.986  78.306 117.158  0.00  0.00    -0.090 HD
ATOM     21  H   LIG d   1      -5.711  79.384 118.156  0.00  0.00    -0.090 HD
ENDBRANCH   5  18
BRANCH   3  22
ATOM     22  C   LIG d   1     -10.336  77.367 118.543  0.00  0.00     0.382 C 
ATOM     23  O   LIG d   1     -10.960  76.640 119.352  0.00  0.00    -0.241 OA
ATOM     24  O   LIG d   1     -10.875  78.401 118.105  0.00  0.00    -0.241 OA
ENDBRANCH   3  22
TORSDOF 7
ENDMDL
MODEL 2
REMARK VINA RESULT:      -5.2      3.394      5.817
REMARK  7 active torsions:
REMARK  status: ('A' for Active; 'I' for Inactive)
REMARK    1  A    between atoms: C_2  and  C_3 
REMARK    2  A    between atoms: C_3  and  O_6 
REMARK    3  A    between atoms: C_3  and  C_4 
REMARK    4  A    between atoms: C_7  and  O_6 
REMARK    5  A    between atoms: C_9  and  C_10 
REMARK    6  A    between atoms: N_15  and  C_14 
REMARK    7  A    between atoms: N_20  and  C_19 
REMARK       I    between atoms: C_22  and  N_20 
ROOT
ATOM      1  C   LIG d   1      -3.794  76.062 116.902  0.00  0.00     0.161 C 
ATOM      2  C   LIG d   1      -4.663  75.109 117.460  0.00  0.00     0.016 C 
ATOM      3  C   LIG d   1      -5.473  74.247 116.686  0.00  0.00     0.038 C 
ATOM      4  C   LIG d   1      -5.355  74.174 115.290  0.00  0.00     0.028 C 
ATOM      5  C   LIG d   1      -4.858  75.469 114.656  0.00  0.00    -0.047 C 
ATOM      6  C   LIG d   1      -3.570  75.921 115.382  0.00  0.00     0.091 C 
ENDROOT
BRANCH   1   7
ATOM      7  O   LIG d   1      -2.532  76.039 117.598  0.00  0.00    -0.368 OA
BRANCH   7   8
ATOM      8  C   LIG d   1      -1.820  74.777 117.586  0.00  0.00     0.119 C 
BRANCH   8   9
ATOM      9  C   LIG d   1      -1.298  74.526 119.014  0.00  0.00     0.028 C 
ATOM     10  C   LIG d   1      -0.198  73.452 119.057  0.00  0.00     0.006 C 
ENDBRANCH   8   9
BRANCH   8  11
ATOM     11  C   LIG d   1      -0.569  74.852 116.705  0.00  0.00     0.028 C 
ATOM     12  C   LIG d   1       0.054  76.257 116.673  0.00  0.00     0.006 C 
ENDBRANCH   8  11
ENDBRANCH   7   8
ENDBRANCH   1   7
BRANCH   6  13
ATOM     13  N   LIG d   1      -3.064  77.225 114.879  0.00  0.00    -0.311 N 
ATOM     14  C   LIG d   1      -2.134  77.334 113.932  0.00  0.00     0.210 C 
ATOM     15  C   LIG d   1      -1.741  78.771 113.575  0.00  0.00     0.109 C 
ATOM     16  O   LIG d   1      -1.621  76.378 113.331  0.00  0.00    -0.276 OA
ATOM     17  H   LIG d   1      -3.449  78.052 115.290  0.00  0.00     0.149 HD
ENDBRANCH   6  13
BRANCH   5  18
ATOM     18  N   LIG d   1      -4.651  75.210 113.219  0.00  0.00     0.381 N 
ATOM     19  H   LIG d   1      -4.365  74.261 113.083  0.00  0.00    -0.090 HD
ATOM     20  H   LIG d   1      -3.920  75.812 112.882  0.00  0.00    -0.090 HD
ATOM     21  H   LIG d   1      -5.493  75.386 112.716  0.00  0.00    -0.090 HD
ENDBRANCH   5  18
BRANCH   3  22
ATOM     22  C   LIG d   1      -6.441  73.472 117.307  0.00  0.00     0.382 C 
ATOM     23  O   LIG d   1      -6.271  72.235 117.430  0.00  0.00    -0.241 OA
ATOM     24  O   LIG d   1      -7.502  73.988 117.706  0.00  0.00    -0.241 OA
ENDBRANCH   3  22
TORSDOF 7
ENDMDL
MODEL 3
REMARK VINA RESULT:      -5.2      2.254      4.807
REMARK  7 active torsions:
REMARK  status: ('A' for Active; 'I' for Inactive)
REMARK    1  A    between atoms: C_2  and  C_3 
REMARK    2  A    between atoms: C_3  and  O_6 
REMARK    3  A    between atoms: C_3  and  C_4 
REMARK    4  A    between atoms: C_7  and  O_6 
REMARK    5  A    between atoms: C_9  and  C_10 
REMARK    6  A    between atoms: N_15  and  C_14 
REMARK    7  A    between atoms: N_20  and  C_19 
REMARK       I    between atoms: C_22  and  N_20 
ROOT
ATOM      1  C   LIG d   1      -5.766  74.219 117.434  0.00  0.00     0.161 C 
ATOM      2  C   LIG d   1      -6.421  73.019 117.108  0.00  0.00     0.016 C 
ATOM      3  C   LIG d   1      -7.828  72.882 117.083  0.00  0.00     0.038 C 
ATOM      4  C   LIG d   1      -8.682  73.984 117.237  0.00  0.00     0.028 C 
ATOM      5  C   LIG d   1      -8.075  75.111 118.066  0.00  0.00    -0.047 C 
ATOM      6  C   LIG d   1      -6.682  75.459 117.496  0.00  0.00     0.091 C 
ENDROOT
BRANCH   1   7
ATOM      7  O   LIG d   1      -4.677  74.445 116.517  0.00  0.00    -0.368 OA
BRANCH   7   8
ATOM      8  C   LIG d   1      -4.915  75.421 115.473  0.00  0.00     0.119 C 
BRANCH   8   9
ATOM      9  C   LIG d   1      -5.016  74.656 114.139  0.00  0.00     0.028 C 
ATOM     10  C   LIG d   1      -5.072  75.598 112.925  0.00  0.00     0.006 C 
ENDBRANCH   8   9
BRANCH   8  11
ATOM     11  C   LIG d   1      -3.720  76.365 115.310  0.00  0.00     0.028 C 
ATOM     12  C   LIG d   1      -2.483  75.903 116.097  0.00  0.00     0.006 C 
ENDBRANCH   8  11
ENDBRANCH   7   8
ENDBRANCH   1   7
BRANCH   6  13
ATOM     13  N   LIG d   1      -5.983  76.495 118.300  0.00  0.00    -0.311 N 
ATOM     14  C   LIG d   1      -5.949  77.784 117.966  0.00  0.00     0.210 C 
ATOM     15  C   LIG d   1      -5.156  78.679 118.923  0.00  0.00     0.109 C 
ATOM     16  O   LIG d   1      -6.527  78.275 116.985  0.00  0.00    -0.276 OA
ATOM     17  H   LIG d   1      -5.513  76.188 119.129  0.00  0.00     0.149 HD
ENDBRANCH   6  13
BRANCH   5  18
ATOM     18  N   LIG d   1      -9.016  76.247 118.030  0.00  0.00     0.381 N 
ATOM     19  H   LIG d   1      -8.612  77.035 118.496  0.00  0.00    -0.090 HD
ATOM     20  H   LIG d   1      -9.856  75.989 118.517  0.00  0.00    -0.090 HD
ATOM     21  H   LIG d   1      -9.229  76.483 117.086  0.00  0.00    -0.090 HD
ENDBRANCH   5  18
BRANCH   3  22
ATOM     22  C   LIG d   1      -8.393  71.624 116.943  0.00  0.00     0.382 C 
ATOM     23  O   LIG d   1      -9.526  71.502 116.418  0.00  0.00    -0.241 OA
ATOM     24  O   LIG d   1      -7.805  70.615 117.374  0.00  0.00    -0.241 OA
ENDBRANCH   3  22
TORSDOF 7
ENDMDL
MODEL 4
REMARK VINA RESULT:      -5.1      2.391      5.318
REMARK  7 active torsions:
REMARK  status: ('A' for Active; 'I' for Inactive)
REMARK    1  A    between atoms: C_2  and  C_3 
REMARK    2  A    between atoms: C_3  and  O_6 
REMARK    3  A    between atoms: C_3  and  C_4 
REMARK    4  A    between atoms: C_7  and  O_6 
REMARK    5  A    between atoms: C_9  and  C_10 
REMARK    6  A    between atoms: N_15  and  C_14 
REMARK    7  A    between atoms: N_20  and  C_19 
REMARK       I    between atoms: C_22  and  N_20 
ROOT
ATOM      1  C   LIG d   1      -4.769  75.927 116.991  0.00  0.00     0.161 C 
ATOM      2  C   LIG d   1      -5.008  74.573 116.701  0.00  0.00     0.016 C 
ATOM      3  C   LIG d   1      -6.237  73.927 116.965  0.00  0.00     0.038 C 
ATOM      4  C   LIG d   1      -7.368  74.633 117.399  0.00  0.00     0.028 C 
ATOM      5  C   LIG d   1      -7.029  75.898 118.182  0.00  0.00    -0.047 C 
ATOM      6  C   LIG d   1      -6.026  76.741 117.362  0.00  0.00     0.091 C 
ENDROOT
BRANCH   1   7
ATOM      7  O   LIG d   1      -4.077  76.547 115.888  0.00  0.00    -0.368 OA
BRANCH   7   8
ATOM      8  C   LIG d   1      -3.273  75.668 115.064  0.00  0.00     0.119 C 
BRANCH   8   9
ATOM      9  C   LIG d   1      -1.795  76.036 115.301  0.00  0.00     0.028 C 
ATOM     10  C   LIG d   1      -1.083  75.037 116.228  0.00  0.00     0.006 C 
ENDBRANCH   8   9
BRANCH   8  11
ATOM     11  C   LIG d   1      -3.520  75.920 113.574  0.00  0.00     0.028 C 
ATOM     12  C   LIG d   1      -4.951  75.567 113.139  0.00  0.00     0.006 C 
ENDBRANCH   8  11
ENDBRANCH   7   8
ENDBRANCH   1   7
BRANCH   6  13
ATOM     13  N   LIG d   1      -5.576  77.955 118.092  0.00  0.00    -0.311 N 
ATOM     14  C   LIG d   1      -6.162  79.144 117.967  0.00  0.00     0.210 C 
ATOM     15  C   LIG d   1      -5.527  80.267 118.794  0.00  0.00     0.109 C 
ATOM     16  O   LIG d   1      -7.166  79.369 117.274  0.00  0.00    -0.276 OA
ATOM     17  H   LIG d   1      -4.787  77.855 118.700  0.00  0.00     0.149 HD
ENDBRANCH   6  13
BRANCH   5  18
ATOM     18  N   LIG d   1      -8.294  76.607 118.453  0.00  0.00     0.381 N 
ATOM     19  H   LIG d   1      -8.808  76.720 117.603  0.00  0.00    -0.090 HD
ATOM     20  H   LIG d   1      -8.083  77.519 118.819  0.00  0.00    -0.090 HD
ATOM     21  H   LIG d   1      -8.837  76.094 119.113  0.00  0.00    -0.090 HD
ENDBRANCH   5  18
BRANCH   3  22
ATOM     22  C   LIG d   1      -6.332  72.550 116.831  0.00  0.00     0.382 C 
ATOM     23  O   LIG d   1      -6.423  72.035 115.690  0.00  0.00    -0.241 OA
ATOM     24  O   LIG d   1      -6.373  71.819 117.838  0.00  0.00    -0.241 OA
ENDBRANCH   3  22
TORSDOF 7
ENDMDL
MODEL 5
REMARK VINA RESULT:      -4.8     14.638     17.507
REMARK  7 active torsions:
REMARK  status: ('A' for Active; 'I' for Inactive)
REMARK    1  A    between atoms: C_2  and  C_3 
REMARK    2  A    between atoms: C_3  and  O_6 
REMARK    3  A    between atoms: C_3  and  C_4 
REMARK    4  A    between atoms: C_7  and  O_6 
REMARK    5  A    between atoms: C_9  and  C_10 
REMARK    6  A    between atoms: N_15  and  C_14 
REMARK    7  A    between atoms: N_20  and  C_19 
REMARK       I    between atoms: C_22  and  N_20 
ROOT
ATOM      1  C   LIG d   1       9.857  78.806 116.417  0.00  0.00     0.161 C 
ATOM      2  C   LIG d   1       9.539  80.169 116.542  0.00  0.00     0.016 C 
ATOM      3  C   LIG d   1       9.814  81.128 115.540  0.00  0.00     0.038 C 
ATOM      4  C   LIG d   1      10.291  80.760 114.273  0.00  0.00     0.028 C 
ATOM      5  C   LIG d   1      11.097  79.465 114.282  0.00  0.00    -0.047 C 
ATOM      6  C   LIG d   1      10.276  78.368 114.998  0.00  0.00     0.091 C 
ENDROOT
BRANCH   1   7
ATOM      7  O   LIG d   1       8.755  78.003 116.884  0.00  0.00    -0.368 OA
BRANCH   7   8
ATOM      8  C   LIG d   1       7.439  78.599 116.773  0.00  0.00     0.119 C 
BRANCH   8   9
ATOM      9  C   LIG d   1       6.672  78.275 118.069  0.00  0.00     0.028 C 
ATOM     10  C   LIG d   1       7.576  77.648 119.144  0.00  0.00     0.006 C 
ENDBRANCH   8   9
BRANCH   8  11
ATOM     11  C   LIG d   1       6.627  77.950 115.648  0.00  0.00     0.028 C 
ATOM     12  C   LIG d   1       5.114  77.967 115.919  0.00  0.00     0.006 C 
ENDBRANCH   8  11
ENDBRANCH   7   8
ENDBRANCH   1   7
BRANCH   6  13
ATOM     13  N   LIG d   1      11.025  77.091 115.125  0.00  0.00    -0.311 N 
ATOM     14  C   LIG d   1      10.485  75.897 114.887  0.00  0.00     0.210 C 
ATOM     15  C   LIG d   1      11.427  74.708 115.097  0.00  0.00     0.109 C 
ATOM     16  O   LIG d   1       9.324  75.712 114.491  0.00  0.00    -0.276 OA
ATOM     17  H   LIG d   1      11.983  77.151 115.411  0.00  0.00     0.149 HD
ENDBRANCH   6  13
BRANCH   5  18
ATOM     18  N   LIG d   1      11.414  79.128 112.881  0.00  0.00     0.381 N 
ATOM     19  H   LIG d   1      11.613  78.150 112.805  0.00  0.00    -0.090 HD
ATOM     20  H   LIG d   1      12.232  79.639 112.601  0.00  0.00    -0.090 HD
ATOM     21  H   LIG d   1      10.647  79.365 112.291  0.00  0.00    -0.090 HD
ENDBRANCH   5  18
BRANCH   3  22
ATOM     22  C   LIG d   1       9.649  82.477 115.815  0.00  0.00     0.382 C 
ATOM     23  O   LIG d   1       8.605  83.068 115.447  0.00  0.00    -0.241 OA
ATOM     24  O   LIG d   1      10.549  83.120 116.387  0.00  0.00    -0.241 OA
ENDBRANCH   3  22
TORSDOF 7
ENDMDL
MODEL 6
REMARK VINA RESULT:      -4.7      2.577      5.702
REMARK  7 active torsions:
REMARK  status: ('A' for Active; 'I' for Inactive)
REMARK    1  A    between atoms: C_2  and  C_3 
REMARK    2  A    between atoms: C_3  and  O_6 
REMARK    3  A    between atoms: C_3  and  C_4 
REMARK    4  A    between atoms: C_7  and  O_6 
REMARK    5  A    between atoms: C_9  and  C_10 
REMARK    6  A    between atoms: N_15  and  C_14 
REMARK    7  A    between atoms: N_20  and  C_19 
REMARK       I    between atoms: C_22  and  N_20 
ROOT
ATOM      1  C   LIG d   1      -4.446  75.699 117.242  0.00  0.00     0.161 C 
ATOM      2  C   LIG d   1      -4.763  74.372 116.905  0.00  0.00     0.016 C 
ATOM      3  C   LIG d   1      -6.075  73.848 116.961  0.00  0.00     0.038 C 
ATOM      4  C   LIG d   1      -7.189  74.662 117.213  0.00  0.00     0.028 C 
ATOM      5  C   LIG d   1      -6.862  75.893 118.052  0.00  0.00    -0.047 C 
ATOM      6  C   LIG d   1      -5.664  76.631 117.413  0.00  0.00     0.091 C 
ENDROOT
BRANCH   1   7
ATOM      7  O   LIG d   1      -3.530  76.243 116.271  0.00  0.00    -0.368 OA
BRANCH   7   8
ATOM      8  C   LIG d   1      -2.141  76.315 116.676  0.00  0.00     0.119 C 
BRANCH   8   9
ATOM      9  C   LIG d   1      -1.592  77.677 116.209  0.00  0.00     0.028 C 
ATOM     10  C   LIG d   1      -2.704  78.622 115.723  0.00  0.00     0.006 C 
ENDBRANCH   8   9
BRANCH   8  11
ATOM     11  C   LIG d   1      -1.294  75.266 115.949  0.00  0.00     0.028 C 
ATOM     12  C   LIG d   1      -1.405  75.366 114.420  0.00  0.00     0.006 C 
ENDBRANCH   8  11
ENDBRANCH   7   8
ENDBRANCH   1   7
BRANCH   6  13
ATOM     13  N   LIG d   1      -5.224  77.801 118.217  0.00  0.00    -0.311 N 
ATOM     14  C   LIG d   1      -5.615  79.050 117.968  0.00  0.00     0.210 C 
ATOM     15  C   LIG d   1      -5.029  80.110 118.905  0.00  0.00     0.109 C 
ATOM     16  O   LIG d   1      -6.416  79.377 117.079  0.00  0.00    -0.276 OA
ATOM     17  H   LIG d   1      -4.598  77.623 118.977  0.00  0.00     0.149 HD
ENDBRANCH   6  13
BRANCH   5  18
ATOM     18  N   LIG d   1      -8.080  76.721 118.122  0.00  0.00     0.381 N 
ATOM     19  H   LIG d   1      -8.843  76.239 117.689  0.00  0.00    -0.090 HD
ATOM     20  H   LIG d   1      -7.922  77.577 117.620  0.00  0.00    -0.090 HD
ATOM     21  H   LIG d   1      -8.302  76.922 119.073  0.00  0.00    -0.090 HD
ENDBRANCH   5  18
BRANCH   3  22
ATOM     22  C   LIG d   1      -6.278  72.485 116.801  0.00  0.00     0.382 C 
ATOM     23  O   LIG d   1      -6.358  71.741 117.808  0.00  0.00    -0.241 OA
ATOM     24  O   LIG d   1      -6.337  71.985 115.662  0.00  0.00    -0.241 OA
ENDBRANCH   3  22
TORSDOF 7
ENDMDL
MODEL 7
REMARK VINA RESULT:      -4.6     15.275     18.358
REMARK  7 active torsions:
REMARK  status: ('A' for Active; 'I' for Inactive)
REMARK    1  A    between atoms: C_2  and  C_3 
REMARK    2  A    between atoms: C_3  and  O_6 
REMARK    3  A    between atoms: C_3  and  C_4 
REMARK    4  A    between atoms: C_7  and  O_6 
REMARK    5  A    between atoms: C_9  and  C_10 
REMARK    6  A    between atoms: N_15  and  C_14 
REMARK    7  A    between atoms: N_20  and  C_19 
REMARK       I    between atoms: C_22  and  N_20 
ROOT
ATOM      1  C   LIG d   1      10.294  76.704 114.710  0.00  0.00     0.161 C 
ATOM      2  C   LIG d   1       9.074  77.401 114.707  0.00  0.00     0.016 C 
ATOM      3  C   LIG d   1       8.282  77.588 115.863  0.00  0.00     0.038 C 
ATOM      4  C   LIG d   1       8.733  77.218 117.139  0.00  0.00     0.028 C 
ATOM      5  C   LIG d   1       9.728  76.063 117.118  0.00  0.00    -0.047 C 
ATOM      6  C   LIG d   1      10.855  76.390 116.113  0.00  0.00     0.091 C 
ENDROOT
BRANCH   1   7
ATOM      7  O   LIG d   1      11.269  77.422 113.929  0.00  0.00    -0.368 OA
BRANCH   7   8
ATOM      8  C   LIG d   1      11.694  78.701 114.461  0.00  0.00     0.119 C 
BRANCH   8   9
ATOM      9  C   LIG d   1      11.300  79.783 113.436  0.00  0.00     0.028 C 
ATOM     10  C   LIG d   1      10.406  80.874 114.050  0.00  0.00     0.006 C 
ENDBRANCH   8   9
BRANCH   8  11
ATOM     11  C   LIG d   1      13.220  78.781 114.567  0.00  0.00     0.028 C 
ATOM     12  C   LIG d   1      13.874  79.378 113.311  0.00  0.00     0.006 C 
ENDBRANCH   8  11
ENDBRANCH   7   8
ENDBRANCH   1   7
BRANCH   6  13
ATOM     13  N   LIG d   1      11.827  75.275 115.968  0.00  0.00    -0.311 N 
ATOM     14  C   LIG d   1      11.491  74.060 115.538  0.00  0.00     0.210 C 
ATOM     15  C   LIG d   1      12.643  73.052 115.483  0.00  0.00     0.109 C 
ATOM     16  O   LIG d   1      10.354  73.731 115.167  0.00  0.00    -0.276 OA
ATOM     17  H   LIG d   1      12.778  75.463 116.218  0.00  0.00     0.149 HD
ENDBRANCH   6  13
BRANCH   5  18
ATOM     18  N   LIG d   1      10.219  75.873 118.496  0.00  0.00     0.381 N 
ATOM     19  H   LIG d   1      10.912  75.152 118.512  0.00  0.00    -0.090 HD
ATOM     20  H   LIG d   1       9.452  75.586 119.078  0.00  0.00    -0.090 HD
ATOM     21  H   LIG d   1      10.607  76.724 118.840  0.00  0.00    -0.090 HD
ENDBRANCH   5  18
BRANCH   3  22
ATOM     22  C   LIG d   1       7.005  78.115 115.743  0.00  0.00     0.382 C 
ATOM     23  O   LIG d   1       6.549  78.864 116.641  0.00  0.00    -0.241 OA
ATOM     24  O   LIG d   1       6.287  77.816 114.770  0.00  0.00    -0.241 OA
ENDBRANCH   3  22
TORSDOF 7
ENDMDL
MODEL 8
REMARK VINA RESULT:      -4.5      3.042      7.228
REMARK  7 active torsions:
REMARK  status: ('A' for Active; 'I' for Inactive)
REMARK    1  A    between atoms: C_2  and  C_3 
REMARK    2  A    between atoms: C_3  and  O_6 
REMARK    3  A    between atoms: C_3  and  C_4 
REMARK    4  A    between atoms: C_7  and  O_6 
REMARK    5  A    between atoms: C_9  and  C_10 
REMARK    6  A    between atoms: N_15  and  C_14 
REMARK    7  A    between atoms: N_20  and  C_19 
REMARK       I    between atoms: C_22  and  N_20 
ROOT
ATOM      1  C   LIG d   1      -3.337  75.516 116.844  0.00  0.00     0.161 C 
ATOM      2  C   LIG d   1      -2.099  75.401 116.190  0.00  0.00     0.016 C 
ATOM      3  C   LIG d   1      -1.962  75.364 114.783  0.00  0.00     0.038 C 
ATOM      4  C   LIG d   1      -3.049  75.593 113.926  0.00  0.00     0.028 C 
ATOM      5  C   LIG d   1      -4.393  75.211 114.537  0.00  0.00    -0.047 C 
ATOM      6  C   LIG d   1      -4.522  75.879 115.925  0.00  0.00     0.091 C 
ENDROOT
BRANCH   1   7
ATOM      7  O   LIG d   1      -3.232  76.463 117.925  0.00  0.00    -0.368 OA
BRANCH   7   8
ATOM      8  C   LIG d   1      -3.194  77.861 117.546  0.00  0.00     0.119 C 
BRANCH   8   9
ATOM      9  C   LIG d   1      -1.772  78.381 117.833  0.00  0.00     0.028 C 
ATOM     10  C   LIG d   1      -1.072  78.903 116.567  0.00  0.00     0.006 C 
ENDBRANCH   8   9
BRANCH   8  11
ATOM     11  C   LIG d   1      -4.120  78.703 118.429  0.00  0.00     0.028 C 
ATOM     12  C   LIG d   1      -4.774  77.887 119.555  0.00  0.00     0.006 C 
ENDBRANCH   8  11
ENDBRANCH   7   8
ENDBRANCH   1   7
BRANCH   6  13
ATOM     13  N   LIG d   1      -5.772  75.489 116.628  0.00  0.00    -0.311 N 
ATOM     14  C   LIG d   1      -6.762  76.341 116.890  0.00  0.00     0.210 C 
ATOM     15  C   LIG d   1      -7.952  75.737 117.642  0.00  0.00     0.109 C 
ATOM     16  O   LIG d   1      -6.781  77.531 116.543  0.00  0.00    -0.276 OA
ATOM     17  H   LIG d   1      -5.853  74.534 116.917  0.00  0.00     0.149 HD
ENDBRANCH   6  13
BRANCH   5  18
ATOM     18  N   LIG d   1      -5.446  75.630 113.593  0.00  0.00     0.381 N 
ATOM     19  H   LIG d   1      -5.922  74.825 113.238  0.00  0.00    -0.090 HD
ATOM     20  H   LIG d   1      -5.019  76.109 112.821  0.00  0.00    -0.090 HD
ATOM     21  H   LIG d   1      -6.094  76.233 114.051  0.00  0.00    -0.090 HD
ENDBRANCH   5  18
BRANCH   3  22
ATOM     22  C   LIG d   1      -0.733  75.055 114.220  0.00  0.00     0.382 C 
ATOM     23  O   LIG d   1       0.320  75.523 114.717  0.00  0.00    -0.241 OA
ATOM     24  O   LIG d   1      -0.667  74.351 113.195  0.00  0.00    -0.241 OA
ENDBRANCH   3  22
TORSDOF 7
ENDMDL
MODEL 9
REMARK VINA RESULT:      -4.5     15.729     18.233
REMARK  7 active torsions:
REMARK  status: ('A' for Active; 'I' for Inactive)
REMARK    1  A    between atoms: C_2  and  C_3 
REMARK    2  A    between atoms: C_3  and  O_6 
REMARK    3  A    between atoms: C_3  and  C_4 
REMARK    4  A    between atoms: C_7  and  O_6 
REMARK    5  A    between atoms: C_9  and  C_10 
REMARK    6  A    between atoms: N_15  and  C_14 
REMARK    7  A    between atoms: N_20  and  C_19 
REMARK       I    between atoms: C_22  and  N_20 
ROOT
ATOM      1  C   LIG d   1      10.345  76.122 115.340  0.00  0.00     0.161 C 
ATOM      2  C   LIG d   1       9.014  76.552 115.466  0.00  0.00     0.016 C 
ATOM      3  C   LIG d   1       8.592  77.871 115.179  0.00  0.00     0.038 C 
ATOM      4  C   LIG d   1       9.452  78.815 114.598  0.00  0.00     0.028 C 
ATOM      5  C   LIG d   1      10.922  78.577 114.925  0.00  0.00    -0.047 C 
ATOM      6  C   LIG d   1      11.276  77.107 114.602  0.00  0.00     0.091 C 
ENDROOT
BRANCH   1   7
ATOM      7  O   LIG d   1      10.382  74.828 114.707  0.00  0.00    -0.368 OA
BRANCH   7   8
ATOM      8  C   LIG d   1      10.540  73.691 115.591  0.00  0.00     0.119 C 
BRANCH   8   9
ATOM      9  C   LIG d   1      11.147  74.209 116.909  0.00  0.00     0.028 C 
ATOM     10  C   LIG d   1      10.468  73.599 118.147  0.00  0.00     0.006 C 
ENDBRANCH   8   9
BRANCH   8  11
ATOM     11  C   LIG d   1      11.562  72.693 115.039  0.00  0.00     0.028 C 
ATOM     12  C   LIG d   1      11.095  71.233 115.159  0.00  0.00     0.006 C 
ENDBRANCH   8  11
ENDBRANCH   7   8
ENDBRANCH   1   7
BRANCH   6  13
ATOM     13  N   LIG d   1      12.675  76.767 114.971  0.00  0.00    -0.311 N 
ATOM     14  C   LIG d   1      13.696  76.841 114.120  0.00  0.00     0.210 C 
ATOM     15  C   LIG d   1      15.052  76.425 114.700  0.00  0.00     0.109 C 
ATOM     16  O   LIG d   1      13.614  77.241 112.949  0.00  0.00    -0.276 OA
ATOM     17  H   LIG d   1      12.837  76.462 115.911  0.00  0.00     0.149 HD
ENDBRANCH   6  13
BRANCH   5  18
ATOM     18  N   LIG d   1      11.714  79.547 114.146  0.00  0.00     0.381 N 
ATOM     19  H   LIG d   1      12.304  80.073 114.760  0.00  0.00    -0.090 HD
ATOM     20  H   LIG d   1      11.088  80.184 113.687  0.00  0.00    -0.090 HD
ATOM     21  H   LIG d   1      12.269  79.070 113.470  0.00  0.00    -0.090 HD
ENDBRANCH   5  18
BRANCH   3  22
ATOM     22  C   LIG d   1       7.305  78.268 115.511  0.00  0.00     0.382 C 
ATOM     23  O   LIG d   1       6.336  77.911 114.800  0.00  0.00    -0.241 OA
ATOM     24  O   LIG d   1       7.107  79.016 116.488  0.00  0.00    -0.241 OA
ENDBRANCH   3  22
TORSDOF 7
ENDMDL
