MODEL 1
REMARK  7 active torsions:
REMARK  status: ('A' for Active; 'I' for Inactive)
REMARK    1  A    between atoms: C_2  and  C_3 
REMARK    2  A    between atoms: C_3  and  O_6 
REMARK    3  A    between atoms: C_3  and  C_4 
REMARK    4  A    between atoms: C_7  and  O_6 
REMARK    5  A    between atoms: C_9  and  C_10 
REMARK    6  A    between atoms: N_15  and  C_14 
REMARK    7  A    between atoms: N_20  and  C_19 
REMARK       I    between atoms: C_22  and  N_20 
ROOT
ATOM      1  C   LIG d   1       1.539  81.966 111.446  0.00  0.00     0.161 C 
ATOM      2  C   LIG d   1       2.371  82.199 110.339  0.00  0.00     0.016 C 
ATOM      3  C   LIG d   1       2.214  81.544 109.096  0.00  0.00     0.038 C 
ATOM      4  C   LIG d   1       1.112  80.717 108.828  0.00  0.00     0.028 C 
ATOM      5  C   LIG d   1       0.530  80.061 110.075  0.00  0.00    -0.047 C 
ATOM      6  C   LIG d   1       0.266  81.151 111.138  0.00  0.00     0.091 C 
ENDROOT
BRANCH   1   7
ATOM      7  O   LIG d   1       1.194  83.219 112.070  0.00  0.00    -0.368 OA
BRANCH   7   8
ATOM      8  C   LIG d   1       0.865  84.308 111.173  0.00  0.00     0.119 C 
BRANCH   8   9
ATOM      9  C   LIG d   1       1.444  85.600 111.782  0.00  0.00     0.028 C 
ATOM     10  C   LIG d   1       2.953  85.745 111.523  0.00  0.00     0.006 C 
ENDBRANCH   8   9
BRANCH   8  11
ATOM     11  C   LIG d   1      -0.649  84.535 111.104  0.00  0.00     0.028 C 
ATOM     12  C   LIG d   1      -1.032  85.732 110.220  0.00  0.00     0.006 C 
ENDBRANCH   8  11
ENDBRANCH   7   8
ENDBRANCH   1   7
BRANCH   6  13
ATOM     13  N   LIG d   1      -0.226  80.583 112.421  0.00  0.00    -0.311 N 
ATOM     14  C   LIG d   1      -1.480  80.718 112.849  0.00  0.00     0.210 C 
ATOM     15  C   LIG d   1      -1.772  80.073 114.208  0.00  0.00     0.109 C 
ATOM     16  O   LIG d   1      -2.386  81.283 112.218  0.00  0.00    -0.276 OA
ATOM     17  H   LIG d   1       0.435  80.083 112.982  0.00  0.00     0.149 HD
ENDBRANCH   6  13
BRANCH   5  18
ATOM     18  N   LIG d   1      -0.692  79.340 109.670  0.00  0.00     0.381 N 
ATOM     19  H   LIG d   1      -0.861  78.581 110.299  0.00  0.00    -0.090 HD
ATOM     20  H   LIG d   1      -0.556  78.962 108.749  0.00  0.00    -0.090 HD
ATOM     21  H   LIG d   1      -1.470  79.962 109.670  0.00  0.00    -0.090 HD
ENDBRANCH   5  18
BRANCH   3  22
ATOM     22  C   LIG d   1       3.187  81.683 108.118  0.00  0.00     0.382 C 
ATOM     23  O   LIG d   1       4.144  80.874 108.067  0.00  0.00    -0.241 OA
ATOM     24  O   LIG d   1       3.143  82.633 107.313  0.00  0.00    -0.241 OA
ENDBRANCH   3  22
TORSDOF 7
ENDMDL
