MODEL 1
REMARK VINA RESULT:      -5.8      0.000      0.000
REMARK  7 active torsions:
REMARK  status: ('A' for Active; 'I' for Inactive)
REMARK    1  A    between atoms: C_2  and  C_3 
REMARK    2  A    between atoms: C_3  and  O_6 
REMARK    3  A    between atoms: C_3  and  C_4 
REMARK    4  A    between atoms: C_7  and  O_6 
REMARK    5  A    between atoms: C_9  and  C_10 
REMARK    6  A    between atoms: N_15  and  C_14 
REMARK    7  A    between atoms: N_20  and  C_19 
REMARK       I    between atoms: C_22  and  N_20 
ROOT
ATOM      1  C   LIG d   1       2.797  87.555 114.218  0.00  0.00     0.161 C 
ATOM      2  C   LIG d   1       2.733  88.539 115.219  0.00  0.00     0.016 C 
ATOM      3  C   LIG d   1       3.698  89.561 115.369  0.00  0.00     0.038 C 
ATOM      4  C   LIG d   1       4.720  89.759 114.428  0.00  0.00     0.028 C 
ATOM      5  C   LIG d   1       5.117  88.487 113.687  0.00  0.00    -0.047 C 
ATOM      6  C   LIG d   1       3.844  87.822 113.116  0.00  0.00     0.091 C 
ENDROOT
BRANCH   1   7
ATOM      7  O   LIG d   1       1.493  87.365 113.635  0.00  0.00    -0.368 OA
BRANCH   7   8
ATOM      8  C   LIG d   1       0.736  86.230 114.123  0.00  0.00     0.119 C 
BRANCH   8   9
ATOM      9  C   LIG d   1       1.746  85.192 114.650  0.00  0.00     0.028 C 
ATOM     10  C   LIG d   1       1.721  83.886 113.839  0.00  0.00     0.006 C 
ENDBRANCH   8   9
BRANCH   8  11
ATOM     11  C   LIG d   1      -0.011  85.528 112.986  0.00  0.00     0.028 C 
ATOM     12  C   LIG d   1      -0.604  86.512 111.965  0.00  0.00     0.006 C 
ENDBRANCH   8  11
ENDBRANCH   7   8
ENDBRANCH   1   7
BRANCH   6  13
ATOM     13  N   LIG d   1       4.132  86.526 112.447  0.00  0.00    -0.311 N 
ATOM     14  C   LIG d   1       3.475  86.093 111.373  0.00  0.00     0.210 C 
ATOM     15  C   LIG d   1       3.917  84.721 110.854  0.00  0.00     0.109 C 
ATOM     16  O   LIG d   1       2.589  86.728 110.782  0.00  0.00    -0.276 OA
ATOM     17  H   LIG d   1       4.858  85.961 112.842  0.00  0.00     0.149 HD
ENDBRANCH   6  13
BRANCH   5  18
ATOM     18  N   LIG d   1       6.090  88.863 112.644  0.00  0.00     0.381 N 
ATOM     19  H   LIG d   1       5.874  89.775 112.293  0.00  0.00    -0.090 HD
ATOM     20  H   LIG d   1       6.022  88.209 111.885  0.00  0.00    -0.090 HD
ATOM     21  H   LIG d   1       7.013  88.854 113.020  0.00  0.00    -0.090 HD
ENDBRANCH   5  18
BRANCH   3  22
ATOM     22  C   LIG d   1       3.670  90.373 116.492  0.00  0.00     0.382 C 
ATOM     23  O   LIG d   1       3.657  91.621 116.363  0.00  0.00    -0.241 OA
ATOM     24  O   LIG d   1       3.702  89.875 117.633  0.00  0.00    -0.241 OA
ENDBRANCH   3  22
TORSDOF 7
ENDMDL
MODEL 2
REMARK VINA RESULT:      -5.8      4.023      6.107
REMARK  7 active torsions:
REMARK  status: ('A' for Active; 'I' for Inactive)
REMARK    1  A    between atoms: C_2  and  C_3 
REMARK    2  A    between atoms: C_3  and  O_6 
REMARK    3  A    between atoms: C_3  and  C_4 
REMARK    4  A    between atoms: C_7  and  O_6 
REMARK    5  A    between atoms: C_9  and  C_10 
REMARK    6  A    between atoms: N_15  and  C_14 
REMARK    7  A    between atoms: N_20  and  C_19 
REMARK       I    between atoms: C_22  and  N_20 
ROOT
ATOM      1  C   LIG d   1       0.940  83.431 112.741  0.00  0.00     0.161 C 
ATOM      2  C   LIG d   1       0.380  84.159 111.678  0.00  0.00     0.016 C 
ATOM      3  C   LIG d   1       0.197  85.561 111.706  0.00  0.00     0.038 C 
ATOM      4  C   LIG d   1       0.705  86.354 112.745  0.00  0.00     0.028 C 
ATOM      5  C   LIG d   1       0.827  85.610 114.071  0.00  0.00    -0.047 C 
ATOM      6  C   LIG d   1       1.602  84.293 113.837  0.00  0.00     0.091 C 
ENDROOT
BRANCH   1   7
ATOM      7  O   LIG d   1       1.879  82.464 112.229  0.00  0.00    -0.368 OA
BRANCH   7   8
ATOM      8  C   LIG d   1       2.256  82.616 110.839  0.00  0.00     0.119 C 
BRANCH   8   9
ATOM      9  C   LIG d   1       2.316  81.207 110.219  0.00  0.00     0.028 C 
ATOM     10  C   LIG d   1       3.703  80.878 109.642  0.00  0.00     0.006 C 
ENDBRANCH   8   9
BRANCH   8  11
ATOM     11  C   LIG d   1       3.674  83.179 110.705  0.00  0.00     0.028 C 
ATOM     12  C   LIG d   1       3.692  84.689 110.419  0.00  0.00     0.006 C 
ENDBRANCH   8  11
ENDBRANCH   7   8
ENDBRANCH   1   7
BRANCH   6  13
ATOM     13  N   LIG d   1       1.694  83.463 115.067  0.00  0.00    -0.311 N 
ATOM     14  C   LIG d   1       2.761  83.448 115.863  0.00  0.00     0.210 C 
ATOM     15  C   LIG d   1       2.656  82.508 117.067  0.00  0.00     0.109 C 
ATOM     16  O   LIG d   1       3.772  84.149 115.703  0.00  0.00    -0.276 OA
ATOM     17  H   LIG d   1       0.905  82.888 115.288  0.00  0.00     0.149 HD
ENDBRANCH   6  13
BRANCH   5  18
ATOM     18  N   LIG d   1       1.496  86.512 115.028  0.00  0.00     0.381 N 
ATOM     19  H   LIG d   1       2.129  87.114 114.540  0.00  0.00    -0.090 HD
ATOM     20  H   LIG d   1       2.026  85.959 115.679  0.00  0.00    -0.090 HD
ATOM     21  H   LIG d   1       0.818  87.055 115.516  0.00  0.00    -0.090 HD
ENDBRANCH   5  18
BRANCH   3  22
ATOM     22  C   LIG d   1      -0.536  86.178 110.704  0.00  0.00     0.382 C 
ATOM     23  O   LIG d   1      -0.238  85.988 109.500  0.00  0.00    -0.241 OA
ATOM     24  O   LIG d   1      -1.465  86.958 110.990  0.00  0.00    -0.241 OA
ENDBRANCH   3  22
TORSDOF 7
ENDMDL
MODEL 3
REMARK VINA RESULT:      -5.6     12.874     14.943
REMARK  7 active torsions:
REMARK  status: ('A' for Active; 'I' for Inactive)
REMARK    1  A    between atoms: C_2  and  C_3 
REMARK    2  A    between atoms: C_3  and  O_6 
REMARK    3  A    between atoms: C_3  and  C_4 
REMARK    4  A    between atoms: C_7  and  O_6 
REMARK    5  A    between atoms: C_9  and  C_10 
REMARK    6  A    between atoms: N_15  and  C_14 
REMARK    7  A    between atoms: N_20  and  C_19 
REMARK       I    between atoms: C_22  and  N_20 
ROOT
ATOM      1  C   LIG d   1      -3.835  75.472 116.524  0.00  0.00     0.161 C 
ATOM      2  C   LIG d   1      -4.401  75.789 115.277  0.00  0.00     0.016 C 
ATOM      3  C   LIG d   1      -3.637  75.999 114.107  0.00  0.00     0.038 C 
ATOM      4  C   LIG d   1      -2.255  75.757 114.070  0.00  0.00     0.028 C 
ATOM      5  C   LIG d   1      -1.574  75.926 115.423  0.00  0.00    -0.047 C 
ATOM      6  C   LIG d   1      -2.340  75.095 116.478  0.00  0.00     0.091 C 
ENDROOT
BRANCH   1   7
ATOM      7  O   LIG d   1      -4.597  74.424 117.154  0.00  0.00    -0.368 OA
BRANCH   7   8
ATOM      8  C   LIG d   1      -5.921  74.186 116.616  0.00  0.00     0.119 C 
BRANCH   8   9
ATOM      9  C   LIG d   1      -6.937  74.475 117.738  0.00  0.00     0.028 C 
ATOM     10  C   LIG d   1      -7.474  75.915 117.687  0.00  0.00     0.006 C 
ENDBRANCH   8   9
BRANCH   8  11
ATOM     11  C   LIG d   1      -6.120  72.710 116.259  0.00  0.00     0.028 C 
ATOM     12  C   LIG d   1      -6.616  71.871 117.447  0.00  0.00     0.006 C 
ENDBRANCH   8  11
ENDBRANCH   7   8
ENDBRANCH   1   7
BRANCH   6  13
ATOM     13  N   LIG d   1      -1.789  75.271 117.847  0.00  0.00    -0.311 N 
ATOM     14  C   LIG d   1      -0.825  74.505 118.354  0.00  0.00     0.210 C 
ATOM     15  C   LIG d   1      -0.417  74.844 119.791  0.00  0.00     0.109 C 
ATOM     16  O   LIG d   1      -0.245  73.598 117.738  0.00  0.00    -0.276 OA
ATOM     17  H   LIG d   1      -2.181  76.004 118.405  0.00  0.00     0.149 HD
ENDBRANCH   6  13
BRANCH   5  18
ATOM     18  N   LIG d   1      -0.167  75.511 115.269  0.00  0.00     0.381 N 
ATOM     19  H   LIG d   1       0.240  75.977 114.484  0.00  0.00    -0.090 HD
ATOM     20  H   LIG d   1      -0.138  74.521 115.098  0.00  0.00    -0.090 HD
ATOM     21  H   LIG d   1       0.345  75.728 116.096  0.00  0.00    -0.090 HD
ENDBRANCH   5  18
BRANCH   3  22
ATOM     22  C   LIG d   1      -4.249  76.495 112.966  0.00  0.00     0.382 C 
ATOM     23  O   LIG d   1      -5.335  76.004 112.573  0.00  0.00    -0.241 OA
ATOM     24  O   LIG d   1      -3.708  77.398 112.300  0.00  0.00    -0.241 OA
ENDBRANCH   3  22
TORSDOF 7
ENDMDL
MODEL 4
REMARK VINA RESULT:      -5.4      2.946      3.962
REMARK  7 active torsions:
REMARK  status: ('A' for Active; 'I' for Inactive)
REMARK    1  A    between atoms: C_2  and  C_3 
REMARK    2  A    between atoms: C_3  and  O_6 
REMARK    3  A    between atoms: C_3  and  C_4 
REMARK    4  A    between atoms: C_7  and  O_6 
REMARK    5  A    between atoms: C_9  and  C_10 
REMARK    6  A    between atoms: N_15  and  C_14 
REMARK    7  A    between atoms: N_20  and  C_19 
REMARK       I    between atoms: C_22  and  N_20 
ROOT
ATOM      1  C   LIG d   1       3.506  84.969 113.102  0.00  0.00     0.161 C 
ATOM      2  C   LIG d   1       4.054  86.228 113.404  0.00  0.00     0.016 C 
ATOM      3  C   LIG d   1       3.651  87.424 112.768  0.00  0.00     0.038 C 
ATOM      4  C   LIG d   1       2.560  87.465 111.887  0.00  0.00     0.028 C 
ATOM      5  C   LIG d   1       2.308  86.142 111.173  0.00  0.00    -0.047 C 
ATOM      6  C   LIG d   1       2.238  85.010 112.224  0.00  0.00     0.091 C 
ENDROOT
BRANCH   1   7
ATOM      7  O   LIG d   1       3.250  84.243 114.320  0.00  0.00    -0.368 OA
BRANCH   7   8
ATOM      8  C   LIG d   1       3.074  85.043 115.514  0.00  0.00     0.119 C 
BRANCH   8   9
ATOM      9  C   LIG d   1       3.653  84.243 116.697  0.00  0.00     0.028 C 
ATOM     10  C   LIG d   1       2.773  83.041 117.079  0.00  0.00     0.006 C 
ENDBRANCH   8   9
BRANCH   8  11
ATOM     11  C   LIG d   1       1.591  85.236 115.843  0.00  0.00     0.028 C 
ATOM     12  C   LIG d   1       1.110  86.676 115.605  0.00  0.00     0.006 C 
ENDBRANCH   8  11
ENDBRANCH   7   8
ENDBRANCH   1   7
BRANCH   6  13
ATOM     13  N   LIG d   1       2.078  83.669 111.603  0.00  0.00    -0.311 N 
ATOM     14  C   LIG d   1       1.111  82.816 111.939  0.00  0.00     0.210 C 
ATOM     15  C   LIG d   1       1.139  81.480 111.191  0.00  0.00     0.109 C 
ATOM     16  O   LIG d   1       0.215  83.052 112.762  0.00  0.00    -0.276 OA
ATOM     17  H   LIG d   1       2.744  83.408 110.903  0.00  0.00     0.149 HD
ENDBRANCH   6  13
BRANCH   5  18
ATOM     18  N   LIG d   1       1.063  86.285 110.395  0.00  0.00     0.381 N 
ATOM     19  H   LIG d   1       0.961  87.233 110.091  0.00  0.00    -0.090 HD
ATOM     20  H   LIG d   1       0.283  86.056 110.984  0.00  0.00    -0.090 HD
ATOM     21  H   LIG d   1       1.083  85.677 109.606  0.00  0.00    -0.090 HD
ENDBRANCH   5  18
BRANCH   3  22
ATOM     22  C   LIG d   1       4.369  88.591 112.981  0.00  0.00     0.382 C 
ATOM     23  O   LIG d   1       3.793  89.608 113.437  0.00  0.00    -0.241 OA
ATOM     24  O   LIG d   1       5.577  88.653 112.682  0.00  0.00    -0.241 OA
ENDBRANCH   3  22
TORSDOF 7
ENDMDL
MODEL 5
REMARK VINA RESULT:      -5.4      3.584      5.290
REMARK  7 active torsions:
REMARK  status: ('A' for Active; 'I' for Inactive)
REMARK    1  A    between atoms: C_2  and  C_3 
REMARK    2  A    between atoms: C_3  and  O_6 
REMARK    3  A    between atoms: C_3  and  C_4 
REMARK    4  A    between atoms: C_7  and  O_6 
REMARK    5  A    between atoms: C_9  and  C_10 
REMARK    6  A    between atoms: N_15  and  C_14 
REMARK    7  A    between atoms: N_20  and  C_19 
REMARK       I    between atoms: C_22  and  N_20 
ROOT
ATOM      1  C   LIG d   1       1.760  84.117 113.402  0.00  0.00     0.161 C 
ATOM      2  C   LIG d   1       2.306  85.409 113.322  0.00  0.00     0.016 C 
ATOM      3  C   LIG d   1       1.920  86.359 112.350  0.00  0.00     0.038 C 
ATOM      4  C   LIG d   1       0.844  86.132 111.478  0.00  0.00     0.028 C 
ATOM      5  C   LIG d   1       0.599  84.655 111.190  0.00  0.00    -0.047 C 
ATOM      6  C   LIG d   1       0.506  83.891 112.531  0.00  0.00     0.091 C 
ENDROOT
BRANCH   1   7
ATOM      7  O   LIG d   1       1.479  83.789 114.777  0.00  0.00    -0.368 OA
BRANCH   7   8
ATOM      8  C   LIG d   1       2.268  84.487 115.772  0.00  0.00     0.119 C 
BRANCH   8   9
ATOM      9  C   LIG d   1       2.970  83.423 116.637  0.00  0.00     0.028 C 
ATOM     10  C   LIG d   1       2.103  82.962 117.821  0.00  0.00     0.006 C 
ENDBRANCH   8   9
BRANCH   8  11
ATOM     11  C   LIG d   1       1.376  85.272 116.740  0.00  0.00     0.028 C 
ATOM     12  C   LIG d   1       1.563  86.793 116.622  0.00  0.00     0.006 C 
ENDBRANCH   8  11
ENDBRANCH   7   8
ENDBRANCH   1   7
BRANCH   6  13
ATOM     13  N   LIG d   1       0.351  82.425 112.338  0.00  0.00    -0.311 N 
ATOM     14  C   LIG d   1      -0.830  81.823 112.216  0.00  0.00     0.210 C 
ATOM     15  C   LIG d   1      -0.766  80.302 112.045  0.00  0.00     0.109 C 
ATOM     16  O   LIG d   1      -1.924  82.407 112.199  0.00  0.00    -0.276 OA
ATOM     17  H   LIG d   1       1.189  81.878 112.308  0.00  0.00     0.149 HD
ENDBRANCH   6  13
BRANCH   5  18
ATOM     18  N   LIG d   1      -0.632  84.556 110.383  0.00  0.00     0.381 N 
ATOM     19  H   LIG d   1      -0.429  84.114 109.509  0.00  0.00    -0.090 HD
ATOM     20  H   LIG d   1      -0.973  85.483 110.195  0.00  0.00    -0.090 HD
ATOM     21  H   LIG d   1      -1.322  84.034 110.876  0.00  0.00    -0.090 HD
ENDBRANCH   5  18
BRANCH   3  22
ATOM     22  C   LIG d   1       2.639  87.537 112.215  0.00  0.00     0.382 C 
ATOM     23  O   LIG d   1       2.068  88.642 112.380  0.00  0.00    -0.241 OA
ATOM     24  O   LIG d   1       3.840  87.509 111.888  0.00  0.00    -0.241 OA
ENDBRANCH   3  22
TORSDOF 7
ENDMDL
MODEL 6
REMARK VINA RESULT:      -5.2      3.064      6.252
REMARK  7 active torsions:
REMARK  status: ('A' for Active; 'I' for Inactive)
REMARK    1  A    between atoms: C_2  and  C_3 
REMARK    2  A    between atoms: C_3  and  O_6 
REMARK    3  A    between atoms: C_3  and  C_4 
REMARK    4  A    between atoms: C_7  and  O_6 
REMARK    5  A    between atoms: C_9  and  C_10 
REMARK    6  A    between atoms: N_15  and  C_14 
REMARK    7  A    between atoms: N_20  and  C_19 
REMARK       I    between atoms: C_22  and  N_20 
ROOT
ATOM      1  C   LIG d   1       1.730  84.528 113.580  0.00  0.00     0.161 C 
ATOM      2  C   LIG d   1       0.910  83.455 113.192  0.00  0.00     0.016 C 
ATOM      3  C   LIG d   1       0.333  83.343 111.906  0.00  0.00     0.038 C 
ATOM      4  C   LIG d   1       0.661  84.226 110.866  0.00  0.00     0.028 C 
ATOM      5  C   LIG d   1       1.086  85.606 111.355  0.00  0.00    -0.047 C 
ATOM      6  C   LIG d   1       2.190  85.442 112.425  0.00  0.00     0.091 C 
ENDROOT
BRANCH   1   7
ATOM      7  O   LIG d   1       2.870  84.032 114.310  0.00  0.00    -0.368 OA
BRANCH   7   8
ATOM      8  C   LIG d   1       2.937  84.397 115.711  0.00  0.00     0.119 C 
BRANCH   8   9
ATOM      9  C   LIG d   1       4.382  84.844 116.004  0.00  0.00     0.028 C 
ATOM     10  C   LIG d   1       4.507  86.371 116.143  0.00  0.00     0.006 C 
ENDBRANCH   8   9
BRANCH   8  11
ATOM     11  C   LIG d   1       2.697  83.184 116.615  0.00  0.00     0.028 C 
ATOM     12  C   LIG d   1       3.503  83.246 117.922  0.00  0.00     0.006 C 
ENDBRANCH   8  11
ENDBRANCH   7   8
ENDBRANCH   1   7
BRANCH   6  13
ATOM     13  N   LIG d   1       2.603  86.741 113.017  0.00  0.00    -0.311 N 
ATOM     14  C   LIG d   1       3.673  87.423 112.613  0.00  0.00     0.210 C 
ATOM     15  C   LIG d   1       3.931  88.729 113.370  0.00  0.00     0.109 C 
ATOM     16  O   LIG d   1       4.414  87.087 111.677  0.00  0.00    -0.276 OA
ATOM     17  H   LIG d   1       2.040  87.103 113.761  0.00  0.00     0.149 HD
ENDBRANCH   6  13
BRANCH   5  18
ATOM     18  N   LIG d   1       1.532  86.378 110.179  0.00  0.00     0.381 N 
ATOM     19  H   LIG d   1       1.151  85.975 109.346  0.00  0.00    -0.090 HD
ATOM     20  H   LIG d   1       2.534  86.333 110.122  0.00  0.00    -0.090 HD
ATOM     21  H   LIG d   1       1.238  87.326 110.263  0.00  0.00    -0.090 HD
ENDBRANCH   5  18
BRANCH   3  22
ATOM     22  C   LIG d   1      -0.616  82.362 111.662  0.00  0.00     0.382 C 
ATOM     23  O   LIG d   1      -1.747  82.436 112.199  0.00  0.00    -0.241 OA
ATOM     24  O   LIG d   1      -0.339  81.380 110.947  0.00  0.00    -0.241 OA
ENDBRANCH   3  22
TORSDOF 7
ENDMDL
MODEL 7
REMARK VINA RESULT:      -5.1      2.743      3.846
REMARK  7 active torsions:
REMARK  status: ('A' for Active; 'I' for Inactive)
REMARK    1  A    between atoms: C_2  and  C_3 
REMARK    2  A    between atoms: C_3  and  O_6 
REMARK    3  A    between atoms: C_3  and  C_4 
REMARK    4  A    between atoms: C_7  and  O_6 
REMARK    5  A    between atoms: C_9  and  C_10 
REMARK    6  A    between atoms: N_15  and  C_14 
REMARK    7  A    between atoms: N_20  and  C_19 
REMARK       I    between atoms: C_22  and  N_20 
ROOT
ATOM      1  C   LIG d   1       1.904  87.012 115.022  0.00  0.00     0.161 C 
ATOM      2  C   LIG d   1       0.925  86.731 115.989  0.00  0.00     0.016 C 
ATOM      3  C   LIG d   1       0.922  87.302 117.282  0.00  0.00     0.038 C 
ATOM      4  C   LIG d   1       1.819  88.318 117.646  0.00  0.00     0.028 C 
ATOM      5  C   LIG d   1       3.134  88.269 116.876  0.00  0.00    -0.047 C 
ATOM      6  C   LIG d   1       2.826  88.202 115.362  0.00  0.00     0.091 C 
ENDROOT
BRANCH   1   7
ATOM      7  O   LIG d   1       1.279  87.215 113.739  0.00  0.00    -0.368 OA
BRANCH   7   8
ATOM      8  C   LIG d   1       1.349  86.102 112.813  0.00  0.00     0.119 C 
BRANCH   8   9
ATOM      9  C   LIG d   1       2.068  86.600 111.545  0.00  0.00     0.028 C 
ATOM     10  C   LIG d   1       3.510  86.074 111.443  0.00  0.00     0.006 C 
ENDBRANCH   8   9
BRANCH   8  11
ATOM     11  C   LIG d   1      -0.047  85.676 112.348  0.00  0.00     0.028 C 
ATOM     12  C   LIG d   1      -0.714  86.718 111.435  0.00  0.00     0.006 C 
ENDBRANCH   8  11
ENDBRANCH   7   8
ENDBRANCH   1   7
BRANCH   6  13
ATOM     13  N   LIG d   1       4.057  88.066 114.539  0.00  0.00    -0.311 N 
ATOM     14  C   LIG d   1       4.467  88.994 113.677  0.00  0.00     0.210 C 
ATOM     15  C   LIG d   1       5.750  88.647 112.915  0.00  0.00     0.109 C 
ATOM     16  O   LIG d   1       3.908  90.086 113.493  0.00  0.00    -0.276 OA
ATOM     17  H   LIG d   1       4.588  87.225 114.648  0.00  0.00     0.149 HD
ENDBRANCH   6  13
BRANCH   5  18
ATOM     18  N   LIG d   1       3.916  89.461 117.254  0.00  0.00     0.381 N 
ATOM     19  H   LIG d   1       4.886  89.223 117.318  0.00  0.00    -0.090 HD
ATOM     20  H   LIG d   1       3.609  89.779 118.156  0.00  0.00    -0.090 HD
ATOM     21  H   LIG d   1       3.788  90.182 116.578  0.00  0.00    -0.090 HD
ENDBRANCH   5  18
BRANCH   3  22
ATOM     22  C   LIG d   1       0.038  86.829 118.241  0.00  0.00     0.382 C 
ATOM     23  O   LIG d   1       0.142  85.652 118.662  0.00  0.00    -0.241 OA
ATOM     24  O   LIG d   1      -0.888  87.551 118.657  0.00  0.00    -0.241 OA
ENDBRANCH   3  22
TORSDOF 7
ENDMDL
MODEL 8
REMARK VINA RESULT:      -5.1      2.926      4.687
REMARK  7 active torsions:
REMARK  status: ('A' for Active; 'I' for Inactive)
REMARK    1  A    between atoms: C_2  and  C_3 
REMARK    2  A    between atoms: C_3  and  O_6 
REMARK    3  A    between atoms: C_3  and  C_4 
REMARK    4  A    between atoms: C_7  and  O_6 
REMARK    5  A    between atoms: C_9  and  C_10 
REMARK    6  A    between atoms: N_15  and  C_14 
REMARK    7  A    between atoms: N_20  and  C_19 
REMARK       I    between atoms: C_22  and  N_20 
ROOT
ATOM      1  C   LIG d   1       1.525  85.262 114.436  0.00  0.00     0.161 C 
ATOM      2  C   LIG d   1       1.977  86.287 113.588  0.00  0.00     0.016 C 
ATOM      3  C   LIG d   1       3.225  86.934 113.745  0.00  0.00     0.038 C 
ATOM      4  C   LIG d   1       4.176  86.492 114.676  0.00  0.00     0.028 C 
ATOM      5  C   LIG d   1       3.563  85.792 115.884  0.00  0.00    -0.047 C 
ATOM      6  C   LIG d   1       2.597  84.692 115.388  0.00  0.00     0.091 C 
ENDROOT
BRANCH   1   7
ATOM      7  O   LIG d   1       0.936  84.205 113.653  0.00  0.00    -0.368 OA
BRANCH   7   8
ATOM      8  C   LIG d   1       1.004  84.362 112.215  0.00  0.00     0.119 C 
BRANCH   8   9
ATOM      9  C   LIG d   1      -0.441  84.358 111.680  0.00  0.00     0.028 C 
ATOM     10  C   LIG d   1      -0.669  85.427 110.598  0.00  0.00     0.006 C 
ENDBRANCH   8   9
BRANCH   8  11
ATOM     11  C   LIG d   1       1.685  83.160 111.554  0.00  0.00     0.028 C 
ATOM     12  C   LIG d   1       3.053  83.509 110.947  0.00  0.00     0.006 C 
ENDBRANCH   8  11
ENDBRANCH   7   8
ENDBRANCH   1   7
BRANCH   6  13
ATOM     13  N   LIG d   1       1.889  84.014 116.506  0.00  0.00    -0.311 N 
ATOM     14  C   LIG d   1       2.061  82.728 116.809  0.00  0.00     0.210 C 
ATOM     15  C   LIG d   1       1.220  82.224 117.986  0.00  0.00     0.109 C 
ATOM     16  O   LIG d   1       2.854  81.966 116.236  0.00  0.00    -0.276 OA
ATOM     17  H   LIG d   1       1.250  84.566 117.044  0.00  0.00     0.149 HD
ENDBRANCH   6  13
BRANCH   5  18
ATOM     18  N   LIG d   1       4.670  85.263 116.702  0.00  0.00     0.381 N 
ATOM     19  H   LIG d   1       4.505  84.299 116.913  0.00  0.00    -0.090 HD
ATOM     20  H   LIG d   1       4.708  85.774 117.567  0.00  0.00    -0.090 HD
ATOM     21  H   LIG d   1       5.533  85.360 116.213  0.00  0.00    -0.090 HD
ENDBRANCH   5  18
BRANCH   3  22
ATOM     22  C   LIG d   1       3.514  88.061 112.991  0.00  0.00     0.382 C 
ATOM     23  O   LIG d   1       2.628  88.927 112.792  0.00  0.00    -0.241 OA
ATOM     24  O   LIG d   1       4.637  88.201 112.469  0.00  0.00    -0.241 OA
ENDBRANCH   3  22
TORSDOF 7
ENDMDL
MODEL 9
REMARK VINA RESULT:      -5.1     10.883     13.712
REMARK  7 active torsions:
REMARK  status: ('A' for Active; 'I' for Inactive)
REMARK    1  A    between atoms: C_2  and  C_3 
REMARK    2  A    between atoms: C_3  and  O_6 
REMARK    3  A    between atoms: C_3  and  C_4 
REMARK    4  A    between atoms: C_7  and  O_6 
REMARK    5  A    between atoms: C_9  and  C_10 
REMARK    6  A    between atoms: N_15  and  C_14 
REMARK    7  A    between atoms: N_20  and  C_19 
REMARK       I    between atoms: C_22  and  N_20 
ROOT
ATOM      1  C   LIG d   1      -2.784  76.288 116.999  0.00  0.00     0.161 C 
ATOM      2  C   LIG d   1      -2.805  77.391 116.129  0.00  0.00     0.016 C 
ATOM      3  C   LIG d   1      -1.967  77.504 114.996  0.00  0.00     0.038 C 
ATOM      4  C   LIG d   1      -1.152  76.445 114.568  0.00  0.00     0.028 C 
ATOM      5  C   LIG d   1      -0.726  75.514 115.698  0.00  0.00    -0.047 C 
ATOM      6  C   LIG d   1      -1.981  75.075 116.486  0.00  0.00     0.091 C 
ENDROOT
BRANCH   1   7
ATOM      7  O   LIG d   1      -4.133  75.896 117.323  0.00  0.00    -0.368 OA
BRANCH   7   8
ATOM      8  C   LIG d   1      -4.716  74.869 116.484  0.00  0.00     0.119 C 
BRANCH   8   9
ATOM      9  C   LIG d   1      -5.608  75.572 115.443  0.00  0.00     0.028 C 
ATOM     10  C   LIG d   1      -5.113  75.353 114.003  0.00  0.00     0.006 C 
ENDBRANCH   8   9
BRANCH   8  11
ATOM     11  C   LIG d   1      -5.662  73.967 117.284  0.00  0.00     0.028 C 
ATOM     12  C   LIG d   1      -6.198  72.786 116.459  0.00  0.00     0.006 C 
ENDBRANCH   8  11
ENDBRANCH   7   8
ENDBRANCH   1   7
BRANCH   6  13
ATOM     13  N   LIG d   1      -1.645  74.229 117.661  0.00  0.00    -0.311 N 
ATOM     14  C   LIG d   1      -0.792  74.602 118.614  0.00  0.00     0.210 C 
ATOM     15  C   LIG d   1      -0.573  73.572 119.726  0.00  0.00     0.109 C 
ATOM     16  O   LIG d   1      -0.220  75.702 118.660  0.00  0.00    -0.276 OA
ATOM     17  H   LIG d   1      -2.088  73.333 117.720  0.00  0.00     0.149 HD
ENDBRANCH   6  13
BRANCH   5  18
ATOM     18  N   LIG d   1       0.002  74.382 115.093  0.00  0.00     0.381 N 
ATOM     19  H   LIG d   1      -0.573  73.940 114.404  0.00  0.00    -0.090 HD
ATOM     20  H   LIG d   1       0.210  73.709 115.809  0.00  0.00    -0.090 HD
ATOM     21  H   LIG d   1       0.846  74.705 114.674  0.00  0.00    -0.090 HD
ENDBRANCH   5  18
BRANCH   3  22
ATOM     22  C   LIG d   1      -1.909  78.702 114.300  0.00  0.00     0.382 C 
ATOM     23  O   LIG d   1      -0.934  79.474 114.461  0.00  0.00    -0.241 OA
ATOM     24  O   LIG d   1      -2.842  79.040 113.547  0.00  0.00    -0.241 OA
ENDBRANCH   3  22
TORSDOF 7
ENDMDL
