MODEL 1
REMARK VINA RESULT:      -5.9      0.000      0.000
REMARK  7 active torsions:
REMARK  status: ('A' for Active; 'I' for Inactive)
REMARK    1  A    between atoms: C_2  and  C_3 
REMARK    2  A    between atoms: C_3  and  O_6 
REMARK    3  A    between atoms: C_3  and  C_4 
REMARK    4  A    between atoms: C_7  and  O_6 
REMARK    5  A    between atoms: C_9  and  C_10 
REMARK    6  A    between atoms: N_15  and  C_14 
REMARK    7  A    between atoms: N_20  and  C_19 
REMARK       I    between atoms: C_22  and  N_20 
ROOT
ATOM      1  C   LIG d   1       3.044  85.619 111.987  0.00  0.00     0.161 C 
ATOM      2  C   LIG d   1       3.733  86.836 112.116  0.00  0.00     0.016 C 
ATOM      3  C   LIG d   1       3.902  87.508 113.348  0.00  0.00     0.038 C 
ATOM      4  C   LIG d   1       3.522  86.928 114.567  0.00  0.00     0.028 C 
ATOM      5  C   LIG d   1       2.373  85.934 114.432  0.00  0.00    -0.047 C 
ATOM      6  C   LIG d   1       2.719  84.916 113.322  0.00  0.00     0.091 C 
ENDROOT
BRANCH   1   7
ATOM      7  O   LIG d   1       3.778  84.732 111.119  0.00  0.00    -0.368 OA
BRANCH   7   8
ATOM      8  C   LIG d   1       3.236  84.551 109.788  0.00  0.00     0.119 C 
BRANCH   8   9
ATOM      9  C   LIG d   1       1.849  85.221 109.757  0.00  0.00     0.028 C 
ATOM     10  C   LIG d   1       0.705  84.199 109.646  0.00  0.00     0.006 C 
ENDBRANCH   8   9
BRANCH   8  11
ATOM     11  C   LIG d   1       2.977  83.071 109.488  0.00  0.00     0.028 C 
ATOM     12  C   LIG d   1       4.217  82.191 109.717  0.00  0.00     0.006 C 
ENDBRANCH   8  11
ENDBRANCH   7   8
ENDBRANCH   1   7
BRANCH   6  13
ATOM     13  N   LIG d   1       1.612  83.958 113.067  0.00  0.00    -0.311 N 
ATOM     14  C   LIG d   1       1.795  82.645 112.934  0.00  0.00     0.210 C 
ATOM     15  C   LIG d   1       0.521  81.840 112.655  0.00  0.00     0.109 C 
ATOM     16  O   LIG d   1       2.886  82.067 113.051  0.00  0.00    -0.276 OA
ATOM     17  H   LIG d   1       0.689  84.337 112.988  0.00  0.00     0.149 HD
ENDBRANCH   6  13
BRANCH   5  18
ATOM     18  N   LIG d   1       2.172  85.304 115.751  0.00  0.00     0.381 N 
ATOM     19  H   LIG d   1       2.045  86.011 116.448  0.00  0.00    -0.090 HD
ATOM     20  H   LIG d   1       2.992  84.773 115.986  0.00  0.00    -0.090 HD
ATOM     21  H   LIG d   1       1.375  84.707 115.726  0.00  0.00    -0.090 HD
ENDBRANCH   5  18
BRANCH   3  22
ATOM     22  C   LIG d   1       4.422  88.794 113.364  0.00  0.00     0.382 C 
ATOM     23  O   LIG d   1       3.668  89.773 113.581  0.00  0.00    -0.241 OA
ATOM     24  O   LIG d   1       5.628  88.990 113.121  0.00  0.00    -0.241 OA
ENDBRANCH   3  22
TORSDOF 7
ENDMDL
MODEL 2
REMARK VINA RESULT:      -5.9      3.235      6.431
REMARK  7 active torsions:
REMARK  status: ('A' for Active; 'I' for Inactive)
REMARK    1  A    between atoms: C_2  and  C_3 
REMARK    2  A    between atoms: C_3  and  O_6 
REMARK    3  A    between atoms: C_3  and  C_4 
REMARK    4  A    between atoms: C_7  and  O_6 
REMARK    5  A    between atoms: C_9  and  C_10 
REMARK    6  A    between atoms: N_15  and  C_14 
REMARK    7  A    between atoms: N_20  and  C_19 
REMARK       I    between atoms: C_22  and  N_20 
ROOT
ATOM      1  C   LIG d   1       0.671  82.716 111.830  0.00  0.00     0.161 C 
ATOM      2  C   LIG d   1      -0.573  82.338 112.361  0.00  0.00     0.016 C 
ATOM      3  C   LIG d   1      -1.109  81.035 112.238  0.00  0.00     0.038 C 
ATOM      4  C   LIG d   1      -0.363  79.975 111.702  0.00  0.00     0.028 C 
ATOM      5  C   LIG d   1       0.695  80.424 110.700  0.00  0.00    -0.047 C 
ATOM      6  C   LIG d   1       1.547  81.545 111.339  0.00  0.00     0.091 C 
ENDROOT
BRANCH   1   7
ATOM      7  O   LIG d   1       1.391  83.512 112.791  0.00  0.00    -0.368 OA
BRANCH   7   8
ATOM      8  C   LIG d   1       1.374  84.945 112.573  0.00  0.00     0.119 C 
BRANCH   8   9
ATOM      9  C   LIG d   1       0.814  85.191 111.159  0.00  0.00     0.028 C 
ATOM     10  C   LIG d   1      -0.288  86.264 111.143  0.00  0.00     0.006 C 
ENDBRANCH   8   9
BRANCH   8  11
ATOM     11  C   LIG d   1       2.792  85.523 112.554  0.00  0.00     0.028 C 
ATOM     12  C   LIG d   1       3.401  85.561 111.144  0.00  0.00     0.006 C 
ENDBRANCH   8  11
ENDBRANCH   7   8
ENDBRANCH   1   7
BRANCH   6  13
ATOM     13  N   LIG d   1       2.553  82.099 110.396  0.00  0.00    -0.311 N 
ATOM     14  C   LIG d   1       3.819  81.689 110.348  0.00  0.00     0.210 C 
ATOM     15  C   LIG d   1       4.694  82.407 109.316  0.00  0.00     0.109 C 
ATOM     16  O   LIG d   1       4.292  80.775 111.041  0.00  0.00    -0.276 OA
ATOM     17  H   LIG d   1       2.246  82.823 109.776  0.00  0.00     0.149 HD
ENDBRANCH   6  13
BRANCH   5  18
ATOM     18  N   LIG d   1       1.487  79.237 110.327  0.00  0.00     0.381 N 
ATOM     19  H   LIG d   1       0.955  78.654 109.713  0.00  0.00    -0.090 HD
ATOM     20  H   LIG d   1       1.698  78.712 111.157  0.00  0.00    -0.090 HD
ATOM     21  H   LIG d   1       2.332  79.518 109.880  0.00  0.00    -0.090 HD
ENDBRANCH   5  18
BRANCH   3  22
ATOM     22  C   LIG d   1      -2.420  80.792 112.618  0.00  0.00     0.382 C 
ATOM     23  O   LIG d   1      -3.143  81.738 113.016  0.00  0.00    -0.241 OA
ATOM     24  O   LIG d   1      -2.876  79.633 112.611  0.00  0.00    -0.241 OA
ENDBRANCH   3  22
TORSDOF 7
ENDMDL
MODEL 3
REMARK VINA RESULT:      -5.7      6.925      9.954
REMARK  7 active torsions:
REMARK  status: ('A' for Active; 'I' for Inactive)
REMARK    1  A    between atoms: C_2  and  C_3 
REMARK    2  A    between atoms: C_3  and  O_6 
REMARK    3  A    between atoms: C_3  and  C_4 
REMARK    4  A    between atoms: C_7  and  O_6 
REMARK    5  A    between atoms: C_9  and  C_10 
REMARK    6  A    between atoms: N_15  and  C_14 
REMARK    7  A    between atoms: N_20  and  C_19 
REMARK       I    between atoms: C_22  and  N_20 
ROOT
ATOM      1  C   LIG d   1      -2.580  78.038 114.552  0.00  0.00     0.161 C 
ATOM      2  C   LIG d   1      -2.843  79.203 113.813  0.00  0.00     0.016 C 
ATOM      3  C   LIG d   1      -1.865  80.185 113.534  0.00  0.00     0.038 C 
ATOM      4  C   LIG d   1      -0.512  79.995 113.850  0.00  0.00     0.028 C 
ATOM      5  C   LIG d   1      -0.293  79.067 115.040  0.00  0.00    -0.047 C 
ATOM      6  C   LIG d   1      -1.084  77.759 114.810  0.00  0.00     0.091 C 
ENDROOT
BRANCH   1   7
ATOM      7  O   LIG d   1      -3.198  76.903 113.913  0.00  0.00    -0.368 OA
BRANCH   7   8
ATOM      8  C   LIG d   1      -4.398  76.392 114.544  0.00  0.00     0.119 C 
BRANCH   8   9
ATOM      9  C   LIG d   1      -4.519  77.067 115.924  0.00  0.00     0.028 C 
ATOM     10  C   LIG d   1      -5.878  77.760 116.121  0.00  0.00     0.006 C 
ENDBRANCH   8   9
BRANCH   8  11
ATOM     11  C   LIG d   1      -4.278  74.893 114.836  0.00  0.00     0.028 C 
ATOM     12  C   LIG d   1      -5.585  74.283 115.366  0.00  0.00     0.006 C 
ENDBRANCH   8  11
ENDBRANCH   7   8
ENDBRANCH   1   7
BRANCH   6  13
ATOM     13  N   LIG d   1      -0.992  76.829 115.966  0.00  0.00    -0.311 N 
ATOM     14  C   LIG d   1      -0.789  75.519 115.838  0.00  0.00     0.210 C 
ATOM     15  C   LIG d   1      -0.748  74.740 117.157  0.00  0.00     0.109 C 
ATOM     16  O   LIG d   1      -0.607  74.933 114.760  0.00  0.00    -0.276 OA
ATOM     17  H   LIG d   1      -1.098  77.226 116.879  0.00  0.00     0.149 HD
ENDBRANCH   6  13
BRANCH   5  18
ATOM     18  N   LIG d   1       1.160  78.847 115.173  0.00  0.00     0.381 N 
ATOM     19  H   LIG d   1       1.378  78.581 116.112  0.00  0.00    -0.090 HD
ATOM     20  H   LIG d   1       1.639  79.707 114.969  0.00  0.00    -0.090 HD
ATOM     21  H   LIG d   1       1.456  78.136 114.541  0.00  0.00    -0.090 HD
ENDBRANCH   5  18
BRANCH   3  22
ATOM     22  C   LIG d   1      -2.246  81.392 112.968  0.00  0.00     0.382 C 
ATOM     23  O   LIG d   1      -1.425  82.339 112.901  0.00  0.00    -0.241 OA
ATOM     24  O   LIG d   1      -3.412  81.561 112.564  0.00  0.00    -0.241 OA
ENDBRANCH   3  22
TORSDOF 7
ENDMDL
MODEL 4
REMARK VINA RESULT:      -5.7      2.194      2.690
REMARK  7 active torsions:
REMARK  status: ('A' for Active; 'I' for Inactive)
REMARK    1  A    between atoms: C_2  and  C_3 
REMARK    2  A    between atoms: C_3  and  O_6 
REMARK    3  A    between atoms: C_3  and  C_4 
REMARK    4  A    between atoms: C_7  and  O_6 
REMARK    5  A    between atoms: C_9  and  C_10 
REMARK    6  A    between atoms: N_15  and  C_14 
REMARK    7  A    between atoms: N_20  and  C_19 
REMARK       I    between atoms: C_22  and  N_20 
ROOT
ATOM      1  C   LIG d   1       1.849  86.197 114.252  0.00  0.00     0.161 C 
ATOM      2  C   LIG d   1       2.196  87.526 113.961  0.00  0.00     0.016 C 
ATOM      3  C   LIG d   1       3.369  88.149 114.448  0.00  0.00     0.038 C 
ATOM      4  C   LIG d   1       4.356  87.432 115.141  0.00  0.00     0.028 C 
ATOM      5  C   LIG d   1       3.811  86.219 115.888  0.00  0.00    -0.047 C 
ATOM      6  C   LIG d   1       2.968  85.366 114.913  0.00  0.00     0.091 C 
ENDROOT
BRANCH   1   7
ATOM      7  O   LIG d   1       1.379  85.542 113.057  0.00  0.00    -0.368 OA
BRANCH   7   8
ATOM      8  C   LIG d   1       1.119  86.401 111.919  0.00  0.00     0.119 C 
BRANCH   8   9
ATOM      9  C   LIG d   1      -0.372  86.255 111.560  0.00  0.00     0.028 C 
ATOM     10  C   LIG d   1      -0.582  85.714 110.136  0.00  0.00     0.006 C 
ENDBRANCH   8   9
BRANCH   8  11
ATOM     11  C   LIG d   1       1.883  85.930 110.679  0.00  0.00     0.028 C 
ATOM     12  C   LIG d   1       3.329  85.514 110.992  0.00  0.00     0.006 C 
ENDBRANCH   8  11
ENDBRANCH   7   8
ENDBRANCH   1   7
BRANCH   6  13
ATOM     13  N   LIG d   1       2.329  84.204 115.585  0.00  0.00    -0.311 N 
ATOM     14  C   LIG d   1       2.900  83.004 115.674  0.00  0.00     0.210 C 
ATOM     15  C   LIG d   1       2.060  81.941 116.390  0.00  0.00     0.109 C 
ATOM     16  O   LIG d   1       4.035  82.728 115.258  0.00  0.00    -0.276 OA
ATOM     17  H   LIG d   1       1.420  84.348 115.978  0.00  0.00     0.149 HD
ENDBRANCH   6  13
BRANCH   5  18
ATOM     18  N   LIG d   1       4.963  85.488 116.450  0.00  0.00     0.381 N 
ATOM     19  H   LIG d   1       5.808  85.984 116.251  0.00  0.00    -0.090 HD
ATOM     20  H   LIG d   1       5.017  84.584 116.014  0.00  0.00    -0.090 HD
ATOM     21  H   LIG d   1       4.853  85.384 117.435  0.00  0.00    -0.090 HD
ENDBRANCH   5  18
BRANCH   3  22
ATOM     22  C   LIG d   1       3.543  89.514 114.278  0.00  0.00     0.382 C 
ATOM     23  O   LIG d   1       4.011  89.957 113.201  0.00  0.00    -0.241 OA
ATOM     24  O   LIG d   1       3.281  90.305 115.204  0.00  0.00    -0.241 OA
ENDBRANCH   3  22
TORSDOF 7
ENDMDL
MODEL 5
REMARK VINA RESULT:      -5.7      3.152      5.915
REMARK  7 active torsions:
REMARK  status: ('A' for Active; 'I' for Inactive)
REMARK    1  A    between atoms: C_2  and  C_3 
REMARK    2  A    between atoms: C_3  and  O_6 
REMARK    3  A    between atoms: C_3  and  C_4 
REMARK    4  A    between atoms: C_7  and  O_6 
REMARK    5  A    between atoms: C_9  and  C_10 
REMARK    6  A    between atoms: N_15  and  C_14 
REMARK    7  A    between atoms: N_20  and  C_19 
REMARK       I    between atoms: C_22  and  N_20 
ROOT
ATOM      1  C   LIG d   1       1.409  82.156 112.489  0.00  0.00     0.161 C 
ATOM      2  C   LIG d   1       2.466  82.163 111.563  0.00  0.00     0.016 C 
ATOM      3  C   LIG d   1       2.502  81.337 110.417  0.00  0.00     0.038 C 
ATOM      4  C   LIG d   1       1.405  80.551 110.035  0.00  0.00     0.028 C 
ATOM      5  C   LIG d   1       0.524  80.131 111.206  0.00  0.00    -0.047 C 
ATOM      6  C   LIG d   1       0.153  81.385 112.030  0.00  0.00     0.091 C 
ENDROOT
BRANCH   1   7
ATOM      7  O   LIG d   1       1.064  83.508 112.848  0.00  0.00    -0.368 OA
BRANCH   7   8
ATOM      8  C   LIG d   1       1.637  84.552 112.023  0.00  0.00     0.119 C 
BRANCH   8   9
ATOM      9  C   LIG d   1       2.473  85.462 112.943  0.00  0.00     0.028 C 
ATOM     10  C   LIG d   1       3.511  86.290 112.165  0.00  0.00     0.006 C 
ENDBRANCH   8   9
BRANCH   8  11
ATOM     11  C   LIG d   1       0.550  85.458 111.436  0.00  0.00     0.028 C 
ATOM     12  C   LIG d   1      -0.067  84.890 110.148  0.00  0.00     0.006 C 
ENDBRANCH   8  11
ENDBRANCH   7   8
ENDBRANCH   1   7
BRANCH   6  13
ATOM     13  N   LIG d   1      -0.639  81.053 113.243  0.00  0.00    -0.311 N 
ATOM     14  C   LIG d   1      -1.970  81.076 113.279  0.00  0.00     0.210 C 
ATOM     15  C   LIG d   1      -2.587  80.719 114.635  0.00  0.00     0.109 C 
ATOM     16  O   LIG d   1      -2.699  81.326 112.307  0.00  0.00    -0.276 OA
ATOM     17  H   LIG d   1      -0.128  80.808 114.069  0.00  0.00     0.149 HD
ENDBRANCH   6  13
BRANCH   5  18
ATOM     18  N   LIG d   1      -0.653  79.435 110.652  0.00  0.00     0.381 N 
ATOM     19  H   LIG d   1      -1.084  80.005 109.951  0.00  0.00    -0.090 HD
ATOM     20  H   LIG d   1      -1.319  79.284 111.389  0.00  0.00    -0.090 HD
ATOM     21  H   LIG d   1      -0.379  78.562 110.258  0.00  0.00    -0.090 HD
ENDBRANCH   5  18
BRANCH   3  22
ATOM     22  C   LIG d   1       3.661  81.263 109.659  0.00  0.00     0.382 C 
ATOM     23  O   LIG d   1       4.146  80.144 109.364  0.00  0.00    -0.241 OA
ATOM     24  O   LIG d   1       4.253  82.301 109.306  0.00  0.00    -0.241 OA
ENDBRANCH   3  22
TORSDOF 7
ENDMDL
MODEL 6
REMARK VINA RESULT:      -5.5      4.397      8.174
REMARK  7 active torsions:
REMARK  status: ('A' for Active; 'I' for Inactive)
REMARK    1  A    between atoms: C_2  and  C_3 
REMARK    2  A    between atoms: C_3  and  O_6 
REMARK    3  A    between atoms: C_3  and  C_4 
REMARK    4  A    between atoms: C_7  and  O_6 
REMARK    5  A    between atoms: C_9  and  C_10 
REMARK    6  A    between atoms: N_15  and  C_14 
REMARK    7  A    between atoms: N_20  and  C_19 
REMARK       I    between atoms: C_22  and  N_20 
ROOT
ATOM      1  C   LIG d   1      -0.381  81.083 112.213  0.00  0.00     0.161 C 
ATOM      2  C   LIG d   1      -1.448  80.191 112.411  0.00  0.00     0.016 C 
ATOM      3  C   LIG d   1      -1.583  78.971 111.710  0.00  0.00     0.038 C 
ATOM      4  C   LIG d   1      -0.572  78.485 110.866  0.00  0.00     0.028 C 
ATOM      5  C   LIG d   1       0.286  79.586 110.253  0.00  0.00    -0.047 C 
ATOM      6  C   LIG d   1       0.788  80.518 111.379  0.00  0.00     0.091 C 
ENDROOT
BRANCH   1   7
ATOM      7  O   LIG d   1       0.098  81.562 113.486  0.00  0.00    -0.368 OA
BRANCH   7   8
ATOM      8  C   LIG d   1       0.846  80.612 114.284  0.00  0.00     0.119 C 
BRANCH   8   9
ATOM      9  C   LIG d   1      -0.056  80.180 115.456  0.00  0.00     0.028 C 
ATOM     10  C   LIG d   1      -0.187  78.651 115.563  0.00  0.00     0.006 C 
ENDBRANCH   8   9
BRANCH   8  11
ATOM     11  C   LIG d   1       2.067  81.270 114.933  0.00  0.00     0.028 C 
ATOM     12  C   LIG d   1       2.455  82.598 114.263  0.00  0.00     0.006 C 
ENDBRANCH   8  11
ENDBRANCH   7   8
ENDBRANCH   1   7
BRANCH   6  13
ATOM     13  N   LIG d   1       1.566  81.671 110.856  0.00  0.00    -0.311 N 
ATOM     14  C   LIG d   1       2.897  81.706 110.830  0.00  0.00     0.210 C 
ATOM     15  C   LIG d   1       3.499  82.998 110.269  0.00  0.00     0.109 C 
ATOM     16  O   LIG d   1       3.636  80.777 111.189  0.00  0.00    -0.276 OA
ATOM     17  H   LIG d   1       1.046  82.456 110.516  0.00  0.00     0.149 HD
ENDBRANCH   6  13
BRANCH   5  18
ATOM     18  N   LIG d   1       1.381  78.935 109.509  0.00  0.00     0.381 N 
ATOM     19  H   LIG d   1       1.058  78.657 108.604  0.00  0.00    -0.090 HD
ATOM     20  H   LIG d   1       1.668  78.112 110.008  0.00  0.00    -0.090 HD
ATOM     21  H   LIG d   1       2.150  79.562 109.417  0.00  0.00    -0.090 HD
ENDBRANCH   5  18
BRANCH   3  22
ATOM     22  C   LIG d   1      -2.757  78.242 111.818  0.00  0.00     0.382 C 
ATOM     23  O   LIG d   1      -3.437  78.302 112.871  0.00  0.00    -0.241 OA
ATOM     24  O   LIG d   1      -3.122  77.490 110.895  0.00  0.00    -0.241 OA
ENDBRANCH   3  22
TORSDOF 7
ENDMDL
MODEL 7
REMARK VINA RESULT:      -5.5      3.833      6.971
REMARK  7 active torsions:
REMARK  status: ('A' for Active; 'I' for Inactive)
REMARK    1  A    between atoms: C_2  and  C_3 
REMARK    2  A    between atoms: C_3  and  O_6 
REMARK    3  A    between atoms: C_3  and  C_4 
REMARK    4  A    between atoms: C_7  and  O_6 
REMARK    5  A    between atoms: C_9  and  C_10 
REMARK    6  A    between atoms: N_15  and  C_14 
REMARK    7  A    between atoms: N_20  and  C_19 
REMARK       I    between atoms: C_22  and  N_20 
ROOT
ATOM      1  C   LIG d   1       1.115  81.706 112.159  0.00  0.00     0.161 C 
ATOM      2  C   LIG d   1      -0.116  81.455 112.787  0.00  0.00     0.016 C 
ATOM      3  C   LIG d   1      -1.018  80.454 112.358  0.00  0.00     0.038 C 
ATOM      4  C   LIG d   1      -0.681  79.531 111.357  0.00  0.00     0.028 C 
ATOM      5  C   LIG d   1       0.341  80.065 110.359  0.00  0.00    -0.047 C 
ATOM      6  C   LIG d   1       1.550  80.636 111.136  0.00  0.00     0.091 C 
ENDROOT
BRANCH   1   7
ATOM      7  O   LIG d   1       2.141  81.895 113.153  0.00  0.00    -0.368 OA
BRANCH   7   8
ATOM      8  C   LIG d   1       2.394  83.263 113.556  0.00  0.00     0.119 C 
BRANCH   8   9
ATOM      9  C   LIG d   1       3.587  83.777 112.727  0.00  0.00     0.028 C 
ATOM     10  C   LIG d   1       3.146  84.691 111.571  0.00  0.00     0.006 C 
ENDBRANCH   8   9
BRANCH   8  11
ATOM     11  C   LIG d   1       2.854  83.338 115.016  0.00  0.00     0.028 C 
ATOM     12  C   LIG d   1       2.314  82.180 115.870  0.00  0.00     0.006 C 
ENDBRANCH   8  11
ENDBRANCH   7   8
ENDBRANCH   1   7
BRANCH   6  13
ATOM     13  N   LIG d   1       2.559  81.256 110.237  0.00  0.00    -0.311 N 
ATOM     14  C   LIG d   1       3.863  80.999 110.313  0.00  0.00     0.210 C 
ATOM     15  C   LIG d   1       4.731  81.760 109.306  0.00  0.00     0.109 C 
ATOM     16  O   LIG d   1       4.381  80.190 111.097  0.00  0.00    -0.276 OA
ATOM     17  H   LIG d   1       2.222  81.902 109.551  0.00  0.00     0.149 HD
ENDBRANCH   6  13
BRANCH   5  18
ATOM     18  N   LIG d   1       0.704  78.957 109.456  0.00  0.00     0.381 N 
ATOM     19  H   LIG d   1      -0.091  78.690 108.911  0.00  0.00    -0.090 HD
ATOM     20  H   LIG d   1       0.987  78.167 110.009  0.00  0.00    -0.090 HD
ATOM     21  H   LIG d   1       1.449  79.236 108.857  0.00  0.00    -0.090 HD
ENDBRANCH   5  18
BRANCH   3  22
ATOM     22  C   LIG d   1      -2.291  80.396 112.905  0.00  0.00     0.382 C 
ATOM     23  O   LIG d   1      -3.180  81.188 112.510  0.00  0.00    -0.241 OA
ATOM     24  O   LIG d   1      -2.549  79.592 113.821  0.00  0.00    -0.241 OA
ENDBRANCH   3  22
TORSDOF 7
ENDMDL
MODEL 8
REMARK VINA RESULT:      -5.4      2.333      4.211
REMARK  7 active torsions:
REMARK  status: ('A' for Active; 'I' for Inactive)
REMARK    1  A    between atoms: C_2  and  C_3 
REMARK    2  A    between atoms: C_3  and  O_6 
REMARK    3  A    between atoms: C_3  and  C_4 
REMARK    4  A    between atoms: C_7  and  O_6 
REMARK    5  A    between atoms: C_9  and  C_10 
REMARK    6  A    between atoms: N_15  and  C_14 
REMARK    7  A    between atoms: N_20  and  C_19 
REMARK       I    between atoms: C_22  and  N_20 
ROOT
ATOM      1  C   LIG d   1       2.314  84.279 112.691  0.00  0.00     0.161 C 
ATOM      2  C   LIG d   1       2.710  85.552 113.136  0.00  0.00     0.016 C 
ATOM      3  C   LIG d   1       2.456  86.741 112.415  0.00  0.00     0.038 C 
ATOM      4  C   LIG d   1       1.651  86.755 111.266  0.00  0.00     0.028 C 
ATOM      5  C   LIG d   1       1.655  85.432 110.508  0.00  0.00    -0.047 C 
ATOM      6  C   LIG d   1       1.338  84.286 111.496  0.00  0.00     0.091 C 
ENDROOT
BRANCH   1   7
ATOM      7  O   LIG d   1       1.757  83.530 113.789  0.00  0.00    -0.368 OA
BRANCH   7   8
ATOM      8  C   LIG d   1       2.546  82.411 114.263  0.00  0.00     0.119 C 
BRANCH   8   9
ATOM      9  C   LIG d   1       1.754  81.124 113.959  0.00  0.00     0.028 C 
ATOM     10  C   LIG d   1       1.717  80.162 115.158  0.00  0.00     0.006 C 
ENDBRANCH   8   9
BRANCH   8  11
ATOM     11  C   LIG d   1       2.700  82.443 115.786  0.00  0.00     0.028 C 
ATOM     12  C   LIG d   1       2.566  83.859 116.369  0.00  0.00     0.006 C 
ENDBRANCH   8  11
ENDBRANCH   7   8
ENDBRANCH   1   7
BRANCH   6  13
ATOM     13  N   LIG d   1       1.406  82.948 110.853  0.00  0.00    -0.311 N 
ATOM     14  C   LIG d   1       0.356  82.136 110.739  0.00  0.00     0.210 C 
ATOM     15  C   LIG d   1       0.648  80.794 110.060  0.00  0.00     0.109 C 
ATOM     16  O   LIG d   1      -0.795  82.412 111.108  0.00  0.00    -0.276 OA
ATOM     17  H   LIG d   1       2.295  82.657 110.498  0.00  0.00     0.149 HD
ENDBRANCH   6  13
BRANCH   5  18
ATOM     18  N   LIG d   1       0.671  85.542 109.415  0.00  0.00     0.381 N 
ATOM     19  H   LIG d   1       0.099  86.350 109.554  0.00  0.00    -0.090 HD
ATOM     20  H   LIG d   1       0.079  84.730 109.427  0.00  0.00    -0.090 HD
ATOM     21  H   LIG d   1       1.141  85.605 108.538  0.00  0.00    -0.090 HD
ENDBRANCH   5  18
BRANCH   3  22
ATOM     22  C   LIG d   1       3.044  87.930 112.821  0.00  0.00     0.382 C 
ATOM     23  O   LIG d   1       4.293  88.019 112.891  0.00  0.00    -0.241 OA
ATOM     24  O   LIG d   1       2.340  88.899 113.162  0.00  0.00    -0.241 OA
ENDBRANCH   3  22
TORSDOF 7
ENDMDL
MODEL 9
REMARK VINA RESULT:      -5.4      2.152      3.322
REMARK  7 active torsions:
REMARK  status: ('A' for Active; 'I' for Inactive)
REMARK    1  A    between atoms: C_2  and  C_3 
REMARK    2  A    between atoms: C_3  and  O_6 
REMARK    3  A    between atoms: C_3  and  C_4 
REMARK    4  A    between atoms: C_7  and  O_6 
REMARK    5  A    between atoms: C_9  and  C_10 
REMARK    6  A    between atoms: N_15  and  C_14 
REMARK    7  A    between atoms: N_20  and  C_19 
REMARK       I    between atoms: C_22  and  N_20 
ROOT
ATOM      1  C   LIG d   1       1.117  83.179 111.845  0.00  0.00     0.161 C 
ATOM      2  C   LIG d   1       1.654  84.378 111.348  0.00  0.00     0.016 C 
ATOM      3  C   LIG d   1       2.684  85.097 111.998  0.00  0.00     0.038 C 
ATOM      4  C   LIG d   1       3.355  84.583 113.117  0.00  0.00     0.028 C 
ATOM      5  C   LIG d   1       2.507  83.621 113.943  0.00  0.00    -0.047 C 
ATOM      6  C   LIG d   1       1.912  82.546 113.005  0.00  0.00     0.091 C 
ENDROOT
BRANCH   1   7
ATOM      7  O   LIG d   1       0.960  82.232 110.770  0.00  0.00    -0.368 OA
BRANCH   7   8
ATOM      8  C   LIG d   1       2.071  81.330 110.547  0.00  0.00     0.119 C 
BRANCH   8   9
ATOM      9  C   LIG d   1       2.833  81.831 109.305  0.00  0.00     0.028 C 
ATOM     10  C   LIG d   1       4.265  82.284 109.639  0.00  0.00     0.006 C 
ENDBRANCH   8   9
BRANCH   8  11
ATOM     11  C   LIG d   1       1.584  79.924 110.184  0.00  0.00     0.028 C 
ATOM     12  C   LIG d   1       0.201  79.602 110.772  0.00  0.00     0.006 C 
ENDBRANCH   8  11
ENDBRANCH   7   8
ENDBRANCH   1   7
BRANCH   6  13
ATOM     13  N   LIG d   1       1.001  81.613 113.719  0.00  0.00    -0.311 N 
ATOM     14  C   LIG d   1       1.397  80.449 114.230  0.00  0.00     0.210 C 
ATOM     15  C   LIG d   1       0.292  79.631 114.908  0.00  0.00     0.109 C 
ATOM     16  O   LIG d   1       2.564  80.030 114.215  0.00  0.00    -0.276 OA
ATOM     17  H   LIG d   1       0.042  81.889 113.804  0.00  0.00     0.149 HD
ENDBRANCH   6  13
BRANCH   5  18
ATOM     18  N   LIG d   1       3.371  83.057 114.996  0.00  0.00     0.381 N 
ATOM     19  H   LIG d   1       2.810  82.740 115.761  0.00  0.00    -0.090 HD
ATOM     20  H   LIG d   1       3.986  83.776 115.333  0.00  0.00    -0.090 HD
ATOM     21  H   LIG d   1       3.904  82.299 114.630  0.00  0.00    -0.090 HD
ENDBRANCH   5  18
BRANCH   3  22
ATOM     22  C   LIG d   1       3.025  86.365 111.550  0.00  0.00     0.382 C 
ATOM     23  O   LIG d   1       4.208  86.769 111.654  0.00  0.00    -0.241 OA
ATOM     24  O   LIG d   1       2.156  87.125 111.084  0.00  0.00    -0.241 OA
ENDBRANCH   3  22
TORSDOF 7
ENDMDL
