MODEL 1
REMARK VINA RESULT:      -5.9      0.000      0.000
REMARK  7 active torsions:
REMARK  status: ('A' for Active; 'I' for Inactive)
REMARK    1  A    between atoms: C_2  and  C_3 
REMARK    2  A    between atoms: C_3  and  O_6 
REMARK    3  A    between atoms: C_3  and  C_4 
REMARK    4  A    between atoms: C_7  and  O_6 
REMARK    5  A    between atoms: C_9  and  C_10 
REMARK    6  A    between atoms: N_15  and  C_14 
REMARK    7  A    between atoms: N_20  and  C_19 
REMARK       I    between atoms: C_22  and  N_20 
ROOT
ATOM      1  C   LIG d   1       1.920  84.974 112.853  0.00  0.00     0.161 C 
ATOM      2  C   LIG d   1       0.766  84.174 112.907  0.00  0.00     0.016 C 
ATOM      3  C   LIG d   1      -0.307  84.417 113.794  0.00  0.00     0.038 C 
ATOM      4  C   LIG d   1      -0.367  85.573 114.588  0.00  0.00     0.028 C 
ATOM      5  C   LIG d   1       1.006  86.141 114.934  0.00  0.00    -0.047 C 
ATOM      6  C   LIG d   1       1.825  86.302 113.632  0.00  0.00     0.091 C 
ENDROOT
BRANCH   1   7
ATOM      7  O   LIG d   1       2.277  85.224 111.479  0.00  0.00    -0.368 OA
BRANCH   7   8
ATOM      8  C   LIG d   1       1.314  84.799 110.483  0.00  0.00     0.119 C 
BRANCH   8   9
ATOM      9  C   LIG d   1       2.097  84.117 109.344  0.00  0.00     0.028 C 
ATOM     10  C   LIG d   1       3.599  84.001 109.652  0.00  0.00     0.006 C 
ENDBRANCH   8   9
BRANCH   8  11
ATOM     11  C   LIG d   1       0.618  85.999 109.834  0.00  0.00     0.028 C 
ATOM     12  C   LIG d   1      -0.900  86.009 110.076  0.00  0.00     0.006 C 
ENDBRANCH   8  11
ENDBRANCH   7   8
ENDBRANCH   1   7
BRANCH   6  13
ATOM     13  N   LIG d   1       3.210  86.773 113.889  0.00  0.00    -0.311 N 
ATOM     14  C   LIG d   1       3.675  87.948 113.468  0.00  0.00     0.210 C 
ATOM     15  C   LIG d   1       5.138  88.230 113.823  0.00  0.00     0.109 C 
ATOM     16  O   LIG d   1       3.005  88.797 112.862  0.00  0.00    -0.276 OA
ATOM     17  H   LIG d   1       3.813  86.160 114.402  0.00  0.00     0.149 HD
ENDBRANCH   6  13
BRANCH   5  18
ATOM     18  N   LIG d   1       0.794  87.416 115.645  0.00  0.00     0.381 N 
ATOM     19  H   LIG d   1      -0.128  87.757 115.460  0.00  0.00    -0.090 HD
ATOM     20  H   LIG d   1       1.455  88.091 115.305  0.00  0.00    -0.090 HD
ATOM     21  H   LIG d   1       0.917  87.284 116.625  0.00  0.00    -0.090 HD
ENDBRANCH   5  18
BRANCH   3  22
ATOM     22  C   LIG d   1      -1.319  83.478 113.922  0.00  0.00     0.382 C 
ATOM     23  O   LIG d   1      -1.503  82.900 115.021  0.00  0.00    -0.241 OA
ATOM     24  O   LIG d   1      -2.021  83.167 112.942  0.00  0.00    -0.241 OA
ENDBRANCH   3  22
TORSDOF 7
ENDMDL
MODEL 2
REMARK VINA RESULT:      -5.9      2.103      3.042
REMARK  7 active torsions:
REMARK  status: ('A' for Active; 'I' for Inactive)
REMARK    1  A    between atoms: C_2  and  C_3 
REMARK    2  A    between atoms: C_3  and  O_6 
REMARK    3  A    between atoms: C_3  and  C_4 
REMARK    4  A    between atoms: C_7  and  O_6 
REMARK    5  A    between atoms: C_9  and  C_10 
REMARK    6  A    between atoms: N_15  and  C_14 
REMARK    7  A    between atoms: N_20  and  C_19 
REMARK       I    between atoms: C_22  and  N_20 
ROOT
ATOM      1  C   LIG d   1       0.476  83.319 111.628  0.00  0.00     0.161 C 
ATOM      2  C   LIG d   1      -0.673  82.606 112.006  0.00  0.00     0.016 C 
ATOM      3  C   LIG d   1      -1.502  82.981 113.088  0.00  0.00     0.038 C 
ATOM      4  C   LIG d   1      -1.320  84.190 113.776  0.00  0.00     0.028 C 
ATOM      5  C   LIG d   1       0.121  84.688 113.757  0.00  0.00    -0.047 C 
ATOM      6  C   LIG d   1       0.628  84.702 112.297  0.00  0.00     0.091 C 
ENDROOT
BRANCH   1   7
ATOM      7  O   LIG d   1       0.521  83.449 110.194  0.00  0.00    -0.368 OA
BRANCH   7   8
ATOM      8  C   LIG d   1       1.437  82.565 109.502  0.00  0.00     0.119 C 
BRANCH   8   9
ATOM      9  C   LIG d   1       0.718  81.215 109.307  0.00  0.00     0.028 C 
ATOM     10  C   LIG d   1       1.629  80.015 109.617  0.00  0.00     0.006 C 
ENDBRANCH   8   9
BRANCH   8  11
ATOM     11  C   LIG d   1       2.664  82.250 110.362  0.00  0.00     0.028 C 
ATOM     12  C   LIG d   1       3.945  82.919 109.840  0.00  0.00     0.006 C 
ENDBRANCH   8  11
ENDBRANCH   7   8
ENDBRANCH   1   7
BRANCH   6  13
ATOM     13  N   LIG d   1       2.057  85.096 112.196  0.00  0.00    -0.311 N 
ATOM     14  C   LIG d   1       2.496  86.065 111.394  0.00  0.00     0.210 C 
ATOM     15  C   LIG d   1       4.010  86.296 111.429  0.00  0.00     0.109 C 
ATOM     16  O   LIG d   1       1.771  86.775 110.682  0.00  0.00    -0.276 OA
ATOM     17  H   LIG d   1       2.710  84.592 112.763  0.00  0.00     0.149 HD
ENDBRANCH   6  13
BRANCH   5  18
ATOM     18  N   LIG d   1       0.141  86.020 114.389  0.00  0.00     0.381 N 
ATOM     19  H   LIG d   1       0.828  86.596 113.944  0.00  0.00    -0.090 HD
ATOM     20  H   LIG d   1       0.395  85.917 115.356  0.00  0.00    -0.090 HD
ATOM     21  H   LIG d   1      -0.756  86.446 114.317  0.00  0.00    -0.090 HD
ENDBRANCH   5  18
BRANCH   3  22
ATOM     22  C   LIG d   1      -2.503  82.123 113.518  0.00  0.00     0.382 C 
ATOM     23  O   LIG d   1      -3.378  81.727 112.711  0.00  0.00    -0.241 OA
ATOM     24  O   LIG d   1      -2.567  81.775 114.712  0.00  0.00    -0.241 OA
ENDBRANCH   3  22
TORSDOF 7
ENDMDL
MODEL 3
REMARK VINA RESULT:      -5.9      3.289      6.705
REMARK  7 active torsions:
REMARK  status: ('A' for Active; 'I' for Inactive)
REMARK    1  A    between atoms: C_2  and  C_3 
REMARK    2  A    between atoms: C_3  and  O_6 
REMARK    3  A    between atoms: C_3  and  C_4 
REMARK    4  A    between atoms: C_7  and  O_6 
REMARK    5  A    between atoms: C_9  and  C_10 
REMARK    6  A    between atoms: N_15  and  C_14 
REMARK    7  A    between atoms: N_20  and  C_19 
REMARK       I    between atoms: C_22  and  N_20 
ROOT
ATOM      1  C   LIG d   1      -0.408  83.414 112.278  0.00  0.00     0.161 C 
ATOM      2  C   LIG d   1       0.398  84.362 111.625  0.00  0.00     0.016 C 
ATOM      3  C   LIG d   1       0.966  84.153 110.347  0.00  0.00     0.038 C 
ATOM      4  C   LIG d   1       0.640  83.034 109.565  0.00  0.00     0.028 C 
ATOM      5  C   LIG d   1       0.233  81.817 110.389  0.00  0.00    -0.047 C 
ATOM      6  C   LIG d   1      -0.865  82.235 111.394  0.00  0.00     0.091 C 
ENDROOT
BRANCH   1   7
ATOM      7  O   LIG d   1      -1.548  84.068 112.871  0.00  0.00    -0.368 OA
BRANCH   7   8
ATOM      8  C   LIG d   1      -1.498  84.258 114.306  0.00  0.00     0.119 C 
BRANCH   8   9
ATOM      9  C   LIG d   1      -1.116  85.728 114.565  0.00  0.00     0.028 C 
ATOM     10  C   LIG d   1       0.336  85.880 115.049  0.00  0.00     0.006 C 
ENDBRANCH   8   9
BRANCH   8  11
ATOM     11  C   LIG d   1      -0.377  83.429 114.940  0.00  0.00     0.028 C 
ATOM     12  C   LIG d   1      -0.905  82.272 115.803  0.00  0.00     0.006 C 
ENDBRANCH   8  11
ENDBRANCH   7   8
ENDBRANCH   1   7
BRANCH   6  13
ATOM     13  N   LIG d   1      -1.261  81.123 112.296  0.00  0.00    -0.311 N 
ATOM     14  C   LIG d   1      -2.509  80.932 112.721  0.00  0.00     0.210 C 
ATOM     15  C   LIG d   1      -2.696  79.737 113.662  0.00  0.00     0.109 C 
ATOM     16  O   LIG d   1      -3.484  81.619 112.382  0.00  0.00    -0.276 OA
ATOM     17  H   LIG d   1      -0.537  80.499 112.596  0.00  0.00     0.149 HD
ENDBRANCH   6  13
BRANCH   5  18
ATOM     18  N   LIG d   1      -0.212  80.771 109.449  0.00  0.00     0.381 N 
ATOM     19  H   LIG d   1      -0.862  80.162 109.903  0.00  0.00    -0.090 HD
ATOM     20  H   LIG d   1       0.585  80.228 109.166  0.00  0.00    -0.090 HD
ATOM     21  H   LIG d   1      -0.638  81.189 108.651  0.00  0.00    -0.090 HD
ENDBRANCH   5  18
BRANCH   3  22
ATOM     22  C   LIG d   1       1.902  85.050 109.856  0.00  0.00     0.382 C 
ATOM     23  O   LIG d   1       3.059  84.655 109.572  0.00  0.00    -0.241 OA
ATOM     24  O   LIG d   1       1.618  86.256 109.735  0.00  0.00    -0.241 OA
ENDBRANCH   3  22
TORSDOF 7
ENDMDL
MODEL 4
REMARK VINA RESULT:      -5.8      3.718      5.196
REMARK  7 active torsions:
REMARK  status: ('A' for Active; 'I' for Inactive)
REMARK    1  A    between atoms: C_2  and  C_3 
REMARK    2  A    between atoms: C_3  and  O_6 
REMARK    3  A    between atoms: C_3  and  C_4 
REMARK    4  A    between atoms: C_7  and  O_6 
REMARK    5  A    between atoms: C_9  and  C_10 
REMARK    6  A    between atoms: N_15  and  C_14 
REMARK    7  A    between atoms: N_20  and  C_19 
REMARK       I    between atoms: C_22  and  N_20 
ROOT
ATOM      1  C   LIG d   1      -0.639  81.200 111.895  0.00  0.00     0.161 C 
ATOM      2  C   LIG d   1      -1.220  79.930 111.739  0.00  0.00     0.016 C 
ATOM      3  C   LIG d   1      -2.268  79.448 112.555  0.00  0.00     0.038 C 
ATOM      4  C   LIG d   1      -2.914  80.268 113.493  0.00  0.00     0.028 C 
ATOM      5  C   LIG d   1      -2.029  81.387 114.030  0.00  0.00    -0.047 C 
ATOM      6  C   LIG d   1      -1.405  82.149 112.839  0.00  0.00     0.091 C 
ENDROOT
BRANCH   1   7
ATOM      7  O   LIG d   1      -0.457  81.815 110.604  0.00  0.00    -0.368 OA
BRANCH   7   8
ATOM      8  C   LIG d   1       0.887  82.257 110.292  0.00  0.00     0.119 C 
BRANCH   8   9
ATOM      9  C   LIG d   1       0.772  83.600 109.546  0.00  0.00     0.028 C 
ATOM     10  C   LIG d   1       1.965  84.530 109.825  0.00  0.00     0.006 C 
ENDBRANCH   8   9
BRANCH   8  11
ATOM     11  C   LIG d   1       1.572  81.304 109.308  0.00  0.00     0.028 C 
ATOM     12  C   LIG d   1       2.948  80.827 109.800  0.00  0.00     0.006 C 
ENDBRANCH   8  11
ENDBRANCH   7   8
ENDBRANCH   1   7
BRANCH   6  13
ATOM     13  N   LIG d   1      -0.458  83.208 113.277  0.00  0.00    -0.311 N 
ATOM     14  C   LIG d   1      -0.586  84.490 112.941  0.00  0.00     0.210 C 
ATOM     15  C   LIG d   1       0.511  85.413 113.482  0.00  0.00     0.109 C 
ATOM     16  O   LIG d   1      -1.521  84.957 112.273  0.00  0.00    -0.276 OA
ATOM     17  H   LIG d   1       0.313  82.922 113.848  0.00  0.00     0.149 HD
ENDBRANCH   6  13
BRANCH   5  18
ATOM     18  N   LIG d   1      -2.867  82.244 114.890  0.00  0.00     0.381 N 
ATOM     19  H   LIG d   1      -2.846  83.186 114.553  0.00  0.00    -0.090 HD
ATOM     20  H   LIG d   1      -2.492  82.235 115.822  0.00  0.00    -0.090 HD
ATOM     21  H   LIG d   1      -3.804  81.907 114.898  0.00  0.00    -0.090 HD
ENDBRANCH   5  18
BRANCH   3  22
ATOM     22  C   LIG d   1      -2.655  78.120 112.465  0.00  0.00     0.382 C 
ATOM     23  O   LIG d   1      -3.674  77.806 111.804  0.00  0.00    -0.241 OA
ATOM     24  O   LIG d   1      -2.023  77.235 113.074  0.00  0.00    -0.241 OA
ENDBRANCH   3  22
TORSDOF 7
ENDMDL
MODEL 5
REMARK VINA RESULT:      -5.7      3.700      5.042
REMARK  7 active torsions:
REMARK  status: ('A' for Active; 'I' for Inactive)
REMARK    1  A    between atoms: C_2  and  C_3 
REMARK    2  A    between atoms: C_3  and  O_6 
REMARK    3  A    between atoms: C_3  and  C_4 
REMARK    4  A    between atoms: C_7  and  O_6 
REMARK    5  A    between atoms: C_9  and  C_10 
REMARK    6  A    between atoms: N_15  and  C_14 
REMARK    7  A    between atoms: N_20  and  C_19 
REMARK       I    between atoms: C_22  and  N_20 
ROOT
ATOM      1  C   LIG d   1      -0.801  81.266 112.122  0.00  0.00     0.161 C 
ATOM      2  C   LIG d   1      -1.337  79.980 111.939  0.00  0.00     0.016 C 
ATOM      3  C   LIG d   1      -2.267  79.391 112.826  0.00  0.00     0.038 C 
ATOM      4  C   LIG d   1      -2.843  80.112 113.883  0.00  0.00     0.028 C 
ATOM      5  C   LIG d   1      -1.955  81.238 114.402  0.00  0.00    -0.047 C 
ATOM      6  C   LIG d   1      -1.501  82.109 113.208  0.00  0.00     0.091 C 
ENDROOT
BRANCH   1   7
ATOM      7  O   LIG d   1      -0.790  81.974 110.867  0.00  0.00    -0.368 OA
BRANCH   7   8
ATOM      8  C   LIG d   1       0.515  82.256 110.305  0.00  0.00     0.119 C 
BRANCH   8   9
ATOM      9  C   LIG d   1       1.566  81.618 111.235  0.00  0.00     0.028 C 
ATOM     10  C   LIG d   1       2.849  81.221 110.485  0.00  0.00     0.006 C 
ENDBRANCH   8   9
BRANCH   8  11
ATOM     11  C   LIG d   1       0.817  83.757 110.321  0.00  0.00     0.028 C 
ATOM     12  C   LIG d   1      -0.451  84.621 110.225  0.00  0.00     0.006 C 
ENDBRANCH   8  11
ENDBRANCH   7   8
ENDBRANCH   1   7
BRANCH   6  13
ATOM     13  N   LIG d   1      -0.561  83.185 113.617  0.00  0.00    -0.311 N 
ATOM     14  C   LIG d   1      -0.950  84.421 113.926  0.00  0.00     0.210 C 
ATOM     15  C   LIG d   1       0.183  85.381 114.302  0.00  0.00     0.109 C 
ATOM     16  O   LIG d   1      -2.129  84.804 113.955  0.00  0.00    -0.276 OA
ATOM     17  H   LIG d   1       0.412  82.952 113.651  0.00  0.00     0.149 HD
ENDBRANCH   6  13
BRANCH   5  18
ATOM     18  N   LIG d   1      -2.732  81.992 115.404  0.00  0.00     0.381 N 
ATOM     19  H   LIG d   1      -3.355  82.625 114.945  0.00  0.00    -0.090 HD
ATOM     20  H   LIG d   1      -2.098  82.528 115.970  0.00  0.00    -0.090 HD
ATOM     21  H   LIG d   1      -3.249  81.362 115.978  0.00  0.00    -0.090 HD
ENDBRANCH   5  18
BRANCH   3  22
ATOM     22  C   LIG d   1      -2.601  78.053 112.683  0.00  0.00     0.382 C 
ATOM     23  O   LIG d   1      -1.913  77.171 113.252  0.00  0.00    -0.241 OA
ATOM     24  O   LIG d   1      -3.554  77.713 111.956  0.00  0.00    -0.241 OA
ENDBRANCH   3  22
TORSDOF 7
ENDMDL
MODEL 6
REMARK VINA RESULT:      -5.7      3.636      5.737
REMARK  7 active torsions:
REMARK  status: ('A' for Active; 'I' for Inactive)
REMARK    1  A    between atoms: C_2  and  C_3 
REMARK    2  A    between atoms: C_3  and  O_6 
REMARK    3  A    between atoms: C_3  and  C_4 
REMARK    4  A    between atoms: C_7  and  O_6 
REMARK    5  A    between atoms: C_9  and  C_10 
REMARK    6  A    between atoms: N_15  and  C_14 
REMARK    7  A    between atoms: N_20  and  C_19 
REMARK       I    between atoms: C_22  and  N_20 
ROOT
ATOM      1  C   LIG d   1      -0.070  82.901 112.086  0.00  0.00     0.161 C 
ATOM      2  C   LIG d   1      -1.263  82.400 112.633  0.00  0.00     0.016 C 
ATOM      3  C   LIG d   1      -1.745  81.094 112.384  0.00  0.00     0.038 C 
ATOM      4  C   LIG d   1      -0.984  80.143 111.687  0.00  0.00     0.028 C 
ATOM      5  C   LIG d   1      -0.007  80.760 110.692  0.00  0.00    -0.047 C 
ATOM      6  C   LIG d   1       0.829  81.842 111.414  0.00  0.00     0.091 C 
ENDROOT
BRANCH   1   7
ATOM      7  O   LIG d   1       0.668  83.616 113.096  0.00  0.00    -0.368 OA
BRANCH   7   8
ATOM      8  C   LIG d   1       0.008  83.773 114.377  0.00  0.00     0.119 C 
BRANCH   8   9
ATOM      9  C   LIG d   1      -0.224  85.280 114.597  0.00  0.00     0.028 C 
ATOM     10  C   LIG d   1      -1.651  85.714 114.222  0.00  0.00     0.006 C 
ENDBRANCH   8   9
BRANCH   8  11
ATOM     11  C   LIG d   1       0.915  83.330 115.529  0.00  0.00     0.028 C 
ATOM     12  C   LIG d   1       1.247  81.830 115.483  0.00  0.00     0.006 C 
ENDBRANCH   8  11
ENDBRANCH   7   8
ENDBRANCH   1   7
BRANCH   6  13
ATOM     13  N   LIG d   1       1.751  82.554 110.492  0.00  0.00    -0.311 N 
ATOM     14  C   LIG d   1       3.010  82.176 110.278  0.00  0.00     0.210 C 
ATOM     15  C   LIG d   1       3.795  83.062 109.305  0.00  0.00     0.109 C 
ATOM     16  O   LIG d   1       3.542  81.172 110.777  0.00  0.00    -0.276 OA
ATOM     17  H   LIG d   1       1.393  83.362 110.022  0.00  0.00     0.149 HD
ENDBRANCH   6  13
BRANCH   5  18
ATOM     18  N   LIG d   1       0.815  79.668 110.139  0.00  0.00     0.381 N 
ATOM     19  H   LIG d   1       1.479  80.039 109.489  0.00  0.00    -0.090 HD
ATOM     20  H   LIG d   1       0.217  79.028 109.647  0.00  0.00    -0.090 HD
ATOM     21  H   LIG d   1       1.290  79.192 110.874  0.00  0.00    -0.090 HD
ENDBRANCH   5  18
BRANCH   3  22
ATOM     22  C   LIG d   1      -3.019  80.741 112.800  0.00  0.00     0.382 C 
ATOM     23  O   LIG d   1      -3.223  79.611 113.307  0.00  0.00    -0.241 OA
ATOM     24  O   LIG d   1      -3.977  81.520 112.635  0.00  0.00    -0.241 OA
ENDBRANCH   3  22
TORSDOF 7
ENDMDL
MODEL 7
REMARK VINA RESULT:      -5.6      3.117      5.108
REMARK  7 active torsions:
REMARK  status: ('A' for Active; 'I' for Inactive)
REMARK    1  A    between atoms: C_2  and  C_3 
REMARK    2  A    between atoms: C_3  and  O_6 
REMARK    3  A    between atoms: C_3  and  C_4 
REMARK    4  A    between atoms: C_7  and  O_6 
REMARK    5  A    between atoms: C_9  and  C_10 
REMARK    6  A    between atoms: N_15  and  C_14 
REMARK    7  A    between atoms: N_20  and  C_19 
REMARK       I    between atoms: C_22  and  N_20 
ROOT
ATOM      1  C   LIG d   1       0.232  83.219 112.552  0.00  0.00     0.161 C 
ATOM      2  C   LIG d   1      -0.982  82.818 113.134  0.00  0.00     0.016 C 
ATOM      3  C   LIG d   1      -1.629  81.600 112.825  0.00  0.00     0.038 C 
ATOM      4  C   LIG d   1      -1.024  80.623 112.019  0.00  0.00     0.028 C 
ATOM      5  C   LIG d   1      -0.033  81.197 111.012  0.00  0.00    -0.047 C 
ATOM      6  C   LIG d   1       0.962  82.117 111.756  0.00  0.00     0.091 C 
ENDROOT
BRANCH   1   7
ATOM      7  O   LIG d   1       1.102  83.765 113.563  0.00  0.00    -0.368 OA
BRANCH   7   8
ATOM      8  C   LIG d   1       0.961  85.183 113.826  0.00  0.00     0.119 C 
BRANCH   8   9
ATOM      9  C   LIG d   1       2.183  85.892 113.209  0.00  0.00     0.028 C 
ATOM     10  C   LIG d   1       3.448  85.019 113.247  0.00  0.00     0.006 C 
ENDBRANCH   8   9
BRANCH   8  11
ATOM     11  C   LIG d   1       1.034  85.482 115.326  0.00  0.00     0.028 C 
ATOM     12  C   LIG d   1       1.078  86.987 115.633  0.00  0.00     0.006 C 
ENDBRANCH   8  11
ENDBRANCH   7   8
ENDBRANCH   1   7
BRANCH   6  13
ATOM     13  N   LIG d   1       1.914  82.786 110.831  0.00  0.00    -0.311 N 
ATOM     14  C   LIG d   1       3.095  82.269 110.495  0.00  0.00     0.210 C 
ATOM     15  C   LIG d   1       3.931  83.131 109.545  0.00  0.00     0.109 C 
ATOM     16  O   LIG d   1       3.515  81.163 110.869  0.00  0.00    -0.276 OA
ATOM     17  H   LIG d   1       1.640  83.673 110.457  0.00  0.00     0.149 HD
ENDBRANCH   6  13
BRANCH   5  18
ATOM     18  N   LIG d   1       0.623  80.062 110.336  0.00  0.00     0.381 N 
ATOM     19  H   LIG d   1       1.405  79.751 110.877  0.00  0.00    -0.090 HD
ATOM     20  H   LIG d   1       0.961  80.368 109.441  0.00  0.00    -0.090 HD
ATOM     21  H   LIG d   1      -0.026  79.315 110.217  0.00  0.00    -0.090 HD
ENDBRANCH   5  18
BRANCH   3  22
ATOM     22  C   LIG d   1      -2.913  81.365 113.292  0.00  0.00     0.382 C 
ATOM     23  O   LIG d   1      -3.898  81.543 112.534  0.00  0.00    -0.241 OA
ATOM     24  O   LIG d   1      -3.103  81.022 114.474  0.00  0.00    -0.241 OA
ENDBRANCH   3  22
TORSDOF 7
ENDMDL
MODEL 8
REMARK VINA RESULT:      -5.3      3.107      5.187
REMARK  7 active torsions:
REMARK  status: ('A' for Active; 'I' for Inactive)
REMARK    1  A    between atoms: C_2  and  C_3 
REMARK    2  A    between atoms: C_3  and  O_6 
REMARK    3  A    between atoms: C_3  and  C_4 
REMARK    4  A    between atoms: C_7  and  O_6 
REMARK    5  A    between atoms: C_9  and  C_10 
REMARK    6  A    between atoms: N_15  and  C_14 
REMARK    7  A    between atoms: N_20  and  C_19 
REMARK       I    between atoms: C_22  and  N_20 
ROOT
ATOM      1  C   LIG d   1      -0.136  83.545 112.284  0.00  0.00     0.161 C 
ATOM      2  C   LIG d   1      -1.318  83.039 112.849  0.00  0.00     0.016 C 
ATOM      3  C   LIG d   1      -1.746  81.701 112.689  0.00  0.00     0.038 C 
ATOM      4  C   LIG d   1      -0.938  80.733 112.074  0.00  0.00     0.028 C 
ATOM      5  C   LIG d   1       0.031  81.314 111.050  0.00  0.00    -0.047 C 
ATOM      6  C   LIG d   1       0.813  82.476 111.703  0.00  0.00     0.091 C 
ENDROOT
BRANCH   1   7
ATOM      7  O   LIG d   1       0.558  84.360 113.249  0.00  0.00    -0.368 OA
BRANCH   7   8
ATOM      8  C   LIG d   1       1.588  83.695 114.021  0.00  0.00     0.119 C 
BRANCH   8   9
ATOM      9  C   LIG d   1       0.956  83.256 115.356  0.00  0.00     0.028 C 
ATOM     10  C   LIG d   1       0.974  81.730 115.540  0.00  0.00     0.006 C 
ENDBRANCH   8   9
BRANCH   8  11
ATOM     11  C   LIG d   1       2.711  84.665 114.403  0.00  0.00     0.028 C 
ATOM     12  C   LIG d   1       3.541  85.121 113.194  0.00  0.00     0.006 C 
ENDBRANCH   8  11
ENDBRANCH   7   8
ENDBRANCH   1   7
BRANCH   6  13
ATOM     13  N   LIG d   1       1.724  83.156 110.745  0.00  0.00    -0.311 N 
ATOM     14  C   LIG d   1       2.972  82.756 110.511  0.00  0.00     0.210 C 
ATOM     15  C   LIG d   1       3.746  83.609 109.500  0.00  0.00     0.109 C 
ATOM     16  O   LIG d   1       3.503  81.757 111.020  0.00  0.00    -0.276 OA
ATOM     17  H   LIG d   1       1.364  83.957 110.264  0.00  0.00     0.149 HD
ENDBRANCH   6  13
BRANCH   5  18
ATOM     18  N   LIG d   1       0.903  80.217 110.589  0.00  0.00     0.381 N 
ATOM     19  H   LIG d   1       0.348  79.420 110.349  0.00  0.00    -0.090 HD
ATOM     20  H   LIG d   1       1.521  79.957 111.338  0.00  0.00    -0.090 HD
ATOM     21  H   LIG d   1       1.433  80.512 109.799  0.00  0.00    -0.090 HD
ENDBRANCH   5  18
BRANCH   3  22
ATOM     22  C   LIG d   1      -3.012  81.329 113.113  0.00  0.00     0.382 C 
ATOM     23  O   LIG d   1      -3.545  80.288 112.658  0.00  0.00    -0.241 OA
ATOM     24  O   LIG d   1      -3.647  82.045 113.910  0.00  0.00    -0.241 OA
ENDBRANCH   3  22
TORSDOF 7
ENDMDL
MODEL 9
REMARK VINA RESULT:      -5.1     10.922     12.471
REMARK  7 active torsions:
REMARK  status: ('A' for Active; 'I' for Inactive)
REMARK    1  A    between atoms: C_2  and  C_3 
REMARK    2  A    between atoms: C_3  and  O_6 
REMARK    3  A    between atoms: C_3  and  C_4 
REMARK    4  A    between atoms: C_7  and  O_6 
REMARK    5  A    between atoms: C_9  and  C_10 
REMARK    6  A    between atoms: N_15  and  C_14 
REMARK    7  A    between atoms: N_20  and  C_19 
REMARK       I    between atoms: C_22  and  N_20 
ROOT
ATOM      1  C   LIG d   1      10.641  79.215 114.382  0.00  0.00     0.161 C 
ATOM      2  C   LIG d   1       9.313  79.286 114.835  0.00  0.00     0.016 C 
ATOM      3  C   LIG d   1       8.593  78.168 115.315  0.00  0.00     0.038 C 
ATOM      4  C   LIG d   1       9.207  76.923 115.518  0.00  0.00     0.028 C 
ATOM      5  C   LIG d   1      10.402  76.680 114.602  0.00  0.00    -0.047 C 
ATOM      6  C   LIG d   1      11.362  77.888 114.700  0.00  0.00     0.091 C 
ENDROOT
BRANCH   1   7
ATOM      7  O   LIG d   1      11.394  80.330 114.899  0.00  0.00    -0.368 OA
BRANCH   7   8
ATOM      8  C   LIG d   1      11.784  81.338 113.934  0.00  0.00     0.119 C 
BRANCH   8   9
ATOM      9  C   LIG d   1      11.197  80.924 112.570  0.00  0.00     0.028 C 
ATOM     10  C   LIG d   1      10.434  82.071 111.887  0.00  0.00     0.006 C 
ENDBRANCH   8   9
BRANCH   8  11
ATOM     11  C   LIG d   1      13.302  81.359 113.732  0.00  0.00     0.028 C 
ATOM     12  C   LIG d   1      13.730  80.795 112.368  0.00  0.00     0.006 C 
ENDBRANCH   8  11
ENDBRANCH   7   8
ENDBRANCH   1   7
BRANCH   6  13
ATOM     13  N   LIG d   1      12.517  77.771 113.772  0.00  0.00    -0.311 N 
ATOM     14  C   LIG d   1      13.704  77.289 114.136  0.00  0.00     0.210 C 
ATOM     15  C   LIG d   1      14.763  77.274 113.029  0.00  0.00     0.109 C 
ATOM     16  O   LIG d   1      13.971  76.844 115.262  0.00  0.00    -0.276 OA
ATOM     17  H   LIG d   1      12.378  78.080 112.830  0.00  0.00     0.149 HD
ENDBRANCH   6  13
BRANCH   5  18
ATOM     18  N   LIG d   1      11.028  75.410 115.013  0.00  0.00     0.381 N 
ATOM     19  H   LIG d   1      11.498  75.531 115.888  0.00  0.00    -0.090 HD
ATOM     20  H   LIG d   1      11.708  75.144 114.323  0.00  0.00    -0.090 HD
ATOM     21  H   LIG d   1      10.334  74.699 115.097  0.00  0.00    -0.090 HD
ENDBRANCH   5  18
BRANCH   3  22
ATOM     22  C   LIG d   1       7.233  78.280 115.561  0.00  0.00     0.382 C 
ATOM     23  O   LIG d   1       6.411  77.700 114.811  0.00  0.00    -0.241 OA
ATOM     24  O   LIG d   1       6.816  78.990 116.495  0.00  0.00    -0.241 OA
ENDBRANCH   3  22
TORSDOF 7
ENDMDL
