MODEL 1
REMARK VINA RESULT:      -6.2      0.000      0.000
REMARK  7 active torsions:
REMARK  status: ('A' for Active; 'I' for Inactive)
REMARK    1  A    between atoms: C_2  and  C_3 
REMARK    2  A    between atoms: C_3  and  O_6 
REMARK    3  A    between atoms: C_3  and  C_4 
REMARK    4  A    between atoms: C_7  and  O_6 
REMARK    5  A    between atoms: C_9  and  C_10 
REMARK    6  A    between atoms: N_15  and  C_14 
REMARK    7  A    between atoms: N_20  and  C_19 
REMARK       I    between atoms: C_22  and  N_20 
ROOT
ATOM      1  C   LIG d   1       2.199  87.323 111.969  0.00  0.00     0.161 C 
ATOM      2  C   LIG d   1       2.566  88.670 112.132  0.00  0.00     0.016 C 
ATOM      3  C   LIG d   1       3.157  89.178 113.311  0.00  0.00     0.038 C 
ATOM      4  C   LIG d   1       3.563  88.338 114.359  0.00  0.00     0.028 C 
ATOM      5  C   LIG d   1       2.756  87.047 114.448  0.00  0.00    -0.047 C 
ATOM      6  C   LIG d   1       2.736  86.371 113.058  0.00  0.00     0.091 C 
ENDROOT
BRANCH   1   7
ATOM      7  O   LIG d   1       2.596  86.864 110.662  0.00  0.00    -0.368 OA
BRANCH   7   8
ATOM      8  C   LIG d   1       1.520  86.522 109.753  0.00  0.00     0.119 C 
BRANCH   8   9
ATOM      9  C   LIG d   1       0.192  86.771 110.494  0.00  0.00     0.028 C 
ATOM     10  C   LIG d   1      -0.712  85.527 110.512  0.00  0.00     0.006 C 
ENDBRANCH   8   9
BRANCH   8  11
ATOM     11  C   LIG d   1       1.525  85.026 109.422  0.00  0.00     0.028 C 
ATOM     12  C   LIG d   1       2.901  84.374 109.632  0.00  0.00     0.006 C 
ENDBRANCH   8  11
ENDBRANCH   7   8
ENDBRANCH   1   7
BRANCH   6  13
ATOM     13  N   LIG d   1       1.897  85.144 113.036  0.00  0.00    -0.311 N 
ATOM     14  C   LIG d   1       2.377  83.924 113.266  0.00  0.00     0.210 C 
ATOM     15  C   LIG d   1       1.345  82.795 113.175  0.00  0.00     0.109 C 
ATOM     16  O   LIG d   1       3.553  83.671 113.569  0.00  0.00    -0.276 OA
ATOM     17  H   LIG d   1       0.924  85.261 112.829  0.00  0.00     0.149 HD
ENDBRANCH   6  13
BRANCH   5  18
ATOM     18  N   LIG d   1       3.373  86.206 115.491  0.00  0.00     0.381 N 
ATOM     19  H   LIG d   1       2.665  85.854 116.104  0.00  0.00    -0.090 HD
ATOM     20  H   LIG d   1       4.006  86.770 116.031  0.00  0.00    -0.090 HD
ATOM     21  H   LIG d   1       3.866  85.449 115.071  0.00  0.00    -0.090 HD
ENDBRANCH   5  18
BRANCH   3  22
ATOM     22  C   LIG d   1       3.311  90.547 113.468  0.00  0.00     0.382 C 
ATOM     23  O   LIG d   1       3.652  91.017 114.580  0.00  0.00    -0.241 OA
ATOM     24  O   LIG d   1       3.069  91.322 112.523  0.00  0.00    -0.241 OA
ENDBRANCH   3  22
TORSDOF 7
ENDMDL
MODEL 2
REMARK VINA RESULT:      -6.1      9.500     12.212
REMARK  7 active torsions:
REMARK  status: ('A' for Active; 'I' for Inactive)
REMARK    1  A    between atoms: C_2  and  C_3 
REMARK    2  A    between atoms: C_3  and  O_6 
REMARK    3  A    between atoms: C_3  and  C_4 
REMARK    4  A    between atoms: C_7  and  O_6 
REMARK    5  A    between atoms: C_9  and  C_10 
REMARK    6  A    between atoms: N_15  and  C_14 
REMARK    7  A    between atoms: N_20  and  C_19 
REMARK       I    between atoms: C_22  and  N_20 
ROOT
ATOM      1  C   LIG d   1      -3.100  77.252 116.172  0.00  0.00     0.161 C 
ATOM      2  C   LIG d   1      -3.302  78.192 115.148  0.00  0.00     0.016 C 
ATOM      3  C   LIG d   1      -2.383  78.405 114.094  0.00  0.00     0.038 C 
ATOM      4  C   LIG d   1      -1.263  77.580 113.910  0.00  0.00     0.028 C 
ATOM      5  C   LIG d   1      -0.756  76.949 115.202  0.00  0.00    -0.047 C 
ATOM      6  C   LIG d   1      -1.939  76.266 115.925  0.00  0.00     0.091 C 
ENDROOT
BRANCH   1   7
ATOM      7  O   LIG d   1      -4.324  76.532 116.422  0.00  0.00    -0.368 OA
BRANCH   7   8
ATOM      8  C   LIG d   1      -5.332  76.610 115.385  0.00  0.00     0.119 C 
BRANCH   8   9
ATOM      9  C   LIG d   1      -6.710  76.569 116.075  0.00  0.00     0.028 C 
ATOM     10  C   LIG d   1      -6.745  77.406 117.365  0.00  0.00     0.006 C 
ENDBRANCH   8   9
BRANCH   8  11
ATOM     11  C   LIG d   1      -5.296  75.376 114.479  0.00  0.00     0.028 C 
ATOM     12  C   LIG d   1      -5.623  74.075 115.230  0.00  0.00     0.006 C 
ENDBRANCH   8  11
ENDBRANCH   7   8
ENDBRANCH   1   7
BRANCH   6  13
ATOM     13  N   LIG d   1      -1.546  75.696 117.241  0.00  0.00    -0.311 N 
ATOM     14  C   LIG d   1      -1.081  74.458 117.393  0.00  0.00     0.210 C 
ATOM     15  C   LIG d   1      -0.755  74.063 118.837  0.00  0.00     0.109 C 
ATOM     16  O   LIG d   1      -0.877  73.659 116.466  0.00  0.00    -0.276 OA
ATOM     17  H   LIG d   1      -1.650  76.286 118.043  0.00  0.00     0.149 HD
ENDBRANCH   6  13
BRANCH   5  18
ATOM     18  N   LIG d   1       0.324  76.009 114.845  0.00  0.00     0.381 N 
ATOM     19  H   LIG d   1       0.538  75.426 115.629  0.00  0.00    -0.090 HD
ATOM     20  H   LIG d   1       1.147  76.534 114.609  0.00  0.00    -0.090 HD
ATOM     21  H   LIG d   1       0.045  75.448 114.070  0.00  0.00    -0.090 HD
ENDBRANCH   5  18
BRANCH   3  22
ATOM     22  C   LIG d   1      -2.559  79.478 113.235  0.00  0.00     0.382 C 
ATOM     23  O   LIG d   1      -3.136  80.516 113.638  0.00  0.00    -0.241 OA
ATOM     24  O   LIG d   1      -2.187  79.405 112.048  0.00  0.00    -0.241 OA
ENDBRANCH   3  22
TORSDOF 7
ENDMDL
MODEL 3
REMARK VINA RESULT:      -5.7     12.119     14.723
REMARK  7 active torsions:
REMARK  status: ('A' for Active; 'I' for Inactive)
REMARK    1  A    between atoms: C_2  and  C_3 
REMARK    2  A    between atoms: C_3  and  O_6 
REMARK    3  A    between atoms: C_3  and  C_4 
REMARK    4  A    between atoms: C_7  and  O_6 
REMARK    5  A    between atoms: C_9  and  C_10 
REMARK    6  A    between atoms: N_15  and  C_14 
REMARK    7  A    between atoms: N_20  and  C_19 
REMARK       I    between atoms: C_22  and  N_20 
ROOT
ATOM      1  C   LIG d   1      -7.021  77.262 117.098  0.00  0.00     0.161 C 
ATOM      2  C   LIG d   1      -6.528  76.644 115.937  0.00  0.00     0.016 C 
ATOM      3  C   LIG d   1      -5.208  76.822 115.461  0.00  0.00     0.038 C 
ATOM      4  C   LIG d   1      -4.240  77.516 116.202  0.00  0.00     0.028 C 
ATOM      5  C   LIG d   1      -4.829  78.576 117.126  0.00  0.00    -0.047 C 
ATOM      6  C   LIG d   1      -5.947  77.933 117.980  0.00  0.00     0.091 C 
ENDROOT
BRANCH   1   7
ATOM      7  O   LIG d   1      -7.782  76.313 117.871  0.00  0.00    -0.368 OA
BRANCH   7   8
ATOM      8  C   LIG d   1      -8.555  75.350 117.115  0.00  0.00     0.119 C 
BRANCH   8   9
ATOM      9  C   LIG d   1     -10.018  75.455 117.589  0.00  0.00     0.028 C 
ATOM     10  C   LIG d   1     -10.212  76.548 118.653  0.00  0.00     0.006 C 
ENDBRANCH   8   9
BRANCH   8  11
ATOM     11  C   LIG d   1      -8.127  73.915 117.437  0.00  0.00     0.028 C 
ATOM     12  C   LIG d   1      -9.063  72.861 116.824  0.00  0.00     0.006 C 
ENDBRANCH   8  11
ENDBRANCH   7   8
ENDBRANCH   1   7
BRANCH   6  13
ATOM     13  N   LIG d   1      -6.633  78.921 118.852  0.00  0.00    -0.311 N 
ATOM     14  C   LIG d   1      -6.882  80.177 118.483  0.00  0.00     0.210 C 
ATOM     15  C   LIG d   1      -7.582  81.035 119.541  0.00  0.00     0.109 C 
ATOM     16  O   LIG d   1      -6.617  80.652 117.368  0.00  0.00    -0.276 OA
ATOM     17  H   LIG d   1      -6.911  78.611 119.762  0.00  0.00     0.149 HD
ENDBRANCH   6  13
BRANCH   5  18
ATOM     18  N   LIG d   1      -3.725  79.124 117.937  0.00  0.00     0.381 N 
ATOM     19  H   LIG d   1      -4.084  79.484 118.799  0.00  0.00    -0.090 HD
ATOM     20  H   LIG d   1      -3.297  79.880 117.434  0.00  0.00    -0.090 HD
ATOM     21  H   LIG d   1      -3.052  78.413 118.121  0.00  0.00    -0.090 HD
ENDBRANCH   5  18
BRANCH   3  22
ATOM     22  C   LIG d   1      -4.857  76.336 114.211  0.00  0.00     0.382 C 
ATOM     23  O   LIG d   1      -5.102  75.143 113.911  0.00  0.00    -0.241 OA
ATOM     24  O   LIG d   1      -4.259  77.063 113.395  0.00  0.00    -0.241 OA
ENDBRANCH   3  22
TORSDOF 7
ENDMDL
MODEL 4
REMARK VINA RESULT:      -5.7      9.816     13.031
REMARK  7 active torsions:
REMARK  status: ('A' for Active; 'I' for Inactive)
REMARK    1  A    between atoms: C_2  and  C_3 
REMARK    2  A    between atoms: C_3  and  O_6 
REMARK    3  A    between atoms: C_3  and  C_4 
REMARK    4  A    between atoms: C_7  and  O_6 
REMARK    5  A    between atoms: C_9  and  C_10 
REMARK    6  A    between atoms: N_15  and  C_14 
REMARK    7  A    between atoms: N_20  and  C_19 
REMARK       I    between atoms: C_22  and  N_20 
ROOT
ATOM      1  C   LIG d   1      -2.176  75.610 114.893  0.00  0.00     0.161 C 
ATOM      2  C   LIG d   1      -2.070  74.877 116.087  0.00  0.00     0.016 C 
ATOM      3  C   LIG d   1      -1.235  75.259 117.163  0.00  0.00     0.038 C 
ATOM      4  C   LIG d   1      -0.560  76.489 117.177  0.00  0.00     0.028 C 
ATOM      5  C   LIG d   1      -0.241  77.021 115.784  0.00  0.00    -0.047 C 
ATOM      6  C   LIG d   1      -1.533  77.012 114.935  0.00  0.00     0.091 C 
ENDROOT
BRANCH   1   7
ATOM      7  O   LIG d   1      -3.560  75.705 114.501  0.00  0.00    -0.368 OA
BRANCH   7   8
ATOM      8  C   LIG d   1      -4.531  75.233 115.467  0.00  0.00     0.119 C 
BRANCH   8   9
ATOM      9  C   LIG d   1      -5.385  74.152 114.775  0.00  0.00     0.028 C 
ATOM     10  C   LIG d   1      -6.367  73.472 115.744  0.00  0.00     0.006 C 
ENDBRANCH   8   9
BRANCH   8  11
ATOM     11  C   LIG d   1      -5.515  76.341 115.855  0.00  0.00     0.028 C 
ATOM     12  C   LIG d   1      -4.827  77.540 116.527  0.00  0.00     0.006 C 
ENDBRANCH   8  11
ENDBRANCH   7   8
ENDBRANCH   1   7
BRANCH   6  13
ATOM     13  N   LIG d   1      -1.293  77.439 113.532  0.00  0.00    -0.311 N 
ATOM     14  C   LIG d   1      -2.104  78.259 112.867  0.00  0.00     0.210 C 
ATOM     15  C   LIG d   1      -1.682  78.555 111.424  0.00  0.00     0.109 C 
ATOM     16  O   LIG d   1      -3.115  78.796 113.344  0.00  0.00    -0.276 OA
ATOM     17  H   LIG d   1      -0.478  77.075 113.078  0.00  0.00     0.149 HD
ENDBRANCH   6  13
BRANCH   5  18
ATOM     18  N   LIG d   1       0.336  78.369 115.943  0.00  0.00     0.381 N 
ATOM     19  H   LIG d   1       1.242  78.302 116.362  0.00  0.00    -0.090 HD
ATOM     20  H   LIG d   1      -0.255  78.906 116.554  0.00  0.00    -0.090 HD
ATOM     21  H   LIG d   1       0.404  78.818 115.056  0.00  0.00    -0.090 HD
ENDBRANCH   5  18
BRANCH   3  22
ATOM     22  C   LIG d   1      -1.037  74.387 118.222  0.00  0.00     0.382 C 
ATOM     23  O   LIG d   1      -0.717  73.194 118.002  0.00  0.00    -0.241 OA
ATOM     24  O   LIG d   1      -1.218  74.767 119.395  0.00  0.00    -0.241 OA
ENDBRANCH   3  22
TORSDOF 7
ENDMDL
MODEL 5
REMARK VINA RESULT:      -5.5     13.201     16.323
REMARK  7 active torsions:
REMARK  status: ('A' for Active; 'I' for Inactive)
REMARK    1  A    between atoms: C_2  and  C_3 
REMARK    2  A    between atoms: C_3  and  O_6 
REMARK    3  A    between atoms: C_3  and  C_4 
REMARK    4  A    between atoms: C_7  and  O_6 
REMARK    5  A    between atoms: C_9  and  C_10 
REMARK    6  A    between atoms: N_15  and  C_14 
REMARK    7  A    between atoms: N_20  and  C_19 
REMARK       I    between atoms: C_22  and  N_20 
ROOT
ATOM      1  C   LIG d   1      -7.255  75.325 116.860  0.00  0.00     0.161 C 
ATOM      2  C   LIG d   1      -6.298  76.178 116.286  0.00  0.00     0.016 C 
ATOM      3  C   LIG d   1      -5.333  75.745 115.348  0.00  0.00     0.038 C 
ATOM      4  C   LIG d   1      -5.356  74.452 114.803  0.00  0.00     0.028 C 
ATOM      5  C   LIG d   1      -5.989  73.417 115.728  0.00  0.00    -0.047 C 
ATOM      6  C   LIG d   1      -7.367  73.937 116.196  0.00  0.00     0.091 C 
ENDROOT
BRANCH   1   7
ATOM      7  O   LIG d   1      -8.541  75.976 116.880  0.00  0.00    -0.368 OA
BRANCH   7   8
ATOM      8  C   LIG d   1      -8.984  76.475 118.166  0.00  0.00     0.119 C 
BRANCH   8   9
ATOM      9  C   LIG d   1     -10.501  76.225 118.263  0.00  0.00     0.028 C 
ATOM     10  C   LIG d   1     -11.132  76.906 119.489  0.00  0.00     0.006 C 
ENDBRANCH   8   9
BRANCH   8  11
ATOM     11  C   LIG d   1      -8.817  77.994 118.262  0.00  0.00     0.028 C 
ATOM     12  C   LIG d   1      -7.596  78.408 119.100  0.00  0.00     0.006 C 
ENDBRANCH   8  11
ENDBRANCH   7   8
ENDBRANCH   1   7
BRANCH   6  13
ATOM     13  N   LIG d   1      -8.017  73.023 117.170  0.00  0.00    -0.311 N 
ATOM     14  C   LIG d   1      -8.798  72.005 116.812  0.00  0.00     0.210 C 
ATOM     15  C   LIG d   1      -9.384  71.199 117.976  0.00  0.00     0.109 C 
ATOM     16  O   LIG d   1      -9.034  71.673 115.641  0.00  0.00    -0.276 OA
ATOM     17  H   LIG d   1      -7.853  73.200 118.142  0.00  0.00     0.149 HD
ENDBRANCH   6  13
BRANCH   5  18
ATOM     18  N   LIG d   1      -6.072  72.147 114.983  0.00  0.00     0.381 N 
ATOM     19  H   LIG d   1      -5.247  71.605 115.144  0.00  0.00    -0.090 HD
ATOM     20  H   LIG d   1      -6.130  72.349 114.000  0.00  0.00    -0.090 HD
ATOM     21  H   LIG d   1      -6.877  71.635 115.271  0.00  0.00    -0.090 HD
ENDBRANCH   5  18
BRANCH   3  22
ATOM     22  C   LIG d   1      -4.306  76.599 114.975  0.00  0.00     0.382 C 
ATOM     23  O   LIG d   1      -3.230  76.129 114.533  0.00  0.00    -0.241 OA
ATOM     24  O   LIG d   1      -4.425  77.830 115.116  0.00  0.00    -0.241 OA
ENDBRANCH   3  22
TORSDOF 7
ENDMDL
MODEL 6
REMARK VINA RESULT:      -5.5     11.782     15.080
REMARK  7 active torsions:
REMARK  status: ('A' for Active; 'I' for Inactive)
REMARK    1  A    between atoms: C_2  and  C_3 
REMARK    2  A    between atoms: C_3  and  O_6 
REMARK    3  A    between atoms: C_3  and  C_4 
REMARK    4  A    between atoms: C_7  and  O_6 
REMARK    5  A    between atoms: C_9  and  C_10 
REMARK    6  A    between atoms: N_15  and  C_14 
REMARK    7  A    between atoms: N_20  and  C_19 
REMARK       I    between atoms: C_22  and  N_20 
ROOT
ATOM      1  C   LIG d   1      -6.599  77.204 117.292  0.00  0.00     0.161 C 
ATOM      2  C   LIG d   1      -7.077  75.914 117.009  0.00  0.00     0.016 C 
ATOM      3  C   LIG d   1      -8.372  75.468 117.360  0.00  0.00     0.038 C 
ATOM      4  C   LIG d   1      -9.337  76.339 117.888  0.00  0.00     0.028 C 
ATOM      5  C   LIG d   1      -8.739  77.514 118.654  0.00  0.00    -0.047 C 
ATOM      6  C   LIG d   1      -7.676  78.202 117.767  0.00  0.00     0.091 C 
ENDROOT
BRANCH   1   7
ATOM      7  O   LIG d   1      -5.901  77.729 116.145  0.00  0.00    -0.368 OA
BRANCH   7   8
ATOM      8  C   LIG d   1      -4.471  77.496 116.109  0.00  0.00     0.119 C 
BRANCH   8   9
ATOM      9  C   LIG d   1      -3.777  78.870 116.167  0.00  0.00     0.028 C 
ATOM     10  C   LIG d   1      -2.456  78.895 115.379  0.00  0.00     0.006 C 
ENDBRANCH   8   9
BRANCH   8  11
ATOM     11  C   LIG d   1      -4.041  76.881 114.774  0.00  0.00     0.028 C 
ATOM     12  C   LIG d   1      -5.228  76.365 113.946  0.00  0.00     0.006 C 
ENDBRANCH   8  11
ENDBRANCH   7   8
ENDBRANCH   1   7
BRANCH   6  13
ATOM     13  N   LIG d   1      -6.982  79.311 118.472  0.00  0.00    -0.311 N 
ATOM     14  C   LIG d   1      -7.350  80.587 118.372  0.00  0.00     0.210 C 
ATOM     15  C   LIG d   1      -6.486  81.573 119.165  0.00  0.00     0.109 C 
ATOM     16  O   LIG d   1      -8.330  80.993 117.729  0.00  0.00    -0.276 OA
ATOM     17  H   LIG d   1      -6.194  79.068 119.041  0.00  0.00     0.149 HD
ENDBRANCH   6  13
BRANCH   5  18
ATOM     18  N   LIG d   1      -9.848  78.412 119.029  0.00  0.00     0.381 N 
ATOM     19  H   LIG d   1     -10.547  78.404 118.314  0.00  0.00    -0.090 HD
ATOM     20  H   LIG d   1      -9.493  79.349 119.112  0.00  0.00    -0.090 HD
ATOM     21  H   LIG d   1     -10.244  78.121 119.895  0.00  0.00    -0.090 HD
ENDBRANCH   5  18
BRANCH   3  22
ATOM     22  C   LIG d   1      -8.699  74.128 117.221  0.00  0.00     0.382 C 
ATOM     23  O   LIG d   1      -7.822  73.248 117.393  0.00  0.00    -0.241 OA
ATOM     24  O   LIG d   1      -9.849  73.791 116.883  0.00  0.00    -0.241 OA
ENDBRANCH   3  22
TORSDOF 7
ENDMDL
MODEL 7
REMARK VINA RESULT:      -5.3     11.564     14.764
REMARK  7 active torsions:
REMARK  status: ('A' for Active; 'I' for Inactive)
REMARK    1  A    between atoms: C_2  and  C_3 
REMARK    2  A    between atoms: C_3  and  O_6 
REMARK    3  A    between atoms: C_3  and  C_4 
REMARK    4  A    between atoms: C_7  and  O_6 
REMARK    5  A    between atoms: C_9  and  C_10 
REMARK    6  A    between atoms: N_15  and  C_14 
REMARK    7  A    between atoms: N_20  and  C_19 
REMARK       I    between atoms: C_22  and  N_20 
ROOT
ATOM      1  C   LIG d   1      -6.557  76.713 117.033  0.00  0.00     0.161 C 
ATOM      2  C   LIG d   1      -7.855  76.177 117.044  0.00  0.00     0.016 C 
ATOM      3  C   LIG d   1      -8.931  76.759 117.754  0.00  0.00     0.038 C 
ATOM      4  C   LIG d   1      -8.816  78.009 118.381  0.00  0.00     0.028 C 
ATOM      5  C   LIG d   1      -7.393  78.338 118.819  0.00  0.00    -0.047 C 
ATOM      6  C   LIG d   1      -6.439  78.135 117.620  0.00  0.00     0.091 C 
ENDROOT
BRANCH   1   7
ATOM      7  O   LIG d   1      -6.026  76.679 115.693  0.00  0.00    -0.368 OA
BRANCH   7   8
ATOM      8  C   LIG d   1      -4.916  75.774 115.470  0.00  0.00     0.119 C 
BRANCH   8   9
ATOM      9  C   LIG d   1      -3.860  76.533 114.643  0.00  0.00     0.028 C 
ATOM     10  C   LIG d   1      -2.434  76.322 115.179  0.00  0.00     0.006 C 
ENDBRANCH   8   9
BRANCH   8  11
ATOM     11  C   LIG d   1      -5.333  74.584 114.602  0.00  0.00     0.028 C 
ATOM     12  C   LIG d   1      -6.006  73.463 115.410  0.00  0.00     0.006 C 
ENDBRANCH   8  11
ENDBRANCH   7   8
ENDBRANCH   1   7
BRANCH   6  13
ATOM     13  N   LIG d   1      -5.015  78.355 117.985  0.00  0.00    -0.311 N 
ATOM     14  C   LIG d   1      -4.161  79.040 117.226  0.00  0.00     0.210 C 
ATOM     15  C   LIG d   1      -2.735  79.130 117.778  0.00  0.00     0.109 C 
ATOM     16  O   LIG d   1      -4.457  79.608 116.165  0.00  0.00    -0.276 OA
ATOM     17  H   LIG d   1      -4.698  77.954 118.846  0.00  0.00     0.149 HD
ENDBRANCH   6  13
BRANCH   5  18
ATOM     18  N   LIG d   1      -7.393  79.721 119.331  0.00  0.00     0.381 N 
ATOM     19  H   LIG d   1      -6.777  80.285 118.782  0.00  0.00    -0.090 HD
ATOM     20  H   LIG d   1      -7.057  79.717 120.278  0.00  0.00    -0.090 HD
ATOM     21  H   LIG d   1      -8.315  80.096 119.300  0.00  0.00    -0.090 HD
ENDBRANCH   5  18
BRANCH   3  22
ATOM     22  C   LIG d   1     -10.128  76.069 117.874  0.00  0.00     0.382 C 
ATOM     23  O   LIG d   1     -11.118  76.621 118.411  0.00  0.00    -0.241 OA
ATOM     24  O   LIG d   1     -10.217  74.887 117.491  0.00  0.00    -0.241 OA
ENDBRANCH   3  22
TORSDOF 7
ENDMDL
MODEL 8
REMARK VINA RESULT:      -5.2      1.693      5.025
REMARK  7 active torsions:
REMARK  status: ('A' for Active; 'I' for Inactive)
REMARK    1  A    between atoms: C_2  and  C_3 
REMARK    2  A    between atoms: C_3  and  O_6 
REMARK    3  A    between atoms: C_3  and  C_4 
REMARK    4  A    between atoms: C_7  and  O_6 
REMARK    5  A    between atoms: C_9  and  C_10 
REMARK    6  A    between atoms: N_15  and  C_14 
REMARK    7  A    between atoms: N_20  and  C_19 
REMARK       I    between atoms: C_22  and  N_20 
ROOT
ATOM      1  C   LIG d   1       3.615  85.649 112.860  0.00  0.00     0.161 C 
ATOM      2  C   LIG d   1       3.197  84.329 113.093  0.00  0.00     0.016 C 
ATOM      3  C   LIG d   1       2.362  83.956 114.172  0.00  0.00     0.038 C 
ATOM      4  C   LIG d   1       1.762  84.908 115.009  0.00  0.00     0.028 C 
ATOM      5  C   LIG d   1       2.558  86.204 115.119  0.00  0.00    -0.047 C 
ATOM      6  C   LIG d   1       2.881  86.718 113.698  0.00  0.00     0.091 C 
ENDROOT
BRANCH   1   7
ATOM      7  O   LIG d   1       3.511  85.955 111.456  0.00  0.00    -0.368 OA
BRANCH   7   8
ATOM      8  C   LIG d   1       2.288  85.534 110.802  0.00  0.00     0.119 C 
BRANCH   8   9
ATOM      9  C   LIG d   1       2.683  84.626 109.621  0.00  0.00     0.028 C 
ATOM     10  C   LIG d   1       1.608  83.573 109.305  0.00  0.00     0.006 C 
ENDBRANCH   8   9
BRANCH   8  11
ATOM     11  C   LIG d   1       1.556  86.723 110.171  0.00  0.00     0.028 C 
ATOM     12  C   LIG d   1       0.144  86.924 110.743  0.00  0.00     0.006 C 
ENDBRANCH   8  11
ENDBRANCH   7   8
ENDBRANCH   1   7
BRANCH   6  13
ATOM     13  N   LIG d   1       3.730  87.937 113.715  0.00  0.00    -0.311 N 
ATOM     14  C   LIG d   1       3.443  89.040 113.025  0.00  0.00     0.210 C 
ATOM     15  C   LIG d   1       4.462  90.175 113.168  0.00  0.00     0.109 C 
ATOM     16  O   LIG d   1       2.425  89.197 112.335  0.00  0.00    -0.276 OA
ATOM     17  H   LIG d   1       4.560  87.908 114.274  0.00  0.00     0.149 HD
ENDBRANCH   6  13
BRANCH   5  18
ATOM     18  N   LIG d   1       1.753  87.156 115.909  0.00  0.00     0.381 N 
ATOM     19  H   LIG d   1       2.310  87.950 116.152  0.00  0.00    -0.090 HD
ATOM     20  H   LIG d   1       1.458  86.706 116.757  0.00  0.00    -0.090 HD
ATOM     21  H   LIG d   1       0.957  87.446 115.384  0.00  0.00    -0.090 HD
ENDBRANCH   5  18
BRANCH   3  22
ATOM     22  C   LIG d   1       2.152  82.613 114.445  0.00  0.00     0.382 C 
ATOM     23  O   LIG d   1       1.245  81.985 113.847  0.00  0.00    -0.241 OA
ATOM     24  O   LIG d   1       2.828  82.032 115.315  0.00  0.00    -0.241 OA
ENDBRANCH   3  22
TORSDOF 7
ENDMDL
MODEL 9
REMARK VINA RESULT:      -4.9      2.643      6.301
REMARK  7 active torsions:
REMARK  status: ('A' for Active; 'I' for Inactive)
REMARK    1  A    between atoms: C_2  and  C_3 
REMARK    2  A    between atoms: C_3  and  O_6 
REMARK    3  A    between atoms: C_3  and  C_4 
REMARK    4  A    between atoms: C_7  and  O_6 
REMARK    5  A    between atoms: C_9  and  C_10 
REMARK    6  A    between atoms: N_15  and  C_14 
REMARK    7  A    between atoms: N_20  and  C_19 
REMARK       I    between atoms: C_22  and  N_20 
ROOT
ATOM      1  C   LIG d   1       1.811  85.083 113.245  0.00  0.00     0.161 C 
ATOM      2  C   LIG d   1       1.027  83.950 112.970  0.00  0.00     0.016 C 
ATOM      3  C   LIG d   1       0.364  83.743 111.739  0.00  0.00     0.038 C 
ATOM      4  C   LIG d   1       0.563  84.589 110.638  0.00  0.00     0.028 C 
ATOM      5  C   LIG d   1       0.944  86.013 111.029  0.00  0.00    -0.047 C 
ATOM      6  C   LIG d   1       2.131  85.962 112.018  0.00  0.00     0.091 C 
ENDROOT
BRANCH   1   7
ATOM      7  O   LIG d   1       3.028  84.686 113.908  0.00  0.00    -0.368 OA
BRANCH   7   8
ATOM      8  C   LIG d   1       3.093  84.948 115.331  0.00  0.00     0.119 C 
BRANCH   8   9
ATOM      9  C   LIG d   1       2.793  83.623 116.060  0.00  0.00     0.028 C 
ATOM     10  C   LIG d   1       2.348  83.842 117.516  0.00  0.00     0.006 C 
ENDBRANCH   8   9
BRANCH   8  11
ATOM     11  C   LIG d   1       1.988  85.912 115.772  0.00  0.00     0.028 C 
ATOM     12  C   LIG d   1       2.521  87.312 116.117  0.00  0.00     0.006 C 
ENDBRANCH   8  11
ENDBRANCH   7   8
ENDBRANCH   1   7
BRANCH   6  13
ATOM     13  N   LIG d   1       2.512  87.309 112.516  0.00  0.00    -0.311 N 
ATOM     14  C   LIG d   1       3.702  87.863 112.294  0.00  0.00     0.210 C 
ATOM     15  C   LIG d   1       3.896  89.251 112.914  0.00  0.00     0.109 C 
ATOM     16  O   LIG d   1       4.605  87.351 111.616  0.00  0.00    -0.276 OA
ATOM     17  H   LIG d   1       1.828  87.808 113.050  0.00  0.00     0.149 HD
ENDBRANCH   6  13
BRANCH   5  18
ATOM     18  N   LIG d   1       1.256  86.748 109.788  0.00  0.00     0.381 N 
ATOM     19  H   LIG d   1       2.242  86.903 109.726  0.00  0.00    -0.090 HD
ATOM     20  H   LIG d   1       0.797  87.641 109.816  0.00  0.00    -0.090 HD
ATOM     21  H   LIG d   1       0.943  86.230 108.997  0.00  0.00    -0.090 HD
ENDBRANCH   5  18
BRANCH   3  22
ATOM     22  C   LIG d   1      -0.543  82.701 111.613  0.00  0.00     0.382 C 
ATOM     23  O   LIG d   1      -1.543  82.646 112.368  0.00  0.00    -0.241 OA
ATOM     24  O   LIG d   1      -0.349  81.792 110.784  0.00  0.00    -0.241 OA
ENDBRANCH   3  22
TORSDOF 7
ENDMDL
