MODEL 1
REMARK VINA RESULT:      -6.1      0.000      0.000
REMARK  7 active torsions:
REMARK  status: ('A' for Active; 'I' for Inactive)
REMARK    1  A    between atoms: C_2  and  C_3 
REMARK    2  A    between atoms: C_3  and  O_6 
REMARK    3  A    between atoms: C_3  and  C_4 
REMARK    4  A    between atoms: C_7  and  O_6 
REMARK    5  A    between atoms: C_9  and  C_10 
REMARK    6  A    between atoms: N_15  and  C_14 
REMARK    7  A    between atoms: N_20  and  C_19 
REMARK       I    between atoms: C_22  and  N_20 
ROOT
ATOM      1  C   LIG d   1       1.139  83.135 109.603  0.00  0.00     0.161 C 
ATOM      2  C   LIG d   1       1.381  84.481 109.925  0.00  0.00     0.016 C 
ATOM      3  C   LIG d   1       0.713  85.164 110.968  0.00  0.00     0.038 C 
ATOM      4  C   LIG d   1      -0.138  84.499 111.863  0.00  0.00     0.028 C 
ATOM      5  C   LIG d   1      -0.797  83.260 111.266  0.00  0.00    -0.047 C 
ATOM      6  C   LIG d   1       0.295  82.364 110.639  0.00  0.00     0.091 C 
ENDROOT
BRANCH   1   7
ATOM      7  O   LIG d   1       2.389  82.457 109.370  0.00  0.00    -0.368 OA
BRANCH   7   8
ATOM      8  C   LIG d   1       3.104  82.013 110.550  0.00  0.00     0.119 C 
BRANCH   8   9
ATOM      9  C   LIG d   1       4.271  82.993 110.780  0.00  0.00     0.028 C 
ATOM     10  C   LIG d   1       4.094  83.827 112.060  0.00  0.00     0.006 C 
ENDBRANCH   8   9
BRANCH   8  11
ATOM     11  C   LIG d   1       3.759  80.648 110.325  0.00  0.00     0.028 C 
ATOM     12  C   LIG d   1       2.999  79.784 109.305  0.00  0.00     0.006 C 
ENDBRANCH   8  11
ENDBRANCH   7   8
ENDBRANCH   1   7
BRANCH   6  13
ATOM     13  N   LIG d   1      -0.272  81.171 109.959  0.00  0.00    -0.311 N 
ATOM     14  C   LIG d   1      -0.451  79.998 110.564  0.00  0.00     0.210 C 
ATOM     15  C   LIG d   1      -1.031  78.894 109.674  0.00  0.00     0.109 C 
ATOM     16  O   LIG d   1      -0.215  79.776 111.761  0.00  0.00    -0.276 OA
ATOM     17  H   LIG d   1      -0.520  81.271 108.994  0.00  0.00     0.149 HD
ENDBRANCH   6  13
BRANCH   5  18
ATOM     18  N   LIG d   1      -1.547  82.590 112.345  0.00  0.00     0.381 N 
ATOM     19  H   LIG d   1      -1.171  81.676 112.501  0.00  0.00    -0.090 HD
ATOM     20  H   LIG d   1      -2.506  82.492 112.063  0.00  0.00    -0.090 HD
ATOM     21  H   LIG d   1      -1.492  83.127 113.182  0.00  0.00    -0.090 HD
ENDBRANCH   5  18
BRANCH   3  22
ATOM     22  C   LIG d   1       0.864  86.536 111.098  0.00  0.00     0.382 C 
ATOM     23  O   LIG d   1       1.971  87.071 110.849  0.00  0.00    -0.241 OA
ATOM     24  O   LIG d   1      -0.079  87.240 111.505  0.00  0.00    -0.241 OA
ENDBRANCH   3  22
TORSDOF 7
ENDMDL
MODEL 2
REMARK VINA RESULT:      -5.7      3.504      5.364
REMARK  7 active torsions:
REMARK  status: ('A' for Active; 'I' for Inactive)
REMARK    1  A    between atoms: C_2  and  C_3 
REMARK    2  A    between atoms: C_3  and  O_6 
REMARK    3  A    between atoms: C_3  and  C_4 
REMARK    4  A    between atoms: C_7  and  O_6 
REMARK    5  A    between atoms: C_9  and  C_10 
REMARK    6  A    between atoms: N_15  and  C_14 
REMARK    7  A    between atoms: N_20  and  C_19 
REMARK       I    between atoms: C_22  and  N_20 
ROOT
ATOM      1  C   LIG d   1       2.339  86.576 112.537  0.00  0.00     0.161 C 
ATOM      2  C   LIG d   1       2.615  87.926 112.811  0.00  0.00     0.016 C 
ATOM      3  C   LIG d   1       3.439  88.350 113.879  0.00  0.00     0.038 C 
ATOM      4  C   LIG d   1       4.169  87.441 114.658  0.00  0.00     0.028 C 
ATOM      5  C   LIG d   1       3.527  86.060 114.740  0.00  0.00    -0.047 C 
ATOM      6  C   LIG d   1       3.216  85.567 113.308  0.00  0.00     0.091 C 
ENDROOT
BRANCH   1   7
ATOM      7  O   LIG d   1       2.430  86.337 111.118  0.00  0.00    -0.368 OA
BRANCH   7   8
ATOM      8  C   LIG d   1       1.175  86.300 110.396  0.00  0.00     0.119 C 
BRANCH   8   9
ATOM      9  C   LIG d   1       0.082  85.860 111.389  0.00  0.00     0.028 C 
ATOM     10  C   LIG d   1      -1.194  86.711 111.273  0.00  0.00     0.006 C 
ENDBRANCH   8   9
BRANCH   8  11
ATOM     11  C   LIG d   1       1.190  85.223 109.307  0.00  0.00     0.028 C 
ATOM     12  C   LIG d   1       0.783  83.838 109.833  0.00  0.00     0.006 C 
ENDBRANCH   8  11
ENDBRANCH   7   8
ENDBRANCH   1   7
BRANCH   6  13
ATOM     13  N   LIG d   1       2.509  84.259 113.300  0.00  0.00    -0.311 N 
ATOM     14  C   LIG d   1       2.950  83.192 112.636  0.00  0.00     0.210 C 
ATOM     15  C   LIG d   1       2.060  81.950 112.745  0.00  0.00     0.109 C 
ATOM     16  O   LIG d   1       4.009  83.147 111.993  0.00  0.00    -0.276 OA
ATOM     17  H   LIG d   1       1.657  84.198 113.822  0.00  0.00     0.149 HD
ENDBRANCH   6  13
BRANCH   5  18
ATOM     18  N   LIG d   1       4.459  85.177 115.465  0.00  0.00     0.381 N 
ATOM     19  H   LIG d   1       4.188  85.115 116.426  0.00  0.00    -0.090 HD
ATOM     20  H   LIG d   1       5.382  85.574 115.424  0.00  0.00    -0.090 HD
ATOM     21  H   LIG d   1       4.461  84.270 115.053  0.00  0.00    -0.090 HD
ENDBRANCH   5  18
BRANCH   3  22
ATOM     22  C   LIG d   1       3.507  89.697 114.200  0.00  0.00     0.382 C 
ATOM     23  O   LIG d   1       2.843  90.145 115.166  0.00  0.00    -0.241 OA
ATOM     24  O   LIG d   1       4.189  90.478 113.510  0.00  0.00    -0.241 OA
ENDBRANCH   3  22
TORSDOF 7
ENDMDL
MODEL 3
REMARK VINA RESULT:      -5.7      1.989      3.240
REMARK  7 active torsions:
REMARK  status: ('A' for Active; 'I' for Inactive)
REMARK    1  A    between atoms: C_2  and  C_3 
REMARK    2  A    between atoms: C_3  and  O_6 
REMARK    3  A    between atoms: C_3  and  C_4 
REMARK    4  A    between atoms: C_7  and  O_6 
REMARK    5  A    between atoms: C_9  and  C_10 
REMARK    6  A    between atoms: N_15  and  C_14 
REMARK    7  A    between atoms: N_20  and  C_19 
REMARK       I    between atoms: C_22  and  N_20 
ROOT
ATOM      1  C   LIG d   1       1.952  84.147 110.483  0.00  0.00     0.161 C 
ATOM      2  C   LIG d   1       1.060  85.157 110.881  0.00  0.00     0.016 C 
ATOM      3  C   LIG d   1      -0.256  84.900 111.332  0.00  0.00     0.038 C 
ATOM      4  C   LIG d   1      -0.719  83.595 111.561  0.00  0.00     0.028 C 
ATOM      5  C   LIG d   1      -0.029  82.547 110.696  0.00  0.00    -0.047 C 
ATOM      6  C   LIG d   1       1.502  82.713 110.831  0.00  0.00     0.091 C 
ENDROOT
BRANCH   1   7
ATOM      7  O   LIG d   1       3.260  84.408 111.029  0.00  0.00    -0.368 OA
BRANCH   7   8
ATOM      8  C   LIG d   1       3.303  85.256 112.203  0.00  0.00     0.119 C 
BRANCH   8   9
ATOM      9  C   LIG d   1       4.296  86.398 111.914  0.00  0.00     0.028 C 
ATOM     10  C   LIG d   1       4.172  87.553 112.922  0.00  0.00     0.006 C 
ENDBRANCH   8   9
BRANCH   8  11
ATOM     11  C   LIG d   1       3.884  84.509 113.408  0.00  0.00     0.028 C 
ATOM     12  C   LIG d   1       2.842  83.639 114.129  0.00  0.00     0.006 C 
ENDBRANCH   8  11
ENDBRANCH   7   8
ENDBRANCH   1   7
BRANCH   6  13
ATOM     13  N   LIG d   1       2.254  81.780 109.952  0.00  0.00    -0.311 N 
ATOM     14  C   LIG d   1       3.258  81.017 110.380  0.00  0.00     0.210 C 
ATOM     15  C   LIG d   1       3.910  80.142 109.305  0.00  0.00     0.109 C 
ATOM     16  O   LIG d   1       3.651  80.959 111.555  0.00  0.00    -0.276 OA
ATOM     17  H   LIG d   1       1.981  81.740 108.989  0.00  0.00     0.149 HD
ENDBRANCH   6  13
BRANCH   5  18
ATOM     18  N   LIG d   1      -0.508  81.222 111.134  0.00  0.00     0.381 N 
ATOM     19  H   LIG d   1      -0.484  81.166 112.133  0.00  0.00    -0.090 HD
ATOM     20  H   LIG d   1       0.104  80.516 110.764  0.00  0.00    -0.090 HD
ATOM     21  H   LIG d   1      -1.437  81.070 110.808  0.00  0.00    -0.090 HD
ENDBRANCH   5  18
BRANCH   3  22
ATOM     22  C   LIG d   1      -1.136  85.954 111.521  0.00  0.00     0.382 C 
ATOM     23  O   LIG d   1      -1.532  86.624 110.537  0.00  0.00    -0.241 OA
ATOM     24  O   LIG d   1      -1.504  86.272 112.668  0.00  0.00    -0.241 OA
ENDBRANCH   3  22
TORSDOF 7
ENDMDL
MODEL 4
REMARK VINA RESULT:      -5.3      7.525     10.968
REMARK  7 active torsions:
REMARK  status: ('A' for Active; 'I' for Inactive)
REMARK    1  A    between atoms: C_2  and  C_3 
REMARK    2  A    between atoms: C_3  and  O_6 
REMARK    3  A    between atoms: C_3  and  C_4 
REMARK    4  A    between atoms: C_7  and  O_6 
REMARK    5  A    between atoms: C_9  and  C_10 
REMARK    6  A    between atoms: N_15  and  C_14 
REMARK    7  A    between atoms: N_20  and  C_19 
REMARK       I    between atoms: C_22  and  N_20 
ROOT
ATOM      1  C   LIG d   1      -3.724  76.122 115.239  0.00  0.00     0.161 C 
ATOM      2  C   LIG d   1      -3.694  75.428 116.460  0.00  0.00     0.016 C 
ATOM      3  C   LIG d   1      -2.568  75.404 117.314  0.00  0.00     0.038 C 
ATOM      4  C   LIG d   1      -1.439  76.202 117.074  0.00  0.00     0.028 C 
ATOM      5  C   LIG d   1      -1.227  76.525 115.599  0.00  0.00    -0.047 C 
ATOM      6  C   LIG d   1      -2.542  77.088 115.015  0.00  0.00     0.091 C 
ENDROOT
BRANCH   1   7
ATOM      7  O   LIG d   1      -4.977  76.823 115.106  0.00  0.00    -0.368 OA
BRANCH   7   8
ATOM      8  C   LIG d   1      -5.971  76.550 116.124  0.00  0.00     0.119 C 
BRANCH   8   9
ATOM      9  C   LIG d   1      -7.205  75.955 115.417  0.00  0.00     0.028 C 
ATOM     10  C   LIG d   1      -8.381  75.729 116.382  0.00  0.00     0.006 C 
ENDBRANCH   8   9
BRANCH   8  11
ATOM     11  C   LIG d   1      -6.465  77.842 116.782  0.00  0.00     0.028 C 
ATOM     12  C   LIG d   1      -5.316  78.763 117.221  0.00  0.00     0.006 C 
ENDBRANCH   8  11
ENDBRANCH   7   8
ENDBRANCH   1   7
BRANCH   6  13
ATOM     13  N   LIG d   1      -2.447  77.352 113.555  0.00  0.00    -0.311 N 
ATOM     14  C   LIG d   1      -2.595  78.561 113.017  0.00  0.00     0.210 C 
ATOM     15  C   LIG d   1      -2.479  78.608 111.490  0.00  0.00     0.109 C 
ATOM     16  O   LIG d   1      -2.780  79.604 113.662  0.00  0.00    -0.276 OA
ATOM     17  H   LIG d   1      -2.269  76.566 112.961  0.00  0.00     0.149 HD
ENDBRANCH   6  13
BRANCH   5  18
ATOM     18  N   LIG d   1      -0.101  77.473 115.507  0.00  0.00     0.381 N 
ATOM     19  H   LIG d   1      -0.373  78.271 114.968  0.00  0.00    -0.090 HD
ATOM     20  H   LIG d   1       0.666  77.023 115.040  0.00  0.00    -0.090 HD
ATOM     21  H   LIG d   1       0.179  77.759 116.420  0.00  0.00    -0.090 HD
ENDBRANCH   5  18
BRANCH   3  22
ATOM     22  C   LIG d   1      -2.547  74.544 118.401  0.00  0.00     0.382 C 
ATOM     23  O   LIG d   1      -2.828  74.974 119.546  0.00  0.00    -0.241 OA
ATOM     24  O   LIG d   1      -2.209  73.354 118.259  0.00  0.00    -0.241 OA
ENDBRANCH   3  22
TORSDOF 7
ENDMDL
MODEL 5
REMARK VINA RESULT:      -5.2      3.091      4.071
REMARK  7 active torsions:
REMARK  status: ('A' for Active; 'I' for Inactive)
REMARK    1  A    between atoms: C_2  and  C_3 
REMARK    2  A    between atoms: C_3  and  O_6 
REMARK    3  A    between atoms: C_3  and  C_4 
REMARK    4  A    between atoms: C_7  and  O_6 
REMARK    5  A    between atoms: C_9  and  C_10 
REMARK    6  A    between atoms: N_15  and  C_14 
REMARK    7  A    between atoms: N_20  and  C_19 
REMARK       I    between atoms: C_22  and  N_20 
ROOT
ATOM      1  C   LIG d   1       3.614  84.761 112.229  0.00  0.00     0.161 C 
ATOM      2  C   LIG d   1       3.934  85.994 112.822  0.00  0.00     0.016 C 
ATOM      3  C   LIG d   1       3.199  87.180 112.598  0.00  0.00     0.038 C 
ATOM      4  C   LIG d   1       1.994  87.181 111.878  0.00  0.00     0.028 C 
ATOM      5  C   LIG d   1       1.906  86.063 110.844  0.00  0.00    -0.047 C 
ATOM      6  C   LIG d   1       2.239  84.718 111.530  0.00  0.00     0.091 C 
ENDROOT
BRANCH   1   7
ATOM      7  O   LIG d   1       3.712  83.708 113.207  0.00  0.00    -0.368 OA
BRANCH   7   8
ATOM      8  C   LIG d   1       2.916  83.876 114.407  0.00  0.00     0.119 C 
BRANCH   8   9
ATOM      9  C   LIG d   1       3.888  83.965 115.599  0.00  0.00     0.028 C 
ATOM     10  C   LIG d   1       3.645  85.214 116.462  0.00  0.00     0.006 C 
ENDBRANCH   8   9
BRANCH   8  11
ATOM     11  C   LIG d   1       2.051  82.641 114.679  0.00  0.00     0.028 C 
ATOM     12  C   LIG d   1       2.205  81.556 113.602  0.00  0.00     0.006 C 
ENDBRANCH   8  11
ENDBRANCH   7   8
ENDBRANCH   1   7
BRANCH   6  13
ATOM     13  N   LIG d   1       2.258  83.583 110.571  0.00  0.00    -0.311 N 
ATOM     14  C   LIG d   1       1.194  82.825 110.311  0.00  0.00     0.210 C 
ATOM     15  C   LIG d   1       1.435  81.695 109.305  0.00  0.00     0.109 C 
ATOM     16  O   LIG d   1       0.065  83.002 110.793  0.00  0.00    -0.276 OA
ATOM     17  H   LIG d   1       3.126  83.389 110.110  0.00  0.00     0.149 HD
ENDBRANCH   6  13
BRANCH   5  18
ATOM     18  N   LIG d   1       0.549  86.097 110.267  0.00  0.00     0.381 N 
ATOM     19  H   LIG d   1       0.348  87.016 109.927  0.00  0.00    -0.090 HD
ATOM     20  H   LIG d   1      -0.116  85.874 110.986  0.00  0.00    -0.090 HD
ATOM     21  H   LIG d   1       0.479  85.438 109.523  0.00  0.00    -0.090 HD
ENDBRANCH   5  18
BRANCH   3  22
ATOM     22  C   LIG d   1       3.688  88.391 113.063  0.00  0.00     0.382 C 
ATOM     23  O   LIG d   1       4.924  88.610 113.061  0.00  0.00    -0.241 OA
ATOM     24  O   LIG d   1       2.914  89.249 113.526  0.00  0.00    -0.241 OA
ENDBRANCH   3  22
TORSDOF 7
ENDMDL
MODEL 6
REMARK VINA RESULT:      -5.2      7.632     10.702
REMARK  7 active torsions:
REMARK  status: ('A' for Active; 'I' for Inactive)
REMARK    1  A    between atoms: C_2  and  C_3 
REMARK    2  A    between atoms: C_3  and  O_6 
REMARK    3  A    between atoms: C_3  and  C_4 
REMARK    4  A    between atoms: C_7  and  O_6 
REMARK    5  A    between atoms: C_9  and  C_10 
REMARK    6  A    between atoms: N_15  and  C_14 
REMARK    7  A    between atoms: N_20  and  C_19 
REMARK       I    between atoms: C_22  and  N_20 
ROOT
ATOM      1  C   LIG d   1      -3.578  76.161 115.639  0.00  0.00     0.161 C 
ATOM      2  C   LIG d   1      -3.610  76.856 114.419  0.00  0.00     0.016 C 
ATOM      3  C   LIG d   1      -2.451  77.344 113.771  0.00  0.00     0.038 C 
ATOM      4  C   LIG d   1      -1.161  77.035 114.228  0.00  0.00     0.028 C 
ATOM      5  C   LIG d   1      -1.097  76.766 115.727  0.00  0.00    -0.047 C 
ATOM      6  C   LIG d   1      -2.172  75.718 116.095  0.00  0.00     0.091 C 
ENDROOT
BRANCH   1   7
ATOM      7  O   LIG d   1      -4.465  75.026 115.578  0.00  0.00    -0.368 OA
BRANCH   7   8
ATOM      8  C   LIG d   1      -5.643  75.092 116.420  0.00  0.00     0.119 C 
BRANCH   8   9
ATOM      9  C   LIG d   1      -6.394  73.755 116.269  0.00  0.00     0.028 C 
ATOM     10  C   LIG d   1      -7.616  73.661 117.199  0.00  0.00     0.006 C 
ENDBRANCH   8   9
BRANCH   8  11
ATOM     11  C   LIG d   1      -6.619  76.164 115.929  0.00  0.00     0.028 C 
ATOM     12  C   LIG d   1      -7.040  75.962 114.465  0.00  0.00     0.006 C 
ENDBRANCH   8  11
ENDBRANCH   7   8
ENDBRANCH   1   7
BRANCH   6  13
ATOM     13  N   LIG d   1      -2.234  75.459 117.558  0.00  0.00    -0.311 N 
ATOM     14  C   LIG d   1      -1.567  74.474 118.157  0.00  0.00     0.210 C 
ATOM     15  C   LIG d   1      -1.787  74.371 119.669  0.00  0.00     0.109 C 
ATOM     16  O   LIG d   1      -0.789  73.696 117.584  0.00  0.00    -0.276 OA
ATOM     17  H   LIG d   1      -2.817  76.063 118.103  0.00  0.00     0.149 HD
ENDBRANCH   6  13
BRANCH   5  18
ATOM     18  N   LIG d   1       0.274  76.324 116.043  0.00  0.00     0.381 N 
ATOM     19  H   LIG d   1       0.561  76.709 116.920  0.00  0.00    -0.090 HD
ATOM     20  H   LIG d   1       0.897  76.663 115.330  0.00  0.00    -0.090 HD
ATOM     21  H   LIG d   1       0.311  75.329 116.081  0.00  0.00    -0.090 HD
ENDBRANCH   5  18
BRANCH   3  22
ATOM     22  C   LIG d   1      -2.579  78.184 112.676  0.00  0.00     0.382 C 
ATOM     23  O   LIG d   1      -3.535  78.032 111.877  0.00  0.00    -0.241 OA
ATOM     24  O   LIG d   1      -1.726  79.063 112.451  0.00  0.00    -0.241 OA
ENDBRANCH   3  22
TORSDOF 7
ENDMDL
MODEL 7
REMARK VINA RESULT:      -5.0      3.185      4.221
REMARK  7 active torsions:
REMARK  status: ('A' for Active; 'I' for Inactive)
REMARK    1  A    between atoms: C_2  and  C_3 
REMARK    2  A    between atoms: C_3  and  O_6 
REMARK    3  A    between atoms: C_3  and  C_4 
REMARK    4  A    between atoms: C_7  and  O_6 
REMARK    5  A    between atoms: C_9  and  C_10 
REMARK    6  A    between atoms: N_15  and  C_14 
REMARK    7  A    between atoms: N_20  and  C_19 
REMARK       I    between atoms: C_22  and  N_20 
ROOT
ATOM      1  C   LIG d   1       1.593  83.685 113.315  0.00  0.00     0.161 C 
ATOM      2  C   LIG d   1       2.251  84.925 113.250  0.00  0.00     0.016 C 
ATOM      3  C   LIG d   1       1.948  85.917 112.288  0.00  0.00     0.038 C 
ATOM      4  C   LIG d   1       0.857  85.795 111.416  0.00  0.00     0.028 C 
ATOM      5  C   LIG d   1       0.483  84.348 111.111  0.00  0.00    -0.047 C 
ATOM      6  C   LIG d   1       0.325  83.579 112.442  0.00  0.00     0.091 C 
ENDROOT
BRANCH   1   7
ATOM      7  O   LIG d   1       1.286  83.366 114.686  0.00  0.00    -0.368 OA
BRANCH   7   8
ATOM      8  C   LIG d   1       2.137  83.976 115.688  0.00  0.00     0.119 C 
BRANCH   8   9
ATOM      9  C   LIG d   1       3.149  82.908 116.147  0.00  0.00     0.028 C 
ATOM     10  C   LIG d   1       4.552  83.493 116.382  0.00  0.00     0.006 C 
ENDBRANCH   8   9
BRANCH   8  11
ATOM     11  C   LIG d   1       1.342  84.346 116.944  0.00  0.00     0.028 C 
ATOM     12  C   LIG d   1       0.910  83.117 117.759  0.00  0.00     0.006 C 
ENDBRANCH   8  11
ENDBRANCH   7   8
ENDBRANCH   1   7
BRANCH   6  13
ATOM     13  N   LIG d   1       0.042  82.135 112.232  0.00  0.00    -0.311 N 
ATOM     14  C   LIG d   1      -1.189  81.631 112.166  0.00  0.00     0.210 C 
ATOM     15  C   LIG d   1      -1.256  80.114 111.965  0.00  0.00     0.109 C 
ATOM     16  O   LIG d   1      -2.231  82.301 112.223  0.00  0.00    -0.276 OA
ATOM     17  H   LIG d   1       0.831  81.524 112.145  0.00  0.00     0.149 HD
ENDBRANCH   6  13
BRANCH   5  18
ATOM     18  N   LIG d   1      -0.751  84.368 110.304  0.00  0.00     0.381 N 
ATOM     19  H   LIG d   1      -1.075  83.432 110.157  0.00  0.00    -0.090 HD
ATOM     20  H   LIG d   1      -0.548  84.775 109.408  0.00  0.00    -0.090 HD
ATOM     21  H   LIG d   1      -1.453  84.901 110.767  0.00  0.00    -0.090 HD
ENDBRANCH   5  18
BRANCH   3  22
ATOM     22  C   LIG d   1       2.768  87.029 112.167  0.00  0.00     0.382 C 
ATOM     23  O   LIG d   1       3.951  86.895 111.772  0.00  0.00    -0.241 OA
ATOM     24  O   LIG d   1       2.353  88.158 112.491  0.00  0.00    -0.241 OA
ENDBRANCH   3  22
TORSDOF 7
ENDMDL
MODEL 8
REMARK VINA RESULT:      -4.7     24.703     26.831
REMARK  7 active torsions:
REMARK  status: ('A' for Active; 'I' for Inactive)
REMARK    1  A    between atoms: C_2  and  C_3 
REMARK    2  A    between atoms: C_3  and  O_6 
REMARK    3  A    between atoms: C_3  and  C_4 
REMARK    4  A    between atoms: C_7  and  O_6 
REMARK    5  A    between atoms: C_9  and  C_10 
REMARK    6  A    between atoms: N_15  and  C_14 
REMARK    7  A    between atoms: N_20  and  C_19 
REMARK       I    between atoms: C_22  and  N_20 
ROOT
ATOM      1  C   LIG d   1     -25.153  85.941 113.389  0.00  0.00     0.161 C 
ATOM      2  C   LIG d   1     -24.053  86.779 113.636  0.00  0.00     0.016 C 
ATOM      3  C   LIG d   1     -22.804  86.307 114.101  0.00  0.00     0.038 C 
ATOM      4  C   LIG d   1     -22.521  84.937 114.206  0.00  0.00     0.028 C 
ATOM      5  C   LIG d   1     -23.759  84.081 114.450  0.00  0.00    -0.047 C 
ATOM      6  C   LIG d   1     -24.829  84.432 113.392  0.00  0.00     0.091 C 
ENDROOT
BRANCH   1   7
ATOM      7  O   LIG d   1     -25.784  86.315 112.148  0.00  0.00    -0.368 OA
BRANCH   7   8
ATOM      8  C   LIG d   1     -26.956  87.160 112.259  0.00  0.00     0.119 C 
BRANCH   8   9
ATOM      9  C   LIG d   1     -28.068  86.522 111.403  0.00  0.00     0.028 C 
ATOM     10  C   LIG d   1     -29.313  87.419 111.296  0.00  0.00     0.006 C 
ENDBRANCH   8   9
BRANCH   8  11
ATOM     11  C   LIG d   1     -26.709  88.539 111.641  0.00  0.00     0.028 C 
ATOM     12  C   LIG d   1     -26.536  89.642 112.697  0.00  0.00     0.006 C 
ENDBRANCH   8  11
ENDBRANCH   7   8
ENDBRANCH   1   7
BRANCH   6  13
ATOM     13  N   LIG d   1     -26.104  83.699 113.609  0.00  0.00    -0.311 N 
ATOM     14  C   LIG d   1     -26.657  82.902 112.696  0.00  0.00     0.210 C 
ATOM     15  C   LIG d   1     -27.982  82.259 113.117  0.00  0.00     0.109 C 
ATOM     16  O   LIG d   1     -26.159  82.642 111.591  0.00  0.00    -0.276 OA
ATOM     17  H   LIG d   1     -26.560  83.829 114.491  0.00  0.00     0.149 HD
ENDBRANCH   6  13
BRANCH   5  18
ATOM     18  N   LIG d   1     -23.340  82.667 114.401  0.00  0.00     0.381 N 
ATOM     19  H   LIG d   1     -22.735  82.466 115.173  0.00  0.00    -0.090 HD
ATOM     20  H   LIG d   1     -22.828  82.509 113.551  0.00  0.00    -0.090 HD
ATOM     21  H   LIG d   1     -24.139  82.073 114.432  0.00  0.00    -0.090 HD
ENDBRANCH   5  18
BRANCH   3  22
ATOM     22  C   LIG d   1     -21.834  87.213 114.504  0.00  0.00     0.382 C 
ATOM     23  O   LIG d   1     -21.715  87.504 115.718  0.00  0.00    -0.241 OA
ATOM     24  O   LIG d   1     -21.107  87.775 113.664  0.00  0.00    -0.241 OA
ENDBRANCH   3  22
TORSDOF 7
ENDMDL
MODEL 9
REMARK VINA RESULT:      -4.6     23.991     25.910
REMARK  7 active torsions:
REMARK  status: ('A' for Active; 'I' for Inactive)
REMARK    1  A    between atoms: C_2  and  C_3 
REMARK    2  A    between atoms: C_3  and  O_6 
REMARK    3  A    between atoms: C_3  and  C_4 
REMARK    4  A    between atoms: C_7  and  O_6 
REMARK    5  A    between atoms: C_9  and  C_10 
REMARK    6  A    between atoms: N_15  and  C_14 
REMARK    7  A    between atoms: N_20  and  C_19 
REMARK       I    between atoms: C_22  and  N_20 
ROOT
ATOM      1  C   LIG d   1     -24.705  83.153 115.416  0.00  0.00     0.161 C 
ATOM      2  C   LIG d   1     -25.093  81.807 115.316  0.00  0.00     0.016 C 
ATOM      3  C   LIG d   1     -24.659  80.946 114.283  0.00  0.00     0.038 C 
ATOM      4  C   LIG d   1     -23.679  81.334 113.357  0.00  0.00     0.028 C 
ATOM      5  C   LIG d   1     -23.636  82.839 113.116  0.00  0.00    -0.047 C 
ATOM      6  C   LIG d   1     -23.549  83.563 114.479  0.00  0.00     0.091 C 
ENDROOT
BRANCH   1   7
ATOM      7  O   LIG d   1     -24.376  83.467 116.784  0.00  0.00    -0.368 OA
BRANCH   7   8
ATOM      8  C   LIG d   1     -23.166  82.863 117.303  0.00  0.00     0.119 C 
BRANCH   8   9
ATOM      9  C   LIG d   1     -23.551  82.065 118.564  0.00  0.00     0.028 C 
ATOM     10  C   LIG d   1     -24.966  82.403 119.063  0.00  0.00     0.006 C 
ENDBRANCH   8   9
BRANCH   8  11
ATOM     11  C   LIG d   1     -22.174  83.927 117.783  0.00  0.00     0.028 C 
ATOM     12  C   LIG d   1     -22.827  85.304 117.980  0.00  0.00     0.006 C 
ENDBRANCH   8  11
ENDBRANCH   7   8
ENDBRANCH   1   7
BRANCH   6  13
ATOM     13  N   LIG d   1     -23.588  85.043 114.339  0.00  0.00    -0.311 N 
ATOM     14  C   LIG d   1     -22.496  85.805 114.313  0.00  0.00     0.210 C 
ATOM     15  C   LIG d   1     -22.760  87.308 114.181  0.00  0.00     0.109 C 
ATOM     16  O   LIG d   1     -21.333  85.377 114.355  0.00  0.00    -0.276 OA
ATOM     17  H   LIG d   1     -24.490  85.471 114.267  0.00  0.00     0.149 HD
ENDBRANCH   6  13
BRANCH   5  18
ATOM     18  N   LIG d   1     -22.483  83.118 112.239  0.00  0.00     0.381 N 
ATOM     19  H   LIG d   1     -22.760  83.731 111.499  0.00  0.00    -0.090 HD
ATOM     20  H   LIG d   1     -22.169  82.255 111.832  0.00  0.00    -0.090 HD
ATOM     21  H   LIG d   1     -21.746  83.533 112.766  0.00  0.00    -0.090 HD
ENDBRANCH   5  18
BRANCH   3  22
ATOM     22  C   LIG d   1     -25.236  79.693 114.144  0.00  0.00     0.382 C 
ATOM     23  O   LIG d   1     -26.181  79.524 113.336  0.00  0.00    -0.241 OA
ATOM     24  O   LIG d   1     -24.853  78.739 114.848  0.00  0.00    -0.241 OA
ENDBRANCH   3  22
TORSDOF 7
ENDMDL
