MODEL 1
REMARK VINA RESULT:      -6.9      0.000      0.000
REMARK  7 active torsions:
REMARK  status: ('A' for Active; 'I' for Inactive)
REMARK    1  A    between atoms: C_2  and  C_3 
REMARK    2  A    between atoms: C_3  and  O_6 
REMARK    3  A    between atoms: C_3  and  C_4 
REMARK    4  A    between atoms: C_7  and  O_6 
REMARK    5  A    between atoms: C_9  and  C_10 
REMARK    6  A    between atoms: N_15  and  C_14 
REMARK    7  A    between atoms: N_20  and  C_19 
REMARK       I    between atoms: C_22  and  N_20 
ROOT
ATOM      1  C   LIG d   1       0.969  83.857 109.166  0.00  0.00     0.161 C 
ATOM      2  C   LIG d   1       0.690  85.123 109.707  0.00  0.00     0.016 C 
ATOM      3  C   LIG d   1      -0.031  85.315 110.908  0.00  0.00     0.038 C 
ATOM      4  C   LIG d   1      -0.393  84.241 111.735  0.00  0.00     0.028 C 
ATOM      5  C   LIG d   1      -0.575  82.929 110.979  0.00  0.00    -0.047 C 
ATOM      6  C   LIG d   1       0.678  82.672 110.111  0.00  0.00     0.091 C 
ENDROOT
BRANCH   1   7
ATOM      7  O   LIG d   1       2.335  83.811 108.710  0.00  0.00    -0.368 OA
BRANCH   7   8
ATOM      8  C   LIG d   1       3.313  83.344 109.672  0.00  0.00     0.119 C 
BRANCH   8   9
ATOM      9  C   LIG d   1       3.836  84.576 110.435  0.00  0.00     0.028 C 
ATOM     10  C   LIG d   1       3.624  84.459 111.954  0.00  0.00     0.006 C 
ENDBRANCH   8   9
BRANCH   8  11
ATOM     11  C   LIG d   1       4.539  82.748 108.975  0.00  0.00     0.028 C 
ATOM     12  C   LIG d   1       4.342  81.277 108.576  0.00  0.00     0.006 C 
ENDBRANCH   8  11
ENDBRANCH   7   8
ENDBRANCH   1   7
BRANCH   6  13
ATOM     13  N   LIG d   1       0.547  81.451 109.275  0.00  0.00    -0.311 N 
ATOM     14  C   LIG d   1       1.072  80.274 109.609  0.00  0.00     0.210 C 
ATOM     15  C   LIG d   1       0.837  79.150 108.595  0.00  0.00     0.109 C 
ATOM     16  O   LIG d   1       1.683  80.045 110.664  0.00  0.00    -0.276 OA
ATOM     17  H   LIG d   1       0.040  81.539 108.416  0.00  0.00     0.149 HD
ENDBRANCH   6  13
BRANCH   5  18
ATOM     18  N   LIG d   1      -0.814  81.870 111.977  0.00  0.00     0.381 N 
ATOM     19  H   LIG d   1      -1.379  81.148 111.576  0.00  0.00    -0.090 HD
ATOM     20  H   LIG d   1      -1.311  82.263 112.757  0.00  0.00    -0.090 HD
ATOM     21  H   LIG d   1       0.054  81.489 112.286  0.00  0.00    -0.090 HD
ENDBRANCH   5  18
BRANCH   3  22
ATOM     22  C   LIG d   1      -0.431  86.592 111.273  0.00  0.00     0.382 C 
ATOM     23  O   LIG d   1       0.398  87.533 111.271  0.00  0.00    -0.241 OA
ATOM     24  O   LIG d   1      -1.600  86.804 111.648  0.00  0.00    -0.241 OA
ENDBRANCH   3  22
TORSDOF 7
ENDMDL
MODEL 2
REMARK VINA RESULT:      -6.6      2.583      4.351
REMARK  7 active torsions:
REMARK  status: ('A' for Active; 'I' for Inactive)
REMARK    1  A    between atoms: C_2  and  C_3 
REMARK    2  A    between atoms: C_3  and  O_6 
REMARK    3  A    between atoms: C_3  and  C_4 
REMARK    4  A    between atoms: C_7  and  O_6 
REMARK    5  A    between atoms: C_9  and  C_10 
REMARK    6  A    between atoms: N_15  and  C_14 
REMARK    7  A    between atoms: N_20  and  C_19 
REMARK       I    between atoms: C_22  and  N_20 
ROOT
ATOM      1  C   LIG d   1       0.326  82.546 111.197  0.00  0.00     0.161 C 
ATOM      2  C   LIG d   1      -0.795  82.264 111.997  0.00  0.00     0.016 C 
ATOM      3  C   LIG d   1      -1.249  80.952 112.264  0.00  0.00     0.038 C 
ATOM      4  C   LIG d   1      -0.520  79.820 111.870  0.00  0.00     0.028 C 
ATOM      5  C   LIG d   1       0.341  80.054 110.633  0.00  0.00    -0.047 C 
ATOM      6  C   LIG d   1       1.198  81.322 110.851  0.00  0.00     0.091 C 
ENDROOT
BRANCH   1   7
ATOM      7  O   LIG d   1       1.125  83.571 111.821  0.00  0.00    -0.368 OA
BRANCH   7   8
ATOM      8  C   LIG d   1       1.086  84.878 111.196  0.00  0.00     0.119 C 
BRANCH   8   9
ATOM      9  C   LIG d   1       0.078  84.805 110.033  0.00  0.00     0.028 C 
ATOM     10  C   LIG d   1      -0.875  86.011 110.006  0.00  0.00     0.006 C 
ENDBRANCH   8   9
BRANCH   8  11
ATOM     11  C   LIG d   1       2.429  85.225 110.548  0.00  0.00     0.028 C 
ATOM     12  C   LIG d   1       3.552  85.432 111.577  0.00  0.00     0.006 C 
ENDBRANCH   8  11
ENDBRANCH   7   8
ENDBRANCH   1   7
BRANCH   6  13
ATOM     13  N   LIG d   1       2.009  81.670 109.655  0.00  0.00    -0.311 N 
ATOM     14  C   LIG d   1       3.323  81.884 109.697  0.00  0.00     0.210 C 
ATOM     15  C   LIG d   1       3.961  82.251 108.354  0.00  0.00     0.109 C 
ATOM     16  O   LIG d   1       4.025  81.773 110.713  0.00  0.00    -0.276 OA
ATOM     17  H   LIG d   1       1.523  81.751 108.783  0.00  0.00     0.149 HD
ENDBRANCH   6  13
BRANCH   5  18
ATOM     18  N   LIG d   1       1.149  78.839 110.417  0.00  0.00     0.381 N 
ATOM     19  H   LIG d   1       0.806  78.342 109.620  0.00  0.00    -0.090 HD
ATOM     20  H   LIG d   1       1.063  78.244 111.222  0.00  0.00    -0.090 HD
ATOM     21  H   LIG d   1       2.105  79.086 110.278  0.00  0.00    -0.090 HD
ENDBRANCH   5  18
BRANCH   3  22
ATOM     22  C   LIG d   1      -2.468  80.763 112.898  0.00  0.00     0.382 C 
ATOM     23  O   LIG d   1      -2.640  79.766 113.640  0.00  0.00    -0.241 OA
ATOM     24  O   LIG d   1      -3.411  81.552 112.702  0.00  0.00    -0.241 OA
ENDBRANCH   3  22
TORSDOF 7
ENDMDL
MODEL 3
REMARK VINA RESULT:      -6.3      2.053      5.191
REMARK  7 active torsions:
REMARK  status: ('A' for Active; 'I' for Inactive)
REMARK    1  A    between atoms: C_2  and  C_3 
REMARK    2  A    between atoms: C_3  and  O_6 
REMARK    3  A    between atoms: C_3  and  C_4 
REMARK    4  A    between atoms: C_7  and  O_6 
REMARK    5  A    between atoms: C_9  and  C_10 
REMARK    6  A    between atoms: N_15  and  C_14 
REMARK    7  A    between atoms: N_20  and  C_19 
REMARK       I    between atoms: C_22  and  N_20 
ROOT
ATOM      1  C   LIG d   1       1.122  81.062 110.723  0.00  0.00     0.161 C 
ATOM      2  C   LIG d   1       1.004  79.692 110.431  0.00  0.00     0.016 C 
ATOM      3  C   LIG d   1      -0.071  78.891 110.880  0.00  0.00     0.038 C 
ATOM      4  C   LIG d   1      -1.186  79.442 111.529  0.00  0.00     0.028 C 
ATOM      5  C   LIG d   1      -0.872  80.729 112.285  0.00  0.00    -0.047 C 
ATOM      6  C   LIG d   1      -0.140  81.704 111.335  0.00  0.00     0.091 C 
ENDROOT
BRANCH   1   7
ATOM      7  O   LIG d   1       1.527  81.780 109.541  0.00  0.00    -0.368 OA
BRANCH   7   8
ATOM      8  C   LIG d   1       2.839  82.393 109.585  0.00  0.00     0.119 C 
BRANCH   8   9
ATOM      9  C   LIG d   1       2.667  83.882 109.231  0.00  0.00     0.028 C 
ATOM     10  C   LIG d   1       3.352  84.811 110.247  0.00  0.00     0.006 C 
ENDBRANCH   8   9
BRANCH   8  11
ATOM     11  C   LIG d   1       3.758  81.821 108.501  0.00  0.00     0.028 C 
ATOM     12  C   LIG d   1       4.607  80.642 109.001  0.00  0.00     0.006 C 
ENDBRANCH   8  11
ENDBRANCH   7   8
ENDBRANCH   1   7
BRANCH   6  13
ATOM     13  N   LIG d   1       0.278  82.955 112.019  0.00  0.00    -0.311 N 
ATOM     14  C   LIG d   1      -0.105  84.169 111.627  0.00  0.00     0.210 C 
ATOM     15  C   LIG d   1       0.457  85.325 112.459  0.00  0.00     0.109 C 
ATOM     16  O   LIG d   1      -0.882  84.395 110.687  0.00  0.00    -0.276 OA
ATOM     17  H   LIG d   1       0.885  82.861 112.811  0.00  0.00     0.149 HD
ENDBRANCH   6  13
BRANCH   5  18
ATOM     18  N   LIG d   1      -2.147  81.267 112.797  0.00  0.00     0.381 N 
ATOM     19  H   LIG d   1      -2.004  82.190 113.157  0.00  0.00    -0.090 HD
ATOM     20  H   LIG d   1      -2.469  80.682 113.548  0.00  0.00    -0.090 HD
ATOM     21  H   LIG d   1      -2.825  81.288 112.068  0.00  0.00    -0.090 HD
ENDBRANCH   5  18
BRANCH   3  22
ATOM     22  C   LIG d   1      -0.018  77.515 110.716  0.00  0.00     0.382 C 
ATOM     23  O   LIG d   1       1.039  76.972 110.312  0.00  0.00    -0.241 OA
ATOM     24  O   LIG d   1      -1.027  76.815 110.923  0.00  0.00    -0.241 OA
ENDBRANCH   3  22
TORSDOF 7
ENDMDL
MODEL 4
REMARK VINA RESULT:      -6.3      2.404      4.880
REMARK  7 active torsions:
REMARK  status: ('A' for Active; 'I' for Inactive)
REMARK    1  A    between atoms: C_2  and  C_3 
REMARK    2  A    between atoms: C_3  and  O_6 
REMARK    3  A    between atoms: C_3  and  C_4 
REMARK    4  A    between atoms: C_7  and  O_6 
REMARK    5  A    between atoms: C_9  and  C_10 
REMARK    6  A    between atoms: N_15  and  C_14 
REMARK    7  A    between atoms: N_20  and  C_19 
REMARK       I    between atoms: C_22  and  N_20 
ROOT
ATOM      1  C   LIG d   1       1.485  81.839 111.935  0.00  0.00     0.161 C 
ATOM      2  C   LIG d   1       2.552  82.160 111.080  0.00  0.00     0.016 C 
ATOM      3  C   LIG d   1       2.679  81.647 109.768  0.00  0.00     0.038 C 
ATOM      4  C   LIG d   1       1.662  80.891 109.166  0.00  0.00     0.028 C 
ATOM      5  C   LIG d   1       0.802  80.126 110.166  0.00  0.00    -0.047 C 
ATOM      6  C   LIG d   1       0.310  81.105 111.256  0.00  0.00     0.091 C 
ENDROOT
BRANCH   1   7
ATOM      7  O   LIG d   1       1.016  83.029 112.599  0.00  0.00    -0.368 OA
BRANCH   7   8
ATOM      8  C   LIG d   1       0.994  84.238 111.801  0.00  0.00     0.119 C 
BRANCH   8   9
ATOM      9  C   LIG d   1       1.787  85.314 112.567  0.00  0.00     0.028 C 
ATOM     10  C   LIG d   1       2.888  85.956 111.707  0.00  0.00     0.006 C 
ENDBRANCH   8   9
BRANCH   8  11
ATOM     11  C   LIG d   1      -0.427  84.795 111.672  0.00  0.00     0.028 C 
ATOM     12  C   LIG d   1      -0.655  85.547 110.351  0.00  0.00     0.006 C 
ENDBRANCH   8  11
ENDBRANCH   7   8
ENDBRANCH   1   7
BRANCH   6  13
ATOM     13  N   LIG d   1      -0.470  80.422 112.322  0.00  0.00    -0.311 N 
ATOM     14  C   LIG d   1      -1.654  80.851 112.753  0.00  0.00     0.210 C 
ATOM     15  C   LIG d   1      -2.278  80.011 113.872  0.00  0.00     0.109 C 
ATOM     16  O   LIG d   1      -2.263  81.829 112.293  0.00  0.00    -0.276 OA
ATOM     17  H   LIG d   1      -0.064  79.602 112.728  0.00  0.00     0.149 HD
ENDBRANCH   6  13
BRANCH   5  18
ATOM     18  N   LIG d   1      -0.299  79.495 109.416  0.00  0.00     0.381 N 
ATOM     19  H   LIG d   1      -1.093  80.103 109.402  0.00  0.00    -0.090 HD
ATOM     20  H   LIG d   1      -0.563  78.643 109.880  0.00  0.00    -0.090 HD
ATOM     21  H   LIG d   1      -0.008  79.297 108.484  0.00  0.00    -0.090 HD
ENDBRANCH   5  18
BRANCH   3  22
ATOM     22  C   LIG d   1       3.853  81.855 109.060  0.00  0.00     0.382 C 
ATOM     23  O   LIG d   1       4.406  82.981 109.081  0.00  0.00    -0.241 OA
ATOM     24  O   LIG d   1       4.340  80.945 108.364  0.00  0.00    -0.241 OA
ENDBRANCH   3  22
TORSDOF 7
ENDMDL
MODEL 5
REMARK VINA RESULT:      -6.2      2.811      3.948
REMARK  7 active torsions:
REMARK  status: ('A' for Active; 'I' for Inactive)
REMARK    1  A    between atoms: C_2  and  C_3 
REMARK    2  A    between atoms: C_3  and  O_6 
REMARK    3  A    between atoms: C_3  and  C_4 
REMARK    4  A    between atoms: C_7  and  O_6 
REMARK    5  A    between atoms: C_9  and  C_10 
REMARK    6  A    between atoms: N_15  and  C_14 
REMARK    7  A    between atoms: N_20  and  C_19 
REMARK       I    between atoms: C_22  and  N_20 
ROOT
ATOM      1  C   LIG d   1       2.817  85.047 111.699  0.00  0.00     0.161 C 
ATOM      2  C   LIG d   1       3.340  86.346 111.816  0.00  0.00     0.016 C 
ATOM      3  C   LIG d   1       3.483  87.019 113.051  0.00  0.00     0.038 C 
ATOM      4  C   LIG d   1       3.252  86.377 114.277  0.00  0.00     0.028 C 
ATOM      5  C   LIG d   1       2.244  85.236 114.182  0.00  0.00    -0.047 C 
ATOM      6  C   LIG d   1       2.664  84.290 113.034  0.00  0.00     0.091 C 
ENDROOT
BRANCH   1   7
ATOM      7  O   LIG d   1       3.616  84.280 110.777  0.00  0.00    -0.368 OA
BRANCH   7   8
ATOM      8  C   LIG d   1       3.013  84.003 109.489  0.00  0.00     0.119 C 
BRANCH   8   9
ATOM      9  C   LIG d   1       1.486  84.129 109.656  0.00  0.00     0.028 C 
ATOM     10  C   LIG d   1       0.882  85.207 108.740  0.00  0.00     0.006 C 
ENDBRANCH   8   9
BRANCH   8  11
ATOM     11  C   LIG d   1       3.256  82.553 109.060  0.00  0.00     0.028 C 
ATOM     12  C   LIG d   1       4.709  82.293 108.634  0.00  0.00     0.006 C 
ENDBRANCH   8  11
ENDBRANCH   7   8
ENDBRANCH   1   7
BRANCH   6  13
ATOM     13  N   LIG d   1       1.685  83.192 112.819  0.00  0.00    -0.311 N 
ATOM     14  C   LIG d   1       2.039  81.927 112.601  0.00  0.00     0.210 C 
ATOM     15  C   LIG d   1       0.873  80.957 112.383  0.00  0.00     0.109 C 
ATOM     16  O   LIG d   1       3.207  81.509 112.599  0.00  0.00    -0.276 OA
ATOM     17  H   LIG d   1       0.715  83.436 112.835  0.00  0.00     0.149 HD
ENDBRANCH   6  13
BRANCH   5  18
ATOM     18  N   LIG d   1       2.203  84.568 115.497  0.00  0.00     0.381 N 
ATOM     19  H   LIG d   1       3.020  84.004 115.616  0.00  0.00    -0.090 HD
ATOM     20  H   LIG d   1       1.397  83.968 115.531  0.00  0.00    -0.090 HD
ATOM     21  H   LIG d   1       2.151  85.248 116.223  0.00  0.00    -0.090 HD
ENDBRANCH   5  18
BRANCH   3  22
ATOM     22  C   LIG d   1       3.824  88.363 113.066  0.00  0.00     0.382 C 
ATOM     23  O   LIG d   1       2.945  89.230 113.290  0.00  0.00    -0.241 OA
ATOM     24  O   LIG d   1       4.990  88.722 112.814  0.00  0.00    -0.241 OA
ENDBRANCH   3  22
TORSDOF 7
ENDMDL
MODEL 6
REMARK VINA RESULT:      -6.2      2.651      4.856
REMARK  7 active torsions:
REMARK  status: ('A' for Active; 'I' for Inactive)
REMARK    1  A    between atoms: C_2  and  C_3 
REMARK    2  A    between atoms: C_3  and  O_6 
REMARK    3  A    between atoms: C_3  and  C_4 
REMARK    4  A    between atoms: C_7  and  O_6 
REMARK    5  A    between atoms: C_9  and  C_10 
REMARK    6  A    between atoms: N_15  and  C_14 
REMARK    7  A    between atoms: N_20  and  C_19 
REMARK       I    between atoms: C_22  and  N_20 
ROOT
ATOM      1  C   LIG d   1       2.173  83.098 112.272  0.00  0.00     0.161 C 
ATOM      2  C   LIG d   1       1.204  82.090 112.132  0.00  0.00     0.016 C 
ATOM      3  C   LIG d   1      -0.157  82.353 111.854  0.00  0.00     0.038 C 
ATOM      4  C   LIG d   1      -0.615  83.643 111.546  0.00  0.00     0.028 C 
ATOM      5  C   LIG d   1       0.227  84.750 112.171  0.00  0.00    -0.047 C 
ATOM      6  C   LIG d   1       1.714  84.503 111.830  0.00  0.00     0.091 C 
ENDROOT
BRANCH   1   7
ATOM      7  O   LIG d   1       3.375  82.720 111.573  0.00  0.00    -0.368 OA
BRANCH   7   8
ATOM      8  C   LIG d   1       3.194  81.907 110.387  0.00  0.00     0.119 C 
BRANCH   8   9
ATOM      9  C   LIG d   1       4.259  80.794 110.421  0.00  0.00     0.028 C 
ATOM     10  C   LIG d   1       4.705  80.365 109.013  0.00  0.00     0.006 C 
ENDBRANCH   8   9
BRANCH   8  11
ATOM     11  C   LIG d   1       3.485  82.707 109.114  0.00  0.00     0.028 C 
ATOM     12  C   LIG d   1       2.210  83.091 108.346  0.00  0.00     0.006 C 
ENDBRANCH   8  11
ENDBRANCH   7   8
ENDBRANCH   1   7
BRANCH   6  13
ATOM     13  N   LIG d   1       2.616  85.494 112.473  0.00  0.00    -0.311 N 
ATOM     14  C   LIG d   1       2.910  86.675 111.934  0.00  0.00     0.210 C 
ATOM     15  C   LIG d   1       3.876  87.538 112.753  0.00  0.00     0.109 C 
ATOM     16  O   LIG d   1       2.438  87.105 110.870  0.00  0.00    -0.276 OA
ATOM     17  H   LIG d   1       3.018  85.240 113.354  0.00  0.00     0.149 HD
ENDBRANCH   6  13
BRANCH   5  18
ATOM     18  N   LIG d   1      -0.278  86.037 111.657  0.00  0.00     0.381 N 
ATOM     19  H   LIG d   1      -1.090  85.882 111.093  0.00  0.00    -0.090 HD
ATOM     20  H   LIG d   1       0.430  86.458 111.081  0.00  0.00    -0.090 HD
ATOM     21  H   LIG d   1      -0.502  86.643 112.416  0.00  0.00    -0.090 HD
ENDBRANCH   5  18
BRANCH   3  22
ATOM     22  C   LIG d   1      -1.083  81.324 111.922  0.00  0.00     0.382 C 
ATOM     23  O   LIG d   1      -0.769  80.171 111.541  0.00  0.00    -0.241 OA
ATOM     24  O   LIG d   1      -2.244  81.543 112.318  0.00  0.00    -0.241 OA
ENDBRANCH   3  22
TORSDOF 7
ENDMDL
MODEL 7
REMARK VINA RESULT:      -6.1      2.421      5.374
REMARK  7 active torsions:
REMARK  status: ('A' for Active; 'I' for Inactive)
REMARK    1  A    between atoms: C_2  and  C_3 
REMARK    2  A    between atoms: C_3  and  O_6 
REMARK    3  A    between atoms: C_3  and  C_4 
REMARK    4  A    between atoms: C_7  and  O_6 
REMARK    5  A    between atoms: C_9  and  C_10 
REMARK    6  A    between atoms: N_15  and  C_14 
REMARK    7  A    between atoms: N_20  and  C_19 
REMARK       I    between atoms: C_22  and  N_20 
ROOT
ATOM      1  C   LIG d   1       2.802  83.546 110.609  0.00  0.00     0.161 C 
ATOM      2  C   LIG d   1       3.440  82.296 110.553  0.00  0.00     0.016 C 
ATOM      3  C   LIG d   1       3.435  81.471 109.405  0.00  0.00     0.038 C 
ATOM      4  C   LIG d   1       2.917  81.911 108.178  0.00  0.00     0.028 C 
ATOM      5  C   LIG d   1       1.820  82.959 108.325  0.00  0.00    -0.047 C 
ATOM      6  C   LIG d   1       2.327  84.092 109.246  0.00  0.00     0.091 C 
ENDROOT
BRANCH   1   7
ATOM      7  O   LIG d   1       3.660  84.503 111.261  0.00  0.00    -0.368 OA
BRANCH   7   8
ATOM      8  C   LIG d   1       3.059  85.275 112.329  0.00  0.00     0.119 C 
BRANCH   8   9
ATOM      9  C   LIG d   1       3.374  86.760 112.062  0.00  0.00     0.028 C 
ATOM     10  C   LIG d   1       3.520  87.571 113.360  0.00  0.00     0.006 C 
ENDBRANCH   8   9
BRANCH   8  11
ATOM     11  C   LIG d   1       3.710  84.959 113.679  0.00  0.00     0.028 C 
ATOM     12  C   LIG d   1       2.972  83.855 114.453  0.00  0.00     0.006 C 
ENDBRANCH   8  11
ENDBRANCH   7   8
ENDBRANCH   1   7
BRANCH   6  13
ATOM     13  N   LIG d   1       1.285  85.117 109.511  0.00  0.00    -0.311 N 
ATOM     14  C   LIG d   1       0.103  84.837 110.057  0.00  0.00     0.210 C 
ATOM     15  C   LIG d   1      -0.833  86.039 110.225  0.00  0.00     0.109 C 
ATOM     16  O   LIG d   1      -0.247  83.714 110.449  0.00  0.00    -0.276 OA
ATOM     17  H   LIG d   1       1.497  86.061 109.252  0.00  0.00     0.149 HD
ENDBRANCH   6  13
BRANCH   5  18
ATOM     18  N   LIG d   1       1.468  83.429 106.971  0.00  0.00     0.381 N 
ATOM     19  H   LIG d   1       1.724  82.738 106.295  0.00  0.00    -0.090 HD
ATOM     20  H   LIG d   1       1.984  84.269 106.774  0.00  0.00    -0.090 HD
ATOM     21  H   LIG d   1       0.490  83.611 106.917  0.00  0.00    -0.090 HD
ENDBRANCH   5  18
BRANCH   3  22
ATOM     22  C   LIG d   1       3.918  80.174 109.488  0.00  0.00     0.382 C 
ATOM     23  O   LIG d   1       5.109  79.927 109.180  0.00  0.00    -0.241 OA
ATOM     24  O   LIG d   1       3.166  79.240 109.825  0.00  0.00    -0.241 OA
ENDBRANCH   3  22
TORSDOF 7
ENDMDL
MODEL 8
REMARK VINA RESULT:      -5.8      5.885      8.037
REMARK  7 active torsions:
REMARK  status: ('A' for Active; 'I' for Inactive)
REMARK    1  A    between atoms: C_2  and  C_3 
REMARK    2  A    between atoms: C_3  and  O_6 
REMARK    3  A    between atoms: C_3  and  C_4 
REMARK    4  A    between atoms: C_7  and  O_6 
REMARK    5  A    between atoms: C_9  and  C_10 
REMARK    6  A    between atoms: N_15  and  C_14 
REMARK    7  A    between atoms: N_20  and  C_19 
REMARK       I    between atoms: C_22  and  N_20 
ROOT
ATOM      1  C   LIG d   1      -1.338  77.798 113.604  0.00  0.00     0.161 C 
ATOM      2  C   LIG d   1      -1.955  79.059 113.555  0.00  0.00     0.016 C 
ATOM      3  C   LIG d   1      -1.769  79.975 112.494  0.00  0.00     0.038 C 
ATOM      4  C   LIG d   1      -1.068  79.629 111.330  0.00  0.00     0.028 C 
ATOM      5  C   LIG d   1      -0.010  78.555 111.557  0.00  0.00    -0.047 C 
ATOM      6  C   LIG d   1      -0.658  77.359 112.290  0.00  0.00     0.091 C 
ENDROOT
BRANCH   1   7
ATOM      7  O   LIG d   1      -2.290  76.804 114.032  0.00  0.00    -0.368 OA
BRANCH   7   8
ATOM      8  C   LIG d   1      -2.378  76.579 115.460  0.00  0.00     0.119 C 
BRANCH   8   9
ATOM      9  C   LIG d   1      -2.313  75.057 115.693  0.00  0.00     0.028 C 
ATOM     10  C   LIG d   1      -0.940  74.465 115.333  0.00  0.00     0.006 C 
ENDBRANCH   8   9
BRANCH   8  11
ATOM     11  C   LIG d   1      -3.738  77.016 116.012  0.00  0.00     0.028 C 
ATOM     12  C   LIG d   1      -4.893  76.130 115.520  0.00  0.00     0.006 C 
ENDBRANCH   8  11
ENDBRANCH   7   8
ENDBRANCH   1   7
BRANCH   6  13
ATOM     13  N   LIG d   1       0.327  76.298 112.627  0.00  0.00    -0.311 N 
ATOM     14  C   LIG d   1       0.604  75.273 111.823  0.00  0.00     0.210 C 
ATOM     15  C   LIG d   1       1.636  74.282 112.370  0.00  0.00     0.109 C 
ATOM     16  O   LIG d   1       0.116  75.107 110.695  0.00  0.00    -0.276 OA
ATOM     17  H   LIG d   1       0.793  76.372 113.510  0.00  0.00     0.149 HD
ENDBRANCH   6  13
BRANCH   5  18
ATOM     18  N   LIG d   1       0.547  78.193 110.240  0.00  0.00     0.381 N 
ATOM     19  H   LIG d   1       1.049  77.330 110.310  0.00  0.00    -0.090 HD
ATOM     20  H   LIG d   1       1.190  78.909 109.950  0.00  0.00    -0.090 HD
ATOM     21  H   LIG d   1      -0.186  78.105 109.572  0.00  0.00    -0.090 HD
ENDBRANCH   5  18
BRANCH   3  22
ATOM     22  C   LIG d   1      -2.255  81.269 112.610  0.00  0.00     0.382 C 
ATOM     23  O   LIG d   1      -1.557  82.238 112.228  0.00  0.00    -0.241 OA
ATOM     24  O   LIG d   1      -3.366  81.482 113.133  0.00  0.00    -0.241 OA
ENDBRANCH   3  22
TORSDOF 7
ENDMDL
MODEL 9
REMARK VINA RESULT:      -5.3      2.678      4.552
REMARK  7 active torsions:
REMARK  status: ('A' for Active; 'I' for Inactive)
REMARK    1  A    between atoms: C_2  and  C_3 
REMARK    2  A    between atoms: C_3  and  O_6 
REMARK    3  A    between atoms: C_3  and  C_4 
REMARK    4  A    between atoms: C_7  and  O_6 
REMARK    5  A    between atoms: C_9  and  C_10 
REMARK    6  A    between atoms: N_15  and  C_14 
REMARK    7  A    between atoms: N_20  and  C_19 
REMARK       I    between atoms: C_22  and  N_20 
ROOT
ATOM      1  C   LIG d   1       0.579  82.198 111.608  0.00  0.00     0.161 C 
ATOM      2  C   LIG d   1      -0.648  81.954 112.249  0.00  0.00     0.016 C 
ATOM      3  C   LIG d   1      -1.269  80.684 112.281  0.00  0.00     0.038 C 
ATOM      4  C   LIG d   1      -0.629  79.532 111.801  0.00  0.00     0.028 C 
ATOM      5  C   LIG d   1       0.384  79.818 110.698  0.00  0.00    -0.047 C 
ATOM      6  C   LIG d   1       1.345  80.931 111.175  0.00  0.00     0.091 C 
ENDROOT
BRANCH   1   7
ATOM      7  O   LIG d   1       1.411  83.026 112.444  0.00  0.00    -0.368 OA
BRANCH   7   8
ATOM      8  C   LIG d   1       1.678  84.362 111.954  0.00  0.00     0.119 C 
BRANCH   8   9
ATOM      9  C   LIG d   1       3.136  84.706 112.317  0.00  0.00     0.028 C 
ATOM     10  C   LIG d   1       4.139  84.178 111.277  0.00  0.00     0.006 C 
ENDBRANCH   8   9
BRANCH   8  11
ATOM     11  C   LIG d   1       0.823  85.404 112.681  0.00  0.00     0.028 C 
ATOM     12  C   LIG d   1      -0.451  85.775 111.906  0.00  0.00     0.006 C 
ENDBRANCH   8  11
ENDBRANCH   7   8
ENDBRANCH   1   7
BRANCH   6  13
ATOM     13  N   LIG d   1       2.317  81.330 110.123  0.00  0.00    -0.311 N 
ATOM     14  C   LIG d   1       1.992  82.082 109.073  0.00  0.00     0.210 C 
ATOM     15  C   LIG d   1       3.140  82.361 108.098  0.00  0.00     0.109 C 
ATOM     16  O   LIG d   1       0.870  82.572 108.874  0.00  0.00    -0.276 OA
ATOM     17  H   LIG d   1       3.257  81.002 110.223  0.00  0.00     0.149 HD
ENDBRANCH   6  13
BRANCH   5  18
ATOM     18  N   LIG d   1       1.074  78.552 110.388  0.00  0.00     0.381 N 
ATOM     19  H   LIG d   1       1.300  78.518 109.413  0.00  0.00    -0.090 HD
ATOM     20  H   LIG d   1       0.457  77.786 110.595  0.00  0.00    -0.090 HD
ATOM     21  H   LIG d   1       1.906  78.474 110.931  0.00  0.00    -0.090 HD
ENDBRANCH   5  18
BRANCH   3  22
ATOM     22  C   LIG d   1      -2.564  80.566 112.763  0.00  0.00     0.382 C 
ATOM     23  O   LIG d   1      -2.945  79.487 113.279  0.00  0.00    -0.241 OA
ATOM     24  O   LIG d   1      -3.370  81.509 112.649  0.00  0.00    -0.241 OA
ENDBRANCH   3  22
TORSDOF 7
ENDMDL
