MODEL 1
REMARK VINA RESULT:      -6.5      0.000      0.000
REMARK  7 active torsions:
REMARK  status: ('A' for Active; 'I' for Inactive)
REMARK    1  A    between atoms: C_2  and  C_3 
REMARK    2  A    between atoms: C_3  and  O_6 
REMARK    3  A    between atoms: C_3  and  C_4 
REMARK    4  A    between atoms: C_7  and  O_6 
REMARK    5  A    between atoms: C_9  and  C_10 
REMARK    6  A    between atoms: N_15  and  C_14 
REMARK    7  A    between atoms: N_20  and  C_19 
REMARK       I    between atoms: C_22  and  N_20 
ROOT
ATOM      1  C   LIG d   1       1.189  83.765 109.654  0.00  0.00     0.161 C 
ATOM      2  C   LIG d   1       0.757  84.915 110.336  0.00  0.00     0.016 C 
ATOM      3  C   LIG d   1      -0.073  84.876 111.480  0.00  0.00     0.038 C 
ATOM      4  C   LIG d   1      -0.407  83.669 112.113  0.00  0.00     0.028 C 
ATOM      5  C   LIG d   1      -0.411  82.472 111.169  0.00  0.00    -0.047 C 
ATOM      6  C   LIG d   1       0.926  82.437 110.395  0.00  0.00     0.091 C 
ENDROOT
BRANCH   1   7
ATOM      7  O   LIG d   1       2.587  83.888 109.326  0.00  0.00    -0.368 OA
BRANCH   7   8
ATOM      8  C   LIG d   1       3.520  83.595 110.394  0.00  0.00     0.119 C 
BRANCH   8   9
ATOM      9  C   LIG d   1       4.068  84.939 110.912  0.00  0.00     0.028 C 
ATOM     10  C   LIG d   1       3.773  85.156 112.406  0.00  0.00     0.006 C 
ENDBRANCH   8   9
BRANCH   8  11
ATOM     11  C   LIG d   1       4.743  82.833 109.873  0.00  0.00     0.028 C 
ATOM     12  C   LIG d   1       4.552  82.310 108.440  0.00  0.00     0.006 C 
ENDBRANCH   8  11
ENDBRANCH   7   8
ENDBRANCH   1   7
BRANCH   6  13
ATOM     13  N   LIG d   1       0.971  81.344 109.389  0.00  0.00    -0.311 N 
ATOM     14  C   LIG d   1       1.803  80.308 109.469  0.00  0.00     0.210 C 
ATOM     15  C   LIG d   1       1.699  79.304 108.316  0.00  0.00     0.109 C 
ATOM     16  O   LIG d   1       2.595  80.107 110.402  0.00  0.00    -0.276 OA
ATOM     17  H   LIG d   1       0.340  81.411 108.614  0.00  0.00     0.149 HD
ENDBRANCH   6  13
BRANCH   5  18
ATOM     18  N   LIG d   1      -0.639  81.263 111.984  0.00  0.00     0.381 N 
ATOM     19  H   LIG d   1      -0.352  81.432 112.928  0.00  0.00    -0.090 HD
ATOM     20  H   LIG d   1      -0.082  80.513 111.615  0.00  0.00    -0.090 HD
ATOM     21  H   LIG d   1      -1.603  81.013 111.962  0.00  0.00    -0.090 HD
ENDBRANCH   5  18
BRANCH   3  22
ATOM     22  C   LIG d   1      -0.611  86.052 111.979  0.00  0.00     0.382 C 
ATOM     23  O   LIG d   1      -0.545  86.301 113.207  0.00  0.00    -0.241 OA
ATOM     24  O   LIG d   1      -1.201  86.848 111.223  0.00  0.00    -0.241 OA
ENDBRANCH   3  22
TORSDOF 7
ENDMDL
MODEL 2
REMARK VINA RESULT:      -6.3      2.592      4.931
REMARK  7 active torsions:
REMARK  status: ('A' for Active; 'I' for Inactive)
REMARK    1  A    between atoms: C_2  and  C_3 
REMARK    2  A    between atoms: C_3  and  O_6 
REMARK    3  A    between atoms: C_3  and  C_4 
REMARK    4  A    between atoms: C_7  and  O_6 
REMARK    5  A    between atoms: C_9  and  C_10 
REMARK    6  A    between atoms: N_15  and  C_14 
REMARK    7  A    between atoms: N_20  and  C_19 
REMARK       I    between atoms: C_22  and  N_20 
ROOT
ATOM      1  C   LIG d   1       1.502  80.794 111.838  0.00  0.00     0.161 C 
ATOM      2  C   LIG d   1       2.585  81.410 111.190  0.00  0.00     0.016 C 
ATOM      3  C   LIG d   1       2.738  81.438 109.785  0.00  0.00     0.038 C 
ATOM      4  C   LIG d   1       1.734  80.978 108.920  0.00  0.00     0.028 C 
ATOM      5  C   LIG d   1       0.855  79.894 109.535  0.00  0.00    -0.047 C 
ATOM      6  C   LIG d   1       0.340  80.384 110.908  0.00  0.00     0.091 C 
ENDROOT
BRANCH   1   7
ATOM      7  O   LIG d   1       1.019  81.642 112.898  0.00  0.00    -0.368 OA
BRANCH   7   8
ATOM      8  C   LIG d   1       1.170  83.068 112.692  0.00  0.00     0.119 C 
BRANCH   8   9
ATOM      9  C   LIG d   1       1.572  83.691 114.043  0.00  0.00     0.028 C 
ATOM     10  C   LIG d   1       1.280  85.200 114.104  0.00  0.00     0.006 C 
ENDBRANCH   8   9
BRANCH   8  11
ATOM     11  C   LIG d   1      -0.165  83.723 112.325  0.00  0.00     0.028 C 
ATOM     12  C   LIG d   1      -0.276  84.052 110.828  0.00  0.00     0.006 C 
ENDBRANCH   8  11
ENDBRANCH   7   8
ENDBRANCH   1   7
BRANCH   6  13
ATOM     13  N   LIG d   1      -0.459  79.350 111.616  0.00  0.00    -0.311 N 
ATOM     14  C   LIG d   1      -1.610  79.609 112.234  0.00  0.00     0.210 C 
ATOM     15  C   LIG d   1      -2.262  78.404 112.918  0.00  0.00     0.109 C 
ATOM     16  O   LIG d   1      -2.169  80.716 112.252  0.00  0.00    -0.276 OA
ATOM     17  H   LIG d   1      -0.095  78.418 111.623  0.00  0.00     0.149 HD
ENDBRANCH   6  13
BRANCH   5  18
ATOM     18  N   LIG d   1      -0.231  79.605 108.580  0.00  0.00     0.381 N 
ATOM     19  H   LIG d   1      -1.029  80.169 108.794  0.00  0.00    -0.090 HD
ATOM     20  H   LIG d   1      -0.495  78.640 108.669  0.00  0.00    -0.090 HD
ATOM     21  H   LIG d   1       0.075  79.789 107.650  0.00  0.00    -0.090 HD
ENDBRANCH   5  18
BRANCH   3  22
ATOM     22  C   LIG d   1       3.925  81.894 109.232  0.00  0.00     0.382 C 
ATOM     23  O   LIG d   1       4.478  82.921 109.693  0.00  0.00    -0.241 OA
ATOM     24  O   LIG d   1       4.427  81.316 108.249  0.00  0.00    -0.241 OA
ENDBRANCH   3  22
TORSDOF 7
ENDMDL
MODEL 3
REMARK VINA RESULT:      -6.1      1.756      2.941
REMARK  7 active torsions:
REMARK  status: ('A' for Active; 'I' for Inactive)
REMARK    1  A    between atoms: C_2  and  C_3 
REMARK    2  A    between atoms: C_3  and  O_6 
REMARK    3  A    between atoms: C_3  and  C_4 
REMARK    4  A    between atoms: C_7  and  O_6 
REMARK    5  A    between atoms: C_9  and  C_10 
REMARK    6  A    between atoms: N_15  and  C_14 
REMARK    7  A    between atoms: N_20  and  C_19 
REMARK       I    between atoms: C_22  and  N_20 
ROOT
ATOM      1  C   LIG d   1       1.490  82.638 109.871  0.00  0.00     0.161 C 
ATOM      2  C   LIG d   1       1.751  84.008 110.043  0.00  0.00     0.016 C 
ATOM      3  C   LIG d   1       0.986  84.846 110.887  0.00  0.00     0.038 C 
ATOM      4  C   LIG d   1      -0.005  84.334 111.739  0.00  0.00     0.028 C 
ATOM      5  C   LIG d   1      -0.638  83.045 111.226  0.00  0.00    -0.047 C 
ATOM      6  C   LIG d   1       0.484  82.040 110.876  0.00  0.00     0.091 C 
ENDROOT
BRANCH   1   7
ATOM      7  O   LIG d   1       2.727  81.898 109.900  0.00  0.00    -0.368 OA
BRANCH   7   8
ATOM      8  C   LIG d   1       3.092  81.219 108.673  0.00  0.00     0.119 C 
BRANCH   8   9
ATOM      9  C   LIG d   1       2.983  79.704 108.933  0.00  0.00     0.028 C 
ATOM     10  C   LIG d   1       1.954  79.023 108.015  0.00  0.00     0.006 C 
ENDBRANCH   8   9
BRANCH   8  11
ATOM     11  C   LIG d   1       4.560  81.465 108.316  0.00  0.00     0.028 C 
ATOM     12  C   LIG d   1       5.137  82.718 108.994  0.00  0.00     0.006 C 
ENDBRANCH   8  11
ENDBRANCH   7   8
ENDBRANCH   1   7
BRANCH   6  13
ATOM     13  N   LIG d   1      -0.046  80.782 110.288  0.00  0.00    -0.311 N 
ATOM     14  C   LIG d   1      -0.330  79.699 111.009  0.00  0.00     0.210 C 
ATOM     15  C   LIG d   1      -0.846  78.503 110.203  0.00  0.00     0.109 C 
ATOM     16  O   LIG d   1      -0.234  79.625 112.243  0.00  0.00    -0.276 OA
ATOM     17  H   LIG d   1      -0.183  80.765 109.297  0.00  0.00     0.149 HD
ENDBRANCH   6  13
BRANCH   5  18
ATOM     18  N   LIG d   1      -1.551  82.550 112.273  0.00  0.00     0.381 N 
ATOM     19  H   LIG d   1      -1.811  81.604 112.077  0.00  0.00    -0.090 HD
ATOM     20  H   LIG d   1      -2.384  83.113 112.271  0.00  0.00    -0.090 HD
ATOM     21  H   LIG d   1      -1.109  82.603 113.164  0.00  0.00    -0.090 HD
ENDBRANCH   5  18
BRANCH   3  22
ATOM     22  C   LIG d   1       1.183  86.218 110.855  0.00  0.00     0.382 C 
ATOM     23  O   LIG d   1       2.341  86.682 110.722  0.00  0.00    -0.241 OA
ATOM     24  O   LIG d   1       0.223  86.997 111.001  0.00  0.00    -0.241 OA
ENDBRANCH   3  22
TORSDOF 7
ENDMDL
MODEL 4
REMARK VINA RESULT:      -6.0      2.620      3.980
REMARK  7 active torsions:
REMARK  status: ('A' for Active; 'I' for Inactive)
REMARK    1  A    between atoms: C_2  and  C_3 
REMARK    2  A    between atoms: C_3  and  O_6 
REMARK    3  A    between atoms: C_3  and  C_4 
REMARK    4  A    between atoms: C_7  and  O_6 
REMARK    5  A    between atoms: C_9  and  C_10 
REMARK    6  A    between atoms: N_15  and  C_14 
REMARK    7  A    between atoms: N_20  and  C_19 
REMARK       I    between atoms: C_22  and  N_20 
ROOT
ATOM      1  C   LIG d   1       0.454  82.003 111.172  0.00  0.00     0.161 C 
ATOM      2  C   LIG d   1      -0.718  81.720 111.894  0.00  0.00     0.016 C 
ATOM      3  C   LIG d   1      -1.359  80.460 111.873  0.00  0.00     0.038 C 
ATOM      4  C   LIG d   1      -0.785  79.346 111.244  0.00  0.00     0.028 C 
ATOM      5  C   LIG d   1       0.136  79.713 110.085  0.00  0.00    -0.047 C 
ATOM      6  C   LIG d   1       1.156  80.769 110.569  0.00  0.00     0.091 C 
ENDROOT
BRANCH   1   7
ATOM      7  O   LIG d   1       1.370  82.746 112.000  0.00  0.00    -0.368 OA
BRANCH   7   8
ATOM      8  C   LIG d   1       1.349  84.186 111.840  0.00  0.00     0.119 C 
BRANCH   8   9
ATOM      9  C   LIG d   1       1.024  84.484 110.364  0.00  0.00     0.028 C 
ATOM     10  C   LIG d   1      -0.105  85.517 110.209  0.00  0.00     0.006 C 
ENDBRANCH   8   9
BRANCH   8  11
ATOM     11  C   LIG d   1       2.735  84.794 112.081  0.00  0.00     0.028 C 
ATOM     12  C   LIG d   1       3.573  84.893 110.796  0.00  0.00     0.006 C 
ENDBRANCH   8  11
ENDBRANCH   7   8
ENDBRANCH   1   7
BRANCH   6  13
ATOM     13  N   LIG d   1       2.041  81.245 109.474  0.00  0.00    -0.311 N 
ATOM     14  C   LIG d   1       3.356  81.406 109.612  0.00  0.00     0.210 C 
ATOM     15  C   LIG d   1       4.078  81.926 108.365  0.00  0.00     0.109 C 
ATOM     16  O   LIG d   1       3.998  81.136 110.638  0.00  0.00    -0.276 OA
ATOM     17  H   LIG d   1       1.608  81.458 108.597  0.00  0.00     0.149 HD
ENDBRANCH   6  13
BRANCH   5  18
ATOM     18  N   LIG d   1       0.772  78.470 109.610  0.00  0.00     0.381 N 
ATOM     19  H   LIG d   1       1.763  78.595 109.557  0.00  0.00    -0.090 HD
ATOM     20  H   LIG d   1       0.431  78.261 108.688  0.00  0.00    -0.090 HD
ATOM     21  H   LIG d   1       0.557  77.719 110.229  0.00  0.00    -0.090 HD
ENDBRANCH   5  18
BRANCH   3  22
ATOM     22  C   LIG d   1      -2.610  80.317 112.454  0.00  0.00     0.382 C 
ATOM     23  O   LIG d   1      -3.351  81.318 112.604  0.00  0.00    -0.241 OA
ATOM     24  O   LIG d   1      -2.989  79.206 112.871  0.00  0.00    -0.241 OA
ENDBRANCH   3  22
TORSDOF 7
ENDMDL
MODEL 5
REMARK VINA RESULT:      -6.0      2.032      3.262
REMARK  7 active torsions:
REMARK  status: ('A' for Active; 'I' for Inactive)
REMARK    1  A    between atoms: C_2  and  C_3 
REMARK    2  A    between atoms: C_3  and  O_6 
REMARK    3  A    between atoms: C_3  and  C_4 
REMARK    4  A    between atoms: C_7  and  O_6 
REMARK    5  A    between atoms: C_9  and  C_10 
REMARK    6  A    between atoms: N_15  and  C_14 
REMARK    7  A    between atoms: N_20  and  C_19 
REMARK       I    between atoms: C_22  and  N_20 
ROOT
ATOM      1  C   LIG d   1       1.055  83.362 110.155  0.00  0.00     0.161 C 
ATOM      2  C   LIG d   1       1.812  84.546 110.161  0.00  0.00     0.016 C 
ATOM      3  C   LIG d   1       2.327  85.135 111.339  0.00  0.00     0.038 C 
ATOM      4  C   LIG d   1       2.247  84.495 112.584  0.00  0.00     0.028 C 
ATOM      5  C   LIG d   1       1.056  83.549 112.704  0.00  0.00    -0.047 C 
ATOM      6  C   LIG d   1       1.053  82.590 111.491  0.00  0.00     0.091 C 
ENDROOT
BRANCH   1   7
ATOM      7  O   LIG d   1       1.496  82.506 109.083  0.00  0.00    -0.368 OA
BRANCH   7   8
ATOM      8  C   LIG d   1       2.591  81.609 109.392  0.00  0.00     0.119 C 
BRANCH   8   9
ATOM      9  C   LIG d   1       3.737  81.923 108.411  0.00  0.00     0.028 C 
ATOM     10  C   LIG d   1       4.914  82.640 109.093  0.00  0.00     0.006 C 
ENDBRANCH   8   9
BRANCH   8  11
ATOM     11  C   LIG d   1       2.211  80.151 109.118  0.00  0.00     0.028 C 
ATOM     12  C   LIG d   1       0.837  80.010 108.444  0.00  0.00     0.006 C 
ENDBRANCH   8  11
ENDBRANCH   7   8
ENDBRANCH   1   7
BRANCH   6  13
ATOM     13  N   LIG d   1      -0.127  81.687 111.487  0.00  0.00    -0.311 N 
ATOM     14  C   LIG d   1      -0.165  80.527 112.139  0.00  0.00     0.210 C 
ATOM     15  C   LIG d   1      -1.471  79.741 111.986  0.00  0.00     0.109 C 
ATOM     16  O   LIG d   1       0.747  80.089 112.857  0.00  0.00    -0.276 OA
ATOM     17  H   LIG d   1      -0.923  81.980 110.955  0.00  0.00     0.149 HD
ENDBRANCH   6  13
BRANCH   5  18
ATOM     18  N   LIG d   1       1.173  82.847 113.996  0.00  0.00     0.381 N 
ATOM     19  H   LIG d   1       0.405  83.096 114.587  0.00  0.00    -0.090 HD
ATOM     20  H   LIG d   1       2.024  83.135 114.447  0.00  0.00    -0.090 HD
ATOM     21  H   LIG d   1       1.183  81.862 113.849  0.00  0.00    -0.090 HD
ENDBRANCH   5  18
BRANCH   3  22
ATOM     22  C   LIG d   1       2.895  86.399 111.283  0.00  0.00     0.382 C 
ATOM     23  O   LIG d   1       2.164  87.409 111.147  0.00  0.00    -0.241 OA
ATOM     24  O   LIG d   1       4.132  86.537 111.323  0.00  0.00    -0.241 OA
ENDBRANCH   3  22
TORSDOF 7
ENDMDL
MODEL 6
REMARK VINA RESULT:      -5.9      2.300      4.755
REMARK  7 active torsions:
REMARK  status: ('A' for Active; 'I' for Inactive)
REMARK    1  A    between atoms: C_2  and  C_3 
REMARK    2  A    between atoms: C_3  and  O_6 
REMARK    3  A    between atoms: C_3  and  C_4 
REMARK    4  A    between atoms: C_7  and  O_6 
REMARK    5  A    between atoms: C_9  and  C_10 
REMARK    6  A    between atoms: N_15  and  C_14 
REMARK    7  A    between atoms: N_20  and  C_19 
REMARK       I    between atoms: C_22  and  N_20 
ROOT
ATOM      1  C   LIG d   1       2.095  81.452 111.535  0.00  0.00     0.161 C 
ATOM      2  C   LIG d   1       1.109  80.461 111.671  0.00  0.00     0.016 C 
ATOM      3  C   LIG d   1      -0.263  80.747 111.859  0.00  0.00     0.038 C 
ATOM      4  C   LIG d   1      -0.766  82.054 111.773  0.00  0.00     0.028 C 
ATOM      5  C   LIG d   1       0.258  83.123 112.140  0.00  0.00    -0.047 C 
ATOM      6  C   LIG d   1       1.550  82.881 111.327  0.00  0.00     0.091 C 
ENDROOT
BRANCH   1   7
ATOM      7  O   LIG d   1       2.998  81.100 110.469  0.00  0.00    -0.368 OA
BRANCH   7   8
ATOM      8  C   LIG d   1       2.522  81.344 109.123  0.00  0.00     0.119 C 
BRANCH   8   9
ATOM      9  C   LIG d   1       2.311  79.974 108.451  0.00  0.00     0.028 C 
ATOM     10  C   LIG d   1       0.825  79.664 108.203  0.00  0.00     0.006 C 
ENDBRANCH   8   9
BRANCH   8  11
ATOM     11  C   LIG d   1       3.584  82.052 108.276  0.00  0.00     0.028 C 
ATOM     12  C   LIG d   1       4.822  82.459 109.091  0.00  0.00     0.006 C 
ENDBRANCH   8  11
ENDBRANCH   7   8
ENDBRANCH   1   7
BRANCH   6  13
ATOM     13  N   LIG d   1       2.633  83.832 111.688  0.00  0.00    -0.311 N 
ATOM     14  C   LIG d   1       2.858  84.970 111.032  0.00  0.00     0.210 C 
ATOM     15  C   LIG d   1       4.038  85.795 111.556  0.00  0.00     0.109 C 
ATOM     16  O   LIG d   1       2.173  85.389 110.088  0.00  0.00    -0.276 OA
ATOM     17  H   LIG d   1       3.218  83.586 112.462  0.00  0.00     0.149 HD
ENDBRANCH   6  13
BRANCH   5  18
ATOM     18  N   LIG d   1      -0.355  84.437 111.874  0.00  0.00     0.381 N 
ATOM     19  H   LIG d   1      -0.306  85.007 112.695  0.00  0.00    -0.090 HD
ATOM     20  H   LIG d   1      -1.324  84.303 111.641  0.00  0.00    -0.090 HD
ATOM     21  H   LIG d   1       0.116  84.887 111.120  0.00  0.00    -0.090 HD
ENDBRANCH   5  18
BRANCH   3  22
ATOM     22  C   LIG d   1      -1.141  79.723 112.178  0.00  0.00     0.382 C 
ATOM     23  O   LIG d   1      -1.282  79.366 113.372  0.00  0.00    -0.241 OA
ATOM     24  O   LIG d   1      -1.762  79.121 111.280  0.00  0.00    -0.241 OA
ENDBRANCH   3  22
TORSDOF 7
ENDMDL
MODEL 7
REMARK VINA RESULT:      -5.9      2.152      4.242
REMARK  7 active torsions:
REMARK  status: ('A' for Active; 'I' for Inactive)
REMARK    1  A    between atoms: C_2  and  C_3 
REMARK    2  A    between atoms: C_3  and  O_6 
REMARK    3  A    between atoms: C_3  and  C_4 
REMARK    4  A    between atoms: C_7  and  O_6 
REMARK    5  A    between atoms: C_9  and  C_10 
REMARK    6  A    between atoms: N_15  and  C_14 
REMARK    7  A    between atoms: N_20  and  C_19 
REMARK       I    between atoms: C_22  and  N_20 
ROOT
ATOM      1  C   LIG d   1       0.736  82.402 111.271  0.00  0.00     0.161 C 
ATOM      2  C   LIG d   1      -0.032  83.466 111.771  0.00  0.00     0.016 C 
ATOM      3  C   LIG d   1       0.389  84.815 111.734  0.00  0.00     0.038 C 
ATOM      4  C   LIG d   1       1.550  85.211 111.054  0.00  0.00     0.028 C 
ATOM      5  C   LIG d   1       2.608  84.116 110.974  0.00  0.00    -0.047 C 
ATOM      6  C   LIG d   1       1.955  82.826 110.425  0.00  0.00     0.091 C 
ENDROOT
BRANCH   1   7
ATOM      7  O   LIG d   1      -0.104  81.502 110.522  0.00  0.00    -0.368 OA
BRANCH   7   8
ATOM      8  C   LIG d   1       0.077  80.090 110.790  0.00  0.00     0.119 C 
BRANCH   8   9
ATOM      9  C   LIG d   1      -0.290  79.324 109.504  0.00  0.00     0.028 C 
ATOM     10  C   LIG d   1       0.557  79.763 108.298  0.00  0.00     0.006 C 
ENDBRANCH   8   9
BRANCH   8  11
ATOM     11  C   LIG d   1      -0.909  79.594 111.852  0.00  0.00     0.028 C 
ATOM     12  C   LIG d   1      -1.804  78.451 111.347  0.00  0.00     0.006 C 
ENDBRANCH   8  11
ENDBRANCH   7   8
ENDBRANCH   1   7
BRANCH   6  13
ATOM     13  N   LIG d   1       2.902  81.681 110.394  0.00  0.00    -0.311 N 
ATOM     14  C   LIG d   1       3.612  81.346 109.318  0.00  0.00     0.210 C 
ATOM     15  C   LIG d   1       4.513  80.119 109.494  0.00  0.00     0.109 C 
ATOM     16  O   LIG d   1       3.606  81.968 108.245  0.00  0.00    -0.276 OA
ATOM     17  H   LIG d   1       2.992  81.141 111.232  0.00  0.00     0.149 HD
ENDBRANCH   6  13
BRANCH   5  18
ATOM     18  N   LIG d   1       3.704  84.616 110.122  0.00  0.00     0.381 N 
ATOM     19  H   LIG d   1       3.339  84.912 109.239  0.00  0.00    -0.090 HD
ATOM     20  H   LIG d   1       4.356  83.869 109.960  0.00  0.00    -0.090 HD
ATOM     21  H   LIG d   1       4.165  85.377 110.571  0.00  0.00    -0.090 HD
ENDBRANCH   5  18
BRANCH   3  22
ATOM     22  C   LIG d   1      -0.335  85.780 112.418  0.00  0.00     0.382 C 
ATOM     23  O   LIG d   1      -1.251  86.408 111.834  0.00  0.00    -0.241 OA
ATOM     24  O   LIG d   1      -0.054  86.062 113.599  0.00  0.00    -0.241 OA
ENDBRANCH   3  22
TORSDOF 7
ENDMDL
MODEL 8
REMARK VINA RESULT:      -5.7      2.768      4.173
REMARK  7 active torsions:
REMARK  status: ('A' for Active; 'I' for Inactive)
REMARK    1  A    between atoms: C_2  and  C_3 
REMARK    2  A    between atoms: C_3  and  O_6 
REMARK    3  A    between atoms: C_3  and  C_4 
REMARK    4  A    between atoms: C_7  and  O_6 
REMARK    5  A    between atoms: C_9  and  C_10 
REMARK    6  A    between atoms: N_15  and  C_14 
REMARK    7  A    between atoms: N_20  and  C_19 
REMARK       I    between atoms: C_22  and  N_20 
ROOT
ATOM      1  C   LIG d   1       0.421  81.949 111.231  0.00  0.00     0.161 C 
ATOM      2  C   LIG d   1      -0.744  81.605 111.937  0.00  0.00     0.016 C 
ATOM      3  C   LIG d   1      -1.341  80.325 111.875  0.00  0.00     0.038 C 
ATOM      4  C   LIG d   1      -0.726  79.250 111.216  0.00  0.00     0.028 C 
ATOM      5  C   LIG d   1       0.187  79.683 110.073  0.00  0.00    -0.047 C 
ATOM      6  C   LIG d   1       1.168  80.758 110.595  0.00  0.00     0.091 C 
ENDROOT
BRANCH   1   7
ATOM      7  O   LIG d   1       1.307  82.698 112.086  0.00  0.00    -0.368 OA
BRANCH   7   8
ATOM      8  C   LIG d   1       1.683  84.016 111.616  0.00  0.00     0.119 C 
BRANCH   8   9
ATOM      9  C   LIG d   1       1.539  84.989 112.803  0.00  0.00     0.028 C 
ATOM     10  C   LIG d   1       1.539  84.264 114.159  0.00  0.00     0.006 C 
ENDBRANCH   8   9
BRANCH   8  11
ATOM     11  C   LIG d   1       0.708  84.528 110.552  0.00  0.00     0.028 C 
ATOM     12  C   LIG d   1      -0.262  85.590 111.094  0.00  0.00     0.006 C 
ENDBRANCH   8  11
ENDBRANCH   7   8
ENDBRANCH   1   7
BRANCH   6  13
ATOM     13  N   LIG d   1       2.041  81.298 109.520  0.00  0.00    -0.311 N 
ATOM     14  C   LIG d   1       3.362  81.419 109.641  0.00  0.00     0.210 C 
ATOM     15  C   LIG d   1       4.070  82.017 108.421  0.00  0.00     0.109 C 
ATOM     16  O   LIG d   1       4.018  81.059 110.630  0.00  0.00    -0.276 OA
ATOM     17  H   LIG d   1       1.595  81.585 108.671  0.00  0.00     0.149 HD
ENDBRANCH   6  13
BRANCH   5  18
ATOM     18  N   LIG d   1       0.868  78.477 109.565  0.00  0.00     0.381 N 
ATOM     19  H   LIG d   1       1.034  77.839 110.318  0.00  0.00    -0.090 HD
ATOM     20  H   LIG d   1       1.755  78.744 109.177  0.00  0.00    -0.090 HD
ATOM     21  H   LIG d   1       0.309  78.039 108.866  0.00  0.00    -0.090 HD
ENDBRANCH   5  18
BRANCH   3  22
ATOM     22  C   LIG d   1      -2.589  80.121 112.444  0.00  0.00     0.382 C 
ATOM     23  O   LIG d   1      -2.955  78.961 112.753  0.00  0.00    -0.241 OA
ATOM     24  O   LIG d   1      -3.371  81.076 112.611  0.00  0.00    -0.241 OA
ENDBRANCH   3  22
TORSDOF 7
ENDMDL
MODEL 9
REMARK VINA RESULT:      -5.7      2.630      4.815
REMARK  7 active torsions:
REMARK  status: ('A' for Active; 'I' for Inactive)
REMARK    1  A    between atoms: C_2  and  C_3 
REMARK    2  A    between atoms: C_3  and  O_6 
REMARK    3  A    between atoms: C_3  and  C_4 
REMARK    4  A    between atoms: C_7  and  O_6 
REMARK    5  A    between atoms: C_9  and  C_10 
REMARK    6  A    between atoms: N_15  and  C_14 
REMARK    7  A    between atoms: N_20  and  C_19 
REMARK       I    between atoms: C_22  and  N_20 
ROOT
ATOM      1  C   LIG d   1       2.442  83.376 111.545  0.00  0.00     0.161 C 
ATOM      2  C   LIG d   1       1.530  82.310 111.462  0.00  0.00     0.016 C 
ATOM      3  C   LIG d   1       0.172  82.418 111.841  0.00  0.00     0.038 C 
ATOM      4  C   LIG d   1      -0.406  83.648 112.188  0.00  0.00     0.028 C 
ATOM      5  C   LIG d   1       0.592  84.644 112.769  0.00  0.00    -0.047 C 
ATOM      6  C   LIG d   1       1.804  84.754 111.816  0.00  0.00     0.091 C 
ENDROOT
BRANCH   1   7
ATOM      7  O   LIG d   1       3.248  83.423 110.350  0.00  0.00    -0.368 OA
BRANCH   7   8
ATOM      8  C   LIG d   1       3.001  82.382 109.373  0.00  0.00     0.119 C 
BRANCH   8   9
ATOM      9  C   LIG d   1       4.368  81.812 108.948  0.00  0.00     0.028 C 
ATOM     10  C   LIG d   1       4.492  80.307 109.239  0.00  0.00     0.006 C 
ENDBRANCH   8   9
BRANCH   8  11
ATOM     11  C   LIG d   1       2.384  82.954 108.094  0.00  0.00     0.028 C 
ATOM     12  C   LIG d   1       1.506  84.188 108.355  0.00  0.00     0.006 C 
ENDBRANCH   8  11
ENDBRANCH   7   8
ENDBRANCH   1   7
BRANCH   6  13
ATOM     13  N   LIG d   1       2.867  85.645 112.351  0.00  0.00    -0.311 N 
ATOM     14  C   LIG d   1       2.978  86.931 112.024  0.00  0.00     0.210 C 
ATOM     15  C   LIG d   1       4.157  87.663 112.673  0.00  0.00     0.109 C 
ATOM     16  O   LIG d   1       2.194  87.544 111.284  0.00  0.00    -0.276 OA
ATOM     17  H   LIG d   1       3.528  85.237 112.983  0.00  0.00     0.149 HD
ENDBRANCH   6  13
BRANCH   5  18
ATOM     18  N   LIG d   1      -0.114  85.925 112.957  0.00  0.00     0.381 N 
ATOM     19  H   LIG d   1      -0.578  86.184 112.109  0.00  0.00    -0.090 HD
ATOM     20  H   LIG d   1       0.558  86.637 113.180  0.00  0.00    -0.090 HD
ATOM     21  H   LIG d   1      -0.778  85.843 113.696  0.00  0.00    -0.090 HD
ENDBRANCH   5  18
BRANCH   3  22
ATOM     22  C   LIG d   1      -0.613  81.277 111.913  0.00  0.00     0.382 C 
ATOM     23  O   LIG d   1      -1.851  81.379 112.091  0.00  0.00    -0.241 OA
ATOM     24  O   LIG d   1      -0.093  80.147 111.848  0.00  0.00    -0.241 OA
ENDBRANCH   3  22
TORSDOF 7
ENDMDL
