MODEL 1
REMARK VINA RESULT:      -6.8      0.000      0.000
REMARK  7 active torsions:
REMARK  status: ('A' for Active; 'I' for Inactive)
REMARK    1  A    between atoms: C_2  and  C_3 
REMARK    2  A    between atoms: C_3  and  O_6 
REMARK    3  A    between atoms: C_3  and  C_4 
REMARK    4  A    between atoms: C_7  and  O_6 
REMARK    5  A    between atoms: C_9  and  C_10 
REMARK    6  A    between atoms: N_15  and  C_14 
REMARK    7  A    between atoms: N_20  and  C_19 
REMARK       I    between atoms: C_22  and  N_20 
ROOT
ATOM      1  C   LIG d   1      -0.002  82.666 111.145  0.00  0.00     0.161 C 
ATOM      2  C   LIG d   1      -1.141  82.343 111.900  0.00  0.00     0.016 C 
ATOM      3  C   LIG d   1      -1.623  81.023 112.055  0.00  0.00     0.038 C 
ATOM      4  C   LIG d   1      -0.906  79.912 111.586  0.00  0.00     0.028 C 
ATOM      5  C   LIG d   1      -0.018  80.226 110.387  0.00  0.00    -0.047 C 
ATOM      6  C   LIG d   1       0.856  81.457 110.719  0.00  0.00     0.091 C 
ENDROOT
BRANCH   1   7
ATOM      7  O   LIG d   1       0.803  83.624 111.861  0.00  0.00    -0.368 OA
BRANCH   7   8
ATOM      8  C   LIG d   1       0.553  85.019 111.560  0.00  0.00     0.119 C 
BRANCH   8   9
ATOM      9  C   LIG d   1       0.221  85.116 110.058  0.00  0.00     0.028 C 
ATOM     10  C   LIG d   1      -0.959  86.062 109.778  0.00  0.00     0.006 C 
ENDBRANCH   8   9
BRANCH   8  11
ATOM     11  C   LIG d   1       1.814  85.866 111.752  0.00  0.00     0.028 C 
ATOM     12  C   LIG d   1       2.967  85.435 110.831  0.00  0.00     0.006 C 
ENDBRANCH   8  11
ENDBRANCH   7   8
ENDBRANCH   1   7
BRANCH   6  13
ATOM     13  N   LIG d   1       1.695  81.884 109.568  0.00  0.00    -0.311 N 
ATOM     14  C   LIG d   1       3.024  81.951 109.615  0.00  0.00     0.210 C 
ATOM     15  C   LIG d   1       3.693  82.434 108.324  0.00  0.00     0.109 C 
ATOM     16  O   LIG d   1       3.715  81.626 110.592  0.00  0.00    -0.276 OA
ATOM     17  H   LIG d   1       1.217  82.135 108.725  0.00  0.00     0.149 HD
ENDBRANCH   6  13
BRANCH   5  18
ATOM     18  N   LIG d   1       0.773  79.018 110.089  0.00  0.00     0.381 N 
ATOM     19  H   LIG d   1       1.739  79.187 110.289  0.00  0.00    -0.090 HD
ATOM     20  H   LIG d   1       0.686  78.805 109.111  0.00  0.00    -0.090 HD
ATOM     21  H   LIG d   1       0.443  78.251 110.634  0.00  0.00    -0.090 HD
ENDBRANCH   5  18
BRANCH   3  22
ATOM     22  C   LIG d   1      -2.856  80.807 112.651  0.00  0.00     0.382 C 
ATOM     23  O   LIG d   1      -3.879  81.378 112.201  0.00  0.00    -0.241 OA
ATOM     24  O   LIG d   1      -2.952  80.083 113.660  0.00  0.00    -0.241 OA
ENDBRANCH   3  22
TORSDOF 7
ENDMDL
MODEL 2
REMARK VINA RESULT:      -6.6      1.772      5.014
REMARK  7 active torsions:
REMARK  status: ('A' for Active; 'I' for Inactive)
REMARK    1  A    between atoms: C_2  and  C_3 
REMARK    2  A    between atoms: C_3  and  O_6 
REMARK    3  A    between atoms: C_3  and  C_4 
REMARK    4  A    between atoms: C_7  and  O_6 
REMARK    5  A    between atoms: C_9  and  C_10 
REMARK    6  A    between atoms: N_15  and  C_14 
REMARK    7  A    between atoms: N_20  and  C_19 
REMARK       I    between atoms: C_22  and  N_20 
ROOT
ATOM      1  C   LIG d   1       1.352  81.542 111.801  0.00  0.00     0.161 C 
ATOM      2  C   LIG d   1       2.392  82.233 111.158  0.00  0.00     0.016 C 
ATOM      3  C   LIG d   1       2.587  82.218 109.757  0.00  0.00     0.038 C 
ATOM      4  C   LIG d   1       1.659  81.629 108.886  0.00  0.00     0.028 C 
ATOM      5  C   LIG d   1       0.868  80.492 109.522  0.00  0.00    -0.047 C 
ATOM      6  C   LIG d   1       0.265  80.986 110.857  0.00  0.00     0.091 C 
ENDROOT
BRANCH   1   7
ATOM      7  O   LIG d   1       0.757  82.383 112.809  0.00  0.00    -0.368 OA
BRANCH   7   8
ATOM      8  C   LIG d   1       0.827  83.810 112.572  0.00  0.00     0.119 C 
BRANCH   8   9
ATOM      9  C   LIG d   1       1.162  84.487 113.915  0.00  0.00     0.028 C 
ATOM     10  C   LIG d   1       1.035  86.018 113.849  0.00  0.00     0.006 C 
ENDBRANCH   8   9
BRANCH   8  11
ATOM     11  C   LIG d   1      -0.536  84.375 112.162  0.00  0.00     0.028 C 
ATOM     12  C   LIG d   1      -0.664  84.580 110.645  0.00  0.00     0.006 C 
ENDBRANCH   8  11
ENDBRANCH   7   8
ENDBRANCH   1   7
BRANCH   6  13
ATOM     13  N   LIG d   1      -0.456  79.910 111.586  0.00  0.00    -0.311 N 
ATOM     14  C   LIG d   1      -1.632  80.090 112.185  0.00  0.00     0.210 C 
ATOM     15  C   LIG d   1      -2.191  78.854 112.897  0.00  0.00     0.109 C 
ATOM     16  O   LIG d   1      -2.280  81.147 112.166  0.00  0.00    -0.276 OA
ATOM     17  H   LIG d   1      -0.016  79.011 111.624  0.00  0.00     0.149 HD
ENDBRANCH   6  13
BRANCH   5  18
ATOM     18  N   LIG d   1      -0.155  80.062 108.550  0.00  0.00     0.381 N 
ATOM     19  H   LIG d   1       0.157  80.259 107.620  0.00  0.00    -0.090 HD
ATOM     20  H   LIG d   1      -0.999  80.582 108.715  0.00  0.00    -0.090 HD
ATOM     21  H   LIG d   1      -0.332  79.087 108.649  0.00  0.00    -0.090 HD
ENDBRANCH   5  18
BRANCH   3  22
ATOM     22  C   LIG d   1       3.743  82.763 109.219  0.00  0.00     0.382 C 
ATOM     23  O   LIG d   1       4.214  83.826 109.690  0.00  0.00    -0.241 OA
ATOM     24  O   LIG d   1       4.296  82.229 108.239  0.00  0.00    -0.241 OA
ENDBRANCH   3  22
TORSDOF 7
ENDMDL
MODEL 3
REMARK VINA RESULT:      -6.6      2.390      4.413
REMARK  7 active torsions:
REMARK  status: ('A' for Active; 'I' for Inactive)
REMARK    1  A    between atoms: C_2  and  C_3 
REMARK    2  A    between atoms: C_3  and  O_6 
REMARK    3  A    between atoms: C_3  and  C_4 
REMARK    4  A    between atoms: C_7  and  O_6 
REMARK    5  A    between atoms: C_9  and  C_10 
REMARK    6  A    between atoms: N_15  and  C_14 
REMARK    7  A    between atoms: N_20  and  C_19 
REMARK       I    between atoms: C_22  and  N_20 
ROOT
ATOM      1  C   LIG d   1       1.897  82.869 111.998  0.00  0.00     0.161 C 
ATOM      2  C   LIG d   1       0.839  81.952 111.887  0.00  0.00     0.016 C 
ATOM      3  C   LIG d   1      -0.519  82.338 111.804  0.00  0.00     0.038 C 
ATOM      4  C   LIG d   1      -0.902  83.681 111.674  0.00  0.00     0.028 C 
ATOM      5  C   LIG d   1       0.095  84.657 112.289  0.00  0.00    -0.047 C 
ATOM      6  C   LIG d   1       1.507  84.341 111.746  0.00  0.00     0.091 C 
ENDROOT
BRANCH   1   7
ATOM      7  O   LIG d   1       2.975  82.479 111.125  0.00  0.00    -0.368 OA
BRANCH   7   8
ATOM      8  C   LIG d   1       2.590  81.835 109.885  0.00  0.00     0.119 C 
BRANCH   8   9
ATOM      9  C   LIG d   1       3.442  80.559 109.743  0.00  0.00     0.028 C 
ATOM     10  C   LIG d   1       2.612  79.346 109.291  0.00  0.00     0.006 C 
ENDBRANCH   8   9
BRANCH   8  11
ATOM     11  C   LIG d   1       2.948  82.699 108.673  0.00  0.00     0.028 C 
ATOM     12  C   LIG d   1       1.734  83.442 108.092  0.00  0.00     0.006 C 
ENDBRANCH   8  11
ENDBRANCH   7   8
ENDBRANCH   1   7
BRANCH   6  13
ATOM     13  N   LIG d   1       2.556  85.196 112.361  0.00  0.00    -0.311 N 
ATOM     14  C   LIG d   1       2.928  86.373 111.862  0.00  0.00     0.210 C 
ATOM     15  C   LIG d   1       4.041  87.083 112.640  0.00  0.00     0.109 C 
ATOM     16  O   LIG d   1       2.420  86.911 110.867  0.00  0.00    -0.276 OA
ATOM     17  H   LIG d   1       2.999  84.849 113.190  0.00  0.00     0.149 HD
ENDBRANCH   6  13
BRANCH   5  18
ATOM     18  N   LIG d   1      -0.358  86.022 111.961  0.00  0.00     0.381 N 
ATOM     19  H   LIG d   1       0.020  86.672 112.621  0.00  0.00    -0.090 HD
ATOM     20  H   LIG d   1      -1.360  86.056 112.023  0.00  0.00    -0.090 HD
ATOM     21  H   LIG d   1      -0.067  86.266 111.040  0.00  0.00    -0.090 HD
ENDBRANCH   5  18
BRANCH   3  22
ATOM     22  C   LIG d   1      -1.513  81.375 111.891  0.00  0.00     0.382 C 
ATOM     23  O   LIG d   1      -1.265  80.187 111.575  0.00  0.00    -0.241 OA
ATOM     24  O   LIG d   1      -2.667  81.688 112.240  0.00  0.00    -0.241 OA
ENDBRANCH   3  22
TORSDOF 7
ENDMDL
MODEL 4
REMARK VINA RESULT:      -6.4      2.655      4.392
REMARK  7 active torsions:
REMARK  status: ('A' for Active; 'I' for Inactive)
REMARK    1  A    between atoms: C_2  and  C_3 
REMARK    2  A    between atoms: C_3  and  O_6 
REMARK    3  A    between atoms: C_3  and  C_4 
REMARK    4  A    between atoms: C_7  and  O_6 
REMARK    5  A    between atoms: C_9  and  C_10 
REMARK    6  A    between atoms: N_15  and  C_14 
REMARK    7  A    between atoms: N_20  and  C_19 
REMARK       I    between atoms: C_22  and  N_20 
ROOT
ATOM      1  C   LIG d   1       1.003  83.940 109.236  0.00  0.00     0.161 C 
ATOM      2  C   LIG d   1       0.653  85.241 109.632  0.00  0.00     0.016 C 
ATOM      3  C   LIG d   1      -0.227  85.518 110.704  0.00  0.00     0.038 C 
ATOM      4  C   LIG d   1      -0.701  84.508 111.554  0.00  0.00     0.028 C 
ATOM      5  C   LIG d   1      -0.777  83.140 110.885  0.00  0.00    -0.047 C 
ATOM      6  C   LIG d   1       0.583  82.829 110.221  0.00  0.00     0.091 C 
ENDROOT
BRANCH   1   7
ATOM      7  O   LIG d   1       2.420  83.872 108.978  0.00  0.00    -0.368 OA
BRANCH   7   8
ATOM      8  C   LIG d   1       3.260  83.561 110.116  0.00  0.00     0.119 C 
BRANCH   8   9
ATOM      9  C   LIG d   1       3.880  84.883 110.609  0.00  0.00     0.028 C 
ATOM     10  C   LIG d   1       3.447  85.236 112.042  0.00  0.00     0.006 C 
ENDBRANCH   8   9
BRANCH   8  11
ATOM     11  C   LIG d   1       4.448  82.683 109.709  0.00  0.00     0.028 C 
ATOM     12  C   LIG d   1       4.223  81.961 108.371  0.00  0.00     0.006 C 
ENDBRANCH   8  11
ENDBRANCH   7   8
ENDBRANCH   1   7
BRANCH   6  13
ATOM     13  N   LIG d   1       0.569  81.546 109.472  0.00  0.00    -0.311 N 
ATOM     14  C   LIG d   1       1.316  80.494 109.804  0.00  0.00     0.210 C 
ATOM     15  C   LIG d   1       1.164  79.277 108.887  0.00  0.00     0.109 C 
ATOM     16  O   LIG d   1       2.067  80.443 110.790  0.00  0.00    -0.276 OA
ATOM     17  H   LIG d   1      -0.036  81.489 108.676  0.00  0.00     0.149 HD
ENDBRANCH   6  13
BRANCH   5  18
ATOM     18  N   LIG d   1      -1.154  82.159 111.920  0.00  0.00     0.381 N 
ATOM     19  H   LIG d   1      -0.704  81.284 111.737  0.00  0.00    -0.090 HD
ATOM     20  H   LIG d   1      -2.148  82.015 111.885  0.00  0.00    -0.090 HD
ATOM     21  H   LIG d   1      -0.891  82.494 112.820  0.00  0.00    -0.090 HD
ENDBRANCH   5  18
BRANCH   3  22
ATOM     22  C   LIG d   1      -0.672  86.815 110.910  0.00  0.00     0.382 C 
ATOM     23  O   LIG d   1       0.141  87.714 111.232  0.00  0.00    -0.241 OA
ATOM     24  O   LIG d   1      -1.885  87.088 110.820  0.00  0.00    -0.241 OA
ENDBRANCH   3  22
TORSDOF 7
ENDMDL
MODEL 5
REMARK VINA RESULT:      -6.1      3.260      6.634
REMARK  7 active torsions:
REMARK  status: ('A' for Active; 'I' for Inactive)
REMARK    1  A    between atoms: C_2  and  C_3 
REMARK    2  A    between atoms: C_3  and  O_6 
REMARK    3  A    between atoms: C_3  and  C_4 
REMARK    4  A    between atoms: C_7  and  O_6 
REMARK    5  A    between atoms: C_9  and  C_10 
REMARK    6  A    between atoms: N_15  and  C_14 
REMARK    7  A    between atoms: N_20  and  C_19 
REMARK       I    between atoms: C_22  and  N_20 
ROOT
ATOM      1  C   LIG d   1       2.908  85.262 111.557  0.00  0.00     0.161 C 
ATOM      2  C   LIG d   1       3.858  86.267 111.807  0.00  0.00     0.016 C 
ATOM      3  C   LIG d   1       3.760  87.180 112.882  0.00  0.00     0.038 C 
ATOM      4  C   LIG d   1       2.778  87.053 113.876  0.00  0.00     0.028 C 
ATOM      5  C   LIG d   1       1.507  86.366 113.387  0.00  0.00    -0.047 C 
ATOM      6  C   LIG d   1       1.889  85.038 112.694  0.00  0.00     0.091 C 
ENDROOT
BRANCH   1   7
ATOM      7  O   LIG d   1       3.576  84.027 111.233  0.00  0.00    -0.368 OA
BRANCH   7   8
ATOM      8  C   LIG d   1       3.616  83.674 109.828  0.00  0.00     0.119 C 
BRANCH   8   9
ATOM      9  C   LIG d   1       2.199  83.883 109.258  0.00  0.00     0.028 C 
ATOM     10  C   LIG d   1       2.015  83.215 107.885  0.00  0.00     0.006 C 
ENDBRANCH   8   9
BRANCH   8  11
ATOM     11  C   LIG d   1       3.914  82.184 109.637  0.00  0.00     0.028 C 
ATOM     12  C   LIG d   1       3.128  81.289 110.609  0.00  0.00     0.006 C 
ENDBRANCH   8  11
ENDBRANCH   7   8
ENDBRANCH   1   7
BRANCH   6  13
ATOM     13  N   LIG d   1       0.711  84.343 112.112  0.00  0.00    -0.311 N 
ATOM     14  C   LIG d   1       0.400  83.077 112.382  0.00  0.00     0.210 C 
ATOM     15  C   LIG d   1      -0.844  82.549 111.661  0.00  0.00     0.109 C 
ATOM     16  O   LIG d   1       1.018  82.350 113.175  0.00  0.00    -0.276 OA
ATOM     17  H   LIG d   1       0.137  84.869 111.482  0.00  0.00     0.149 HD
ENDBRANCH   6  13
BRANCH   5  18
ATOM     18  N   LIG d   1       0.626  86.176 114.555  0.00  0.00     0.381 N 
ATOM     19  H   LIG d   1      -0.312  86.429 114.316  0.00  0.00    -0.090 HD
ATOM     20  H   LIG d   1       0.935  86.779 115.297  0.00  0.00    -0.090 HD
ATOM     21  H   LIG d   1       0.657  85.227 114.854  0.00  0.00    -0.090 HD
ENDBRANCH   5  18
BRANCH   3  22
ATOM     22  C   LIG d   1       4.629  88.258 112.949  0.00  0.00     0.382 C 
ATOM     23  O   LIG d   1       4.186  89.407 113.190  0.00  0.00    -0.241 OA
ATOM     24  O   LIG d   1       5.845  88.104 112.727  0.00  0.00    -0.241 OA
ENDBRANCH   3  22
TORSDOF 7
ENDMDL
MODEL 6
REMARK VINA RESULT:      -6.0      2.312      5.727
REMARK  7 active torsions:
REMARK  status: ('A' for Active; 'I' for Inactive)
REMARK    1  A    between atoms: C_2  and  C_3 
REMARK    2  A    between atoms: C_3  and  O_6 
REMARK    3  A    between atoms: C_3  and  C_4 
REMARK    4  A    between atoms: C_7  and  O_6 
REMARK    5  A    between atoms: C_9  and  C_10 
REMARK    6  A    between atoms: N_15  and  C_14 
REMARK    7  A    between atoms: N_20  and  C_19 
REMARK       I    between atoms: C_22  and  N_20 
ROOT
ATOM      1  C   LIG d   1       0.954  82.988 110.481  0.00  0.00     0.161 C 
ATOM      2  C   LIG d   1       1.561  84.244 110.311  0.00  0.00     0.016 C 
ATOM      3  C   LIG d   1       2.131  84.983 111.373  0.00  0.00     0.038 C 
ATOM      4  C   LIG d   1       2.268  84.444 112.661  0.00  0.00     0.028 C 
ATOM      5  C   LIG d   1       1.218  83.388 112.991  0.00  0.00    -0.047 C 
ATOM      6  C   LIG d   1       1.192  82.336 111.859  0.00  0.00     0.091 C 
ENDROOT
BRANCH   1   7
ATOM      7  O   LIG d   1       1.369  82.098 109.426  0.00  0.00    -0.368 OA
BRANCH   7   8
ATOM      8  C   LIG d   1       2.558  81.311 109.687  0.00  0.00     0.119 C 
BRANCH   8   9
ATOM      9  C   LIG d   1       3.590  81.655 108.596  0.00  0.00     0.028 C 
ATOM     10  C   LIG d   1       4.494  82.834 108.995  0.00  0.00     0.006 C 
ENDBRANCH   8   9
BRANCH   8  11
ATOM     11  C   LIG d   1       2.281  79.813 109.526  0.00  0.00     0.028 C 
ATOM     12  C   LIG d   1       0.867  79.523 108.998  0.00  0.00     0.006 C 
ENDBRANCH   8  11
ENDBRANCH   7   8
ENDBRANCH   1   7
BRANCH   6  13
ATOM     13  N   LIG d   1       0.134  81.312 112.060  0.00  0.00    -0.311 N 
ATOM     14  C   LIG d   1      -1.168  81.593 112.058  0.00  0.00     0.210 C 
ATOM     15  C   LIG d   1      -2.088  80.394 112.305  0.00  0.00     0.109 C 
ATOM     16  O   LIG d   1      -1.649  82.716 111.844  0.00  0.00    -0.276 OA
ATOM     17  H   LIG d   1       0.435  80.369 112.210  0.00  0.00     0.149 HD
ENDBRANCH   6  13
BRANCH   5  18
ATOM     18  N   LIG d   1       1.561  82.814 114.306  0.00  0.00     0.381 N 
ATOM     19  H   LIG d   1       2.219  82.070 114.189  0.00  0.00    -0.090 HD
ATOM     20  H   LIG d   1       0.728  82.436 114.722  0.00  0.00    -0.090 HD
ATOM     21  H   LIG d   1       1.945  83.519 114.896  0.00  0.00    -0.090 HD
ENDBRANCH   5  18
BRANCH   3  22
ATOM     22  C   LIG d   1       2.536  86.291 111.160  0.00  0.00     0.382 C 
ATOM     23  O   LIG d   1       3.710  86.638 111.438  0.00  0.00    -0.241 OA
ATOM     24  O   LIG d   1       1.730  87.141 110.735  0.00  0.00    -0.241 OA
ENDBRANCH   3  22
TORSDOF 7
ENDMDL
MODEL 7
REMARK VINA RESULT:      -5.8      2.867      4.442
REMARK  7 active torsions:
REMARK  status: ('A' for Active; 'I' for Inactive)
REMARK    1  A    between atoms: C_2  and  C_3 
REMARK    2  A    between atoms: C_3  and  O_6 
REMARK    3  A    between atoms: C_3  and  C_4 
REMARK    4  A    between atoms: C_7  and  O_6 
REMARK    5  A    between atoms: C_9  and  C_10 
REMARK    6  A    between atoms: N_15  and  C_14 
REMARK    7  A    between atoms: N_20  and  C_19 
REMARK       I    between atoms: C_22  and  N_20 
ROOT
ATOM      1  C   LIG d   1       1.556  83.422 110.492  0.00  0.00     0.161 C 
ATOM      2  C   LIG d   1       2.160  82.485 109.637  0.00  0.00     0.016 C 
ATOM      3  C   LIG d   1       2.033  81.087 109.801  0.00  0.00     0.038 C 
ATOM      4  C   LIG d   1       1.163  80.527 110.749  0.00  0.00     0.028 C 
ATOM      5  C   LIG d   1       0.926  81.426 111.958  0.00  0.00    -0.047 C 
ATOM      6  C   LIG d   1       0.513  82.832 111.465  0.00  0.00     0.091 C 
ENDROOT
BRANCH   1   7
ATOM      7  O   LIG d   1       0.971  84.486 109.716  0.00  0.00    -0.368 OA
BRANCH   7   8
ATOM      8  C   LIG d   1       1.515  85.810 109.937  0.00  0.00     0.119 C 
BRANCH   8   9
ATOM      9  C   LIG d   1       2.815  85.647 110.748  0.00  0.00     0.028 C 
ATOM     10  C   LIG d   1       3.050  86.813 111.723  0.00  0.00     0.006 C 
ENDBRANCH   8   9
BRANCH   8  11
ATOM     11  C   LIG d   1       0.590  86.653 110.819  0.00  0.00     0.028 C 
ATOM     12  C   LIG d   1      -0.899  86.399 110.536  0.00  0.00     0.006 C 
ENDBRANCH   8  11
ENDBRANCH   7   8
ENDBRANCH   1   7
BRANCH   6  13
ATOM     13  N   LIG d   1       0.343  83.797 112.582  0.00  0.00    -0.311 N 
ATOM     14  C   LIG d   1       1.298  84.064 113.472  0.00  0.00     0.210 C 
ATOM     15  C   LIG d   1       0.908  85.076 114.554  0.00  0.00     0.109 C 
ATOM     16  O   LIG d   1       2.441  83.584 113.448  0.00  0.00    -0.276 OA
ATOM     17  H   LIG d   1      -0.544  84.256 112.657  0.00  0.00     0.149 HD
ENDBRANCH   6  13
BRANCH   5  18
ATOM     18  N   LIG d   1      -0.103  80.783 112.796  0.00  0.00     0.381 N 
ATOM     19  H   LIG d   1       0.134  80.885 113.763  0.00  0.00    -0.090 HD
ATOM     20  H   LIG d   1      -0.132  79.802 112.581  0.00  0.00    -0.090 HD
ATOM     21  H   LIG d   1      -0.993  81.195 112.621  0.00  0.00    -0.090 HD
ENDBRANCH   5  18
BRANCH   3  22
ATOM     22  C   LIG d   1       2.812  80.232 109.037  0.00  0.00     0.382 C 
ATOM     23  O   LIG d   1       3.735  80.694 108.323  0.00  0.00    -0.241 OA
ATOM     24  O   LIG d   1       2.576  79.009 109.018  0.00  0.00    -0.241 OA
ENDBRANCH   3  22
TORSDOF 7
ENDMDL
MODEL 8
REMARK VINA RESULT:      -5.5      2.078      4.152
REMARK  7 active torsions:
REMARK  status: ('A' for Active; 'I' for Inactive)
REMARK    1  A    between atoms: C_2  and  C_3 
REMARK    2  A    between atoms: C_3  and  O_6 
REMARK    3  A    between atoms: C_3  and  C_4 
REMARK    4  A    between atoms: C_7  and  O_6 
REMARK    5  A    between atoms: C_9  and  C_10 
REMARK    6  A    between atoms: N_15  and  C_14 
REMARK    7  A    between atoms: N_20  and  C_19 
REMARK       I    between atoms: C_22  and  N_20 
ROOT
ATOM      1  C   LIG d   1       1.471  81.914 110.878  0.00  0.00     0.161 C 
ATOM      2  C   LIG d   1       0.580  80.925 111.327  0.00  0.00     0.016 C 
ATOM      3  C   LIG d   1      -0.697  81.212 111.863  0.00  0.00     0.038 C 
ATOM      4  C   LIG d   1      -1.233  82.509 111.847  0.00  0.00     0.028 C 
ATOM      5  C   LIG d   1      -0.171  83.603 111.868  0.00  0.00    -0.047 C 
ATOM      6  C   LIG d   1       0.859  83.325 110.750  0.00  0.00     0.091 C 
ENDROOT
BRANCH   1   7
ATOM      7  O   LIG d   1       2.061  81.509 109.627  0.00  0.00    -0.368 OA
BRANCH   7   8
ATOM      8  C   LIG d   1       3.326  80.807 109.718  0.00  0.00     0.119 C 
BRANCH   8   9
ATOM      9  C   LIG d   1       4.245  81.365 108.614  0.00  0.00     0.028 C 
ATOM     10  C   LIG d   1       4.509  82.872 108.777  0.00  0.00     0.006 C 
ENDBRANCH   8   9
BRANCH   8  11
ATOM     11  C   LIG d   1       3.161  79.319 109.394  0.00  0.00     0.028 C 
ATOM     12  C   LIG d   1       1.881  79.020 108.599  0.00  0.00     0.006 C 
ENDBRANCH   8  11
ENDBRANCH   7   8
ENDBRANCH   1   7
BRANCH   6  13
ATOM     13  N   LIG d   1       1.979  84.302 110.755  0.00  0.00    -0.311 N 
ATOM     14  C   LIG d   1       2.778  84.496 111.802  0.00  0.00     0.210 C 
ATOM     15  C   LIG d   1       3.857  85.565 111.603  0.00  0.00     0.109 C 
ATOM     16  O   LIG d   1       2.717  83.861 112.866  0.00  0.00    -0.276 OA
ATOM     17  H   LIG d   1       2.120  84.839 109.921  0.00  0.00     0.149 HD
ENDBRANCH   6  13
BRANCH   5  18
ATOM     18  N   LIG d   1      -0.862  84.897 111.709  0.00  0.00     0.381 N 
ATOM     19  H   LIG d   1      -1.334  85.135 112.558  0.00  0.00    -0.090 HD
ATOM     20  H   LIG d   1      -1.548  84.812 110.980  0.00  0.00    -0.090 HD
ATOM     21  H   LIG d   1      -0.205  85.608 111.475  0.00  0.00    -0.090 HD
ENDBRANCH   5  18
BRANCH   3  22
ATOM     22  C   LIG d   1      -1.435  80.202 112.459  0.00  0.00     0.382 C 
ATOM     23  O   LIG d   1      -2.461  79.756 111.892  0.00  0.00    -0.241 OA
ATOM     24  O   LIG d   1      -1.113  79.761 113.579  0.00  0.00    -0.241 OA
ENDBRANCH   3  22
TORSDOF 7
ENDMDL
MODEL 9
REMARK VINA RESULT:      -4.9      2.395      3.892
REMARK  7 active torsions:
REMARK  status: ('A' for Active; 'I' for Inactive)
REMARK    1  A    between atoms: C_2  and  C_3 
REMARK    2  A    between atoms: C_3  and  O_6 
REMARK    3  A    between atoms: C_3  and  C_4 
REMARK    4  A    between atoms: C_7  and  O_6 
REMARK    5  A    between atoms: C_9  and  C_10 
REMARK    6  A    between atoms: N_15  and  C_14 
REMARK    7  A    between atoms: N_20  and  C_19 
REMARK       I    between atoms: C_22  and  N_20 
ROOT
ATOM      1  C   LIG d   1       1.503  82.938 110.545  0.00  0.00     0.161 C 
ATOM      2  C   LIG d   1       0.861  84.187 110.533  0.00  0.00     0.016 C 
ATOM      3  C   LIG d   1      -0.446  84.395 111.031  0.00  0.00     0.038 C 
ATOM      4  C   LIG d   1      -1.147  83.391 111.717  0.00  0.00     0.028 C 
ATOM      5  C   LIG d   1      -0.741  81.980 111.305  0.00  0.00    -0.047 C 
ATOM      6  C   LIG d   1       0.797  81.856 111.389  0.00  0.00     0.091 C 
ENDROOT
BRANCH   1   7
ATOM      7  O   LIG d   1       2.870  83.095 110.973  0.00  0.00    -0.368 OA
BRANCH   7   8
ATOM      8  C   LIG d   1       3.633  84.127 110.301  0.00  0.00     0.119 C 
BRANCH   8   9
ATOM      9  C   LIG d   1       4.736  83.429 109.483  0.00  0.00     0.028 C 
ATOM     10  C   LIG d   1       4.196  82.250 108.655  0.00  0.00     0.006 C 
ENDBRANCH   8   9
BRANCH   8  11
ATOM     11  C   LIG d   1       4.374  85.014 111.306  0.00  0.00     0.028 C 
ATOM     12  C   LIG d   1       3.632  86.327 111.603  0.00  0.00     0.006 C 
ENDBRANCH   8  11
ENDBRANCH   7   8
ENDBRANCH   1   7
BRANCH   6  13
ATOM     13  N   LIG d   1       1.285  80.532 110.922  0.00  0.00    -0.311 N 
ATOM     14  C   LIG d   1       1.265  80.152 109.646  0.00  0.00     0.210 C 
ATOM     15  C   LIG d   1       1.796  78.739 109.384  0.00  0.00     0.109 C 
ATOM     16  O   LIG d   1       0.888  80.862 108.702  0.00  0.00    -0.276 OA
ATOM     17  H   LIG d   1       1.638  79.904 111.618  0.00  0.00     0.149 HD
ENDBRANCH   6  13
BRANCH   5  18
ATOM     18  N   LIG d   1      -1.447  81.037 112.192  0.00  0.00     0.381 N 
ATOM     19  H   LIG d   1      -2.404  80.960 111.912  0.00  0.00    -0.090 HD
ATOM     20  H   LIG d   1      -1.421  81.393 113.132  0.00  0.00    -0.090 HD
ATOM     21  H   LIG d   1      -1.010  80.142 112.156  0.00  0.00    -0.090 HD
ENDBRANCH   5  18
BRANCH   3  22
ATOM     22  C   LIG d   1      -1.081  85.608 110.810  0.00  0.00     0.382 C 
ATOM     23  O   LIG d   1      -1.701  86.171 111.744  0.00  0.00    -0.241 OA
ATOM     24  O   LIG d   1      -1.079  86.124 109.676  0.00  0.00    -0.241 OA
ENDBRANCH   3  22
TORSDOF 7
ENDMDL
