MODEL 1
REMARK VINA RESULT:      -6.2      0.000      0.000
REMARK  7 active torsions:
REMARK  status: ('A' for Active; 'I' for Inactive)
REMARK    1  A    between atoms: C_2  and  C_3 
REMARK    2  A    between atoms: C_3  and  O_6 
REMARK    3  A    between atoms: C_3  and  C_4 
REMARK    4  A    between atoms: C_7  and  O_6 
REMARK    5  A    between atoms: C_9  and  C_10 
REMARK    6  A    between atoms: N_15  and  C_14 
REMARK    7  A    between atoms: N_20  and  C_19 
REMARK       I    between atoms: C_22  and  N_20 
ROOT
ATOM      1  C   LIG d   1       1.702  83.179 109.791  0.00  0.00     0.161 C 
ATOM      2  C   LIG d   1       1.683  84.556 110.073  0.00  0.00     0.016 C 
ATOM      3  C   LIG d   1       0.782  85.151 110.985  0.00  0.00     0.038 C 
ATOM      4  C   LIG d   1      -0.067  84.383 111.796  0.00  0.00     0.028 C 
ATOM      5  C   LIG d   1      -0.436  83.036 111.182  0.00  0.00    -0.047 C 
ATOM      6  C   LIG d   1       0.859  82.312 110.748  0.00  0.00     0.091 C 
ENDROOT
BRANCH   1   7
ATOM      7  O   LIG d   1       3.064  82.707 109.755  0.00  0.00    -0.368 OA
BRANCH   7   8
ATOM      8  C   LIG d   1       3.548  82.065 110.960  0.00  0.00     0.119 C 
BRANCH   8   9
ATOM      9  C   LIG d   1       4.432  83.084 111.705  0.00  0.00     0.028 C 
ATOM     10  C   LIG d   1       3.749  83.643 112.964  0.00  0.00     0.006 C 
ENDBRANCH   8   9
BRANCH   8  11
ATOM     11  C   LIG d   1       4.472  80.889 110.632  0.00  0.00     0.028 C 
ATOM     12  C   LIG d   1       4.112  80.199 109.306  0.00  0.00     0.006 C 
ENDBRANCH   8  11
ENDBRANCH   7   8
ENDBRANCH   1   7
BRANCH   6  13
ATOM     13  N   LIG d   1       0.583  81.023 110.061  0.00  0.00    -0.311 N 
ATOM     14  C   LIG d   1       0.501  79.856 110.698  0.00  0.00     0.210 C 
ATOM     15  C   LIG d   1       0.229  78.646 109.799  0.00  0.00     0.109 C 
ATOM     16  O   LIG d   1       0.594  79.712 111.927  0.00  0.00    -0.276 OA
ATOM     17  H   LIG d   1       0.463  81.051 109.068  0.00  0.00     0.149 HD
ENDBRANCH   6  13
BRANCH   5  18
ATOM     18  N   LIG d   1      -1.209  82.285 112.189  0.00  0.00     0.381 N 
ATOM     19  H   LIG d   1      -1.914  81.738 111.736  0.00  0.00    -0.090 HD
ATOM     20  H   LIG d   1      -1.663  82.937 112.804  0.00  0.00    -0.090 HD
ATOM     21  H   LIG d   1      -0.603  81.691 112.711  0.00  0.00    -0.090 HD
ENDBRANCH   5  18
BRANCH   3  22
ATOM     22  C   LIG d   1       0.696  86.532 111.064  0.00  0.00     0.382 C 
ATOM     23  O   LIG d   1       1.742  87.224 111.099  0.00  0.00    -0.241 OA
ATOM     24  O   LIG d   1      -0.413  87.093 111.145  0.00  0.00    -0.241 OA
ENDBRANCH   3  22
TORSDOF 7
ENDMDL
MODEL 2
REMARK VINA RESULT:      -5.8      1.830      2.063
REMARK  7 active torsions:
REMARK  status: ('A' for Active; 'I' for Inactive)
REMARK    1  A    between atoms: C_2  and  C_3 
REMARK    2  A    between atoms: C_3  and  O_6 
REMARK    3  A    between atoms: C_3  and  C_4 
REMARK    4  A    between atoms: C_7  and  O_6 
REMARK    5  A    between atoms: C_9  and  C_10 
REMARK    6  A    between atoms: N_15  and  C_14 
REMARK    7  A    between atoms: N_20  and  C_19 
REMARK       I    between atoms: C_22  and  N_20 
ROOT
ATOM      1  C   LIG d   1       2.744  83.522 111.263  0.00  0.00     0.161 C 
ATOM      2  C   LIG d   1       3.136  84.798 111.702  0.00  0.00     0.016 C 
ATOM      3  C   LIG d   1       2.368  85.965 111.487  0.00  0.00     0.038 C 
ATOM      4  C   LIG d   1       1.074  85.913 110.948  0.00  0.00     0.028 C 
ATOM      5  C   LIG d   1       0.848  84.714 110.032  0.00  0.00    -0.047 C 
ATOM      6  C   LIG d   1       1.284  83.429 110.771  0.00  0.00     0.091 C 
ENDROOT
BRANCH   1   7
ATOM      7  O   LIG d   1       2.986  82.552 112.301  0.00  0.00    -0.368 OA
BRANCH   7   8
ATOM      8  C   LIG d   1       3.949  81.515 111.992  0.00  0.00     0.119 C 
BRANCH   8   9
ATOM      9  C   LIG d   1       5.064  81.588 113.054  0.00  0.00     0.028 C 
ATOM     10  C   LIG d   1       4.512  81.533 114.488  0.00  0.00     0.006 C 
ENDBRANCH   8   9
BRANCH   8  11
ATOM     11  C   LIG d   1       4.645  81.782 110.654  0.00  0.00     0.028 C 
ATOM     12  C   LIG d   1       4.442  80.645 109.640  0.00  0.00     0.006 C 
ENDBRANCH   8  11
ENDBRANCH   7   8
ENDBRANCH   1   7
BRANCH   6  13
ATOM     13  N   LIG d   1       1.174  82.218 109.916  0.00  0.00    -0.311 N 
ATOM     14  C   LIG d   1       0.675  81.061 110.344  0.00  0.00     0.210 C 
ATOM     15  C   LIG d   1       0.672  79.934 109.306  0.00  0.00     0.109 C 
ATOM     16  O   LIG d   1       0.204  80.869 111.475  0.00  0.00    -0.276 OA
ATOM     17  H   LIG d   1       1.504  82.294 108.973  0.00  0.00     0.149 HD
ENDBRANCH   6  13
BRANCH   5  18
ATOM     18  N   LIG d   1      -0.577  84.707 109.651  0.00  0.00     0.381 N 
ATOM     19  H   LIG d   1      -1.147  84.705 110.473  0.00  0.00    -0.090 HD
ATOM     20  H   LIG d   1      -0.771  83.870 109.131  0.00  0.00    -0.090 HD
ATOM     21  H   LIG d   1      -0.786  85.508 109.096  0.00  0.00    -0.090 HD
ENDBRANCH   5  18
BRANCH   3  22
ATOM     22  C   LIG d   1       2.911  87.208 111.778  0.00  0.00     0.382 C 
ATOM     23  O   LIG d   1       4.147  87.327 111.951  0.00  0.00    -0.241 OA
ATOM     24  O   LIG d   1       2.174  88.203 111.912  0.00  0.00    -0.241 OA
ENDBRANCH   3  22
TORSDOF 7
ENDMDL
MODEL 3
REMARK VINA RESULT:      -5.5      1.949      3.032
REMARK  7 active torsions:
REMARK  status: ('A' for Active; 'I' for Inactive)
REMARK    1  A    between atoms: C_2  and  C_3 
REMARK    2  A    between atoms: C_3  and  O_6 
REMARK    3  A    between atoms: C_3  and  C_4 
REMARK    4  A    between atoms: C_7  and  O_6 
REMARK    5  A    between atoms: C_9  and  C_10 
REMARK    6  A    between atoms: N_15  and  C_14 
REMARK    7  A    between atoms: N_20  and  C_19 
REMARK       I    between atoms: C_22  and  N_20 
ROOT
ATOM      1  C   LIG d   1       3.793  84.115 111.515  0.00  0.00     0.161 C 
ATOM      2  C   LIG d   1       3.146  85.344 111.731  0.00  0.00     0.016 C 
ATOM      3  C   LIG d   1       1.878  85.661 111.193  0.00  0.00     0.038 C 
ATOM      4  C   LIG d   1       1.098  84.707 110.522  0.00  0.00     0.028 C 
ATOM      5  C   LIG d   1       1.922  83.616 109.847  0.00  0.00    -0.047 C 
ATOM      6  C   LIG d   1       2.909  83.022 110.879  0.00  0.00     0.091 C 
ENDROOT
BRANCH   1   7
ATOM      7  O   LIG d   1       4.366  83.641 112.749  0.00  0.00    -0.368 OA
BRANCH   7   8
ATOM      8  C   LIG d   1       3.425  83.278 113.790  0.00  0.00     0.119 C 
BRANCH   8   9
ATOM      9  C   LIG d   1       3.870  83.986 115.084  0.00  0.00     0.028 C 
ATOM     10  C   LIG d   1       2.760  84.017 116.148  0.00  0.00     0.006 C 
ENDBRANCH   8   9
BRANCH   8  11
ATOM     11  C   LIG d   1       3.493  81.780 114.104  0.00  0.00     0.028 C 
ATOM     12  C   LIG d   1       4.904  81.197 113.927  0.00  0.00     0.006 C 
ENDBRANCH   8  11
ENDBRANCH   7   8
ENDBRANCH   1   7
BRANCH   6  13
ATOM     13  N   LIG d   1       3.812  82.006 110.279  0.00  0.00    -0.311 N 
ATOM     14  C   LIG d   1       3.551  80.700 110.283  0.00  0.00     0.210 C 
ATOM     15  C   LIG d   1       4.625  79.824 109.629  0.00  0.00     0.109 C 
ATOM     16  O   LIG d   1       2.518  80.186 110.738  0.00  0.00    -0.276 OA
ATOM     17  H   LIG d   1       4.659  82.338 109.861  0.00  0.00     0.149 HD
ENDBRANCH   6  13
BRANCH   5  18
ATOM     18  N   LIG d   1       0.982  82.617 109.306  0.00  0.00     0.381 N 
ATOM     19  H   LIG d   1       1.151  81.727 109.730  0.00  0.00    -0.090 HD
ATOM     20  H   LIG d   1       1.135  82.529 108.317  0.00  0.00    -0.090 HD
ATOM     21  H   LIG d   1       0.043  82.902 109.480  0.00  0.00    -0.090 HD
ENDBRANCH   5  18
BRANCH   3  22
ATOM     22  C   LIG d   1       1.395  86.957 111.289  0.00  0.00     0.382 C 
ATOM     23  O   LIG d   1       0.181  87.191 111.075  0.00  0.00    -0.241 OA
ATOM     24  O   LIG d   1       2.166  87.901 111.544  0.00  0.00    -0.241 OA
ENDBRANCH   3  22
TORSDOF 7
ENDMDL
MODEL 4
REMARK VINA RESULT:      -5.3      2.031      3.347
REMARK  7 active torsions:
REMARK  status: ('A' for Active; 'I' for Inactive)
REMARK    1  A    between atoms: C_2  and  C_3 
REMARK    2  A    between atoms: C_3  and  O_6 
REMARK    3  A    between atoms: C_3  and  C_4 
REMARK    4  A    between atoms: C_7  and  O_6 
REMARK    5  A    between atoms: C_9  and  C_10 
REMARK    6  A    between atoms: N_15  and  C_14 
REMARK    7  A    between atoms: N_20  and  C_19 
REMARK       I    between atoms: C_22  and  N_20 
ROOT
ATOM      1  C   LIG d   1       2.365  84.792 111.529  0.00  0.00     0.161 C 
ATOM      2  C   LIG d   1       1.240  85.599 111.766  0.00  0.00     0.016 C 
ATOM      3  C   LIG d   1      -0.088  85.168 111.539  0.00  0.00     0.038 C 
ATOM      4  C   LIG d   1      -0.389  83.840 111.201  0.00  0.00     0.028 C 
ATOM      5  C   LIG d   1       0.742  83.132 110.463  0.00  0.00    -0.047 C 
ATOM      6  C   LIG d   1       2.051  83.304 111.266  0.00  0.00     0.091 C 
ENDROOT
BRANCH   1   7
ATOM      7  O   LIG d   1       3.298  84.922 112.620  0.00  0.00    -0.368 OA
BRANCH   7   8
ATOM      8  C   LIG d   1       2.727  84.907 113.952  0.00  0.00     0.119 C 
BRANCH   8   9
ATOM      9  C   LIG d   1       3.371  86.061 114.744  0.00  0.00     0.028 C 
ATOM     10  C   LIG d   1       3.398  87.377 113.948  0.00  0.00     0.006 C 
ENDBRANCH   8   9
BRANCH   8  11
ATOM     11  C   LIG d   1       3.110  83.632 114.709  0.00  0.00     0.028 C 
ATOM     12  C   LIG d   1       4.358  82.948 114.129  0.00  0.00     0.006 C 
ENDBRANCH   8  11
ENDBRANCH   7   8
ENDBRANCH   1   7
BRANCH   6  13
ATOM     13  N   LIG d   1       3.224  82.713 110.571  0.00  0.00    -0.311 N 
ATOM     14  C   LIG d   1       3.653  81.470 110.785  0.00  0.00     0.210 C 
ATOM     15  C   LIG d   1       4.892  81.066 109.979  0.00  0.00     0.109 C 
ATOM     16  O   LIG d   1       3.106  80.653 111.541  0.00  0.00    -0.276 OA
ATOM     17  H   LIG d   1       3.709  83.296 109.917  0.00  0.00     0.149 HD
ENDBRANCH   6  13
BRANCH   5  18
ATOM     18  N   LIG d   1       0.349  81.720 110.294  0.00  0.00     0.381 N 
ATOM     19  H   LIG d   1       1.085  81.123 110.613  0.00  0.00    -0.090 HD
ATOM     20  H   LIG d   1       0.196  81.539 109.318  0.00  0.00    -0.090 HD
ATOM     21  H   LIG d   1      -0.485  81.535 110.808  0.00  0.00    -0.090 HD
ENDBRANCH   5  18
BRANCH   3  22
ATOM     22  C   LIG d   1      -1.128  86.081 111.612  0.00  0.00     0.382 C 
ATOM     23  O   LIG d   1      -1.821  86.161 112.655  0.00  0.00    -0.241 OA
ATOM     24  O   LIG d   1      -1.412  86.796 110.631  0.00  0.00    -0.241 OA
ENDBRANCH   3  22
TORSDOF 7
ENDMDL
MODEL 5
REMARK VINA RESULT:      -5.2      2.831      3.654
REMARK  7 active torsions:
REMARK  status: ('A' for Active; 'I' for Inactive)
REMARK    1  A    between atoms: C_2  and  C_3 
REMARK    2  A    between atoms: C_3  and  O_6 
REMARK    3  A    between atoms: C_3  and  C_4 
REMARK    4  A    between atoms: C_7  and  O_6 
REMARK    5  A    between atoms: C_9  and  C_10 
REMARK    6  A    between atoms: N_15  and  C_14 
REMARK    7  A    between atoms: N_20  and  C_19 
REMARK       I    between atoms: C_22  and  N_20 
ROOT
ATOM      1  C   LIG d   1       2.654  83.811 112.583  0.00  0.00     0.161 C 
ATOM      2  C   LIG d   1       2.942  85.115 112.149  0.00  0.00     0.016 C 
ATOM      3  C   LIG d   1       2.869  86.249 112.990  0.00  0.00     0.038 C 
ATOM      4  C   LIG d   1       2.648  86.135 114.370  0.00  0.00     0.028 C 
ATOM      5  C   LIG d   1       1.854  84.891 114.756  0.00  0.00    -0.047 C 
ATOM      6  C   LIG d   1       2.518  83.653 114.112  0.00  0.00     0.091 C 
ENDROOT
BRANCH   1   7
ATOM      7  O   LIG d   1       3.642  82.895 112.070  0.00  0.00    -0.368 OA
BRANCH   7   8
ATOM      8  C   LIG d   1       3.303  82.216 110.837  0.00  0.00     0.119 C 
BRANCH   8   9
ATOM      9  C   LIG d   1       2.648  80.873 111.213  0.00  0.00     0.028 C 
ATOM     10  C   LIG d   1       1.124  80.885 111.005  0.00  0.00     0.006 C 
ENDBRANCH   8   9
BRANCH   8  11
ATOM     11  C   LIG d   1       4.558  81.845 110.041  0.00  0.00     0.028 C 
ATOM     12  C   LIG d   1       4.727  80.328 109.867  0.00  0.00     0.006 C 
ENDBRANCH   8  11
ENDBRANCH   7   8
ENDBRANCH   1   7
BRANCH   6  13
ATOM     13  N   LIG d   1       1.757  82.403 114.369  0.00  0.00    -0.311 N 
ATOM     14  C   LIG d   1       2.307  81.301 114.876  0.00  0.00     0.210 C 
ATOM     15  C   LIG d   1       1.347  80.118 115.043  0.00  0.00     0.109 C 
ATOM     16  O   LIG d   1       3.490  81.200 115.232  0.00  0.00    -0.276 OA
ATOM     17  H   LIG d   1       0.783  82.407 114.138  0.00  0.00     0.149 HD
ENDBRANCH   6  13
BRANCH   5  18
ATOM     18  N   LIG d   1       1.815  84.826 116.229  0.00  0.00     0.381 N 
ATOM     19  H   LIG d   1       2.507  85.438 116.613  0.00  0.00    -0.090 HD
ATOM     20  H   LIG d   1       2.028  83.888 116.518  0.00  0.00    -0.090 HD
ATOM     21  H   LIG d   1       0.912  85.086 116.558  0.00  0.00    -0.090 HD
ENDBRANCH   5  18
BRANCH   3  22
ATOM     22  C   LIG d   1       2.980  87.519 112.443  0.00  0.00     0.382 C 
ATOM     23  O   LIG d   1       3.917  88.275 112.797  0.00  0.00    -0.241 OA
ATOM     24  O   LIG d   1       2.130  87.934 111.633  0.00  0.00    -0.241 OA
ENDBRANCH   3  22
TORSDOF 7
ENDMDL
MODEL 6
REMARK VINA RESULT:      -5.2      2.822      4.186
REMARK  7 active torsions:
REMARK  status: ('A' for Active; 'I' for Inactive)
REMARK    1  A    between atoms: C_2  and  C_3 
REMARK    2  A    between atoms: C_3  and  O_6 
REMARK    3  A    between atoms: C_3  and  C_4 
REMARK    4  A    between atoms: C_7  and  O_6 
REMARK    5  A    between atoms: C_9  and  C_10 
REMARK    6  A    between atoms: N_15  and  C_14 
REMARK    7  A    between atoms: N_20  and  C_19 
REMARK       I    between atoms: C_22  and  N_20 
ROOT
ATOM      1  C   LIG d   1       1.755  83.674 113.404  0.00  0.00     0.161 C 
ATOM      2  C   LIG d   1       2.317  84.941 113.181  0.00  0.00     0.016 C 
ATOM      3  C   LIG d   1       1.976  85.761 112.080  0.00  0.00     0.038 C 
ATOM      4  C   LIG d   1       0.931  85.430 111.205  0.00  0.00     0.028 C 
ATOM      5  C   LIG d   1       0.683  83.929 111.098  0.00  0.00    -0.047 C 
ATOM      6  C   LIG d   1       0.533  83.344 112.521  0.00  0.00     0.091 C 
ENDROOT
BRANCH   1   7
ATOM      7  O   LIG d   1       1.420  83.526 114.798  0.00  0.00    -0.368 OA
BRANCH   7   8
ATOM      8  C   LIG d   1       2.427  83.960 115.745  0.00  0.00     0.119 C 
BRANCH   8   9
ATOM      9  C   LIG d   1       3.149  82.701 116.262  0.00  0.00     0.028 C 
ATOM     10  C   LIG d   1       4.680  82.848 116.232  0.00  0.00     0.006 C 
ENDBRANCH   8   9
BRANCH   8  11
ATOM     11  C   LIG d   1       1.790  84.599 116.982  0.00  0.00     0.028 C 
ATOM     12  C   LIG d   1       1.413  86.073 116.764  0.00  0.00     0.006 C 
ENDBRANCH   8  11
ENDBRANCH   7   8
ENDBRANCH   1   7
BRANCH   6  13
ATOM     13  N   LIG d   1       0.370  81.866 112.512  0.00  0.00    -0.311 N 
ATOM     14  C   LIG d   1      -0.813  81.259 112.444  0.00  0.00     0.210 C 
ATOM     15  C   LIG d   1      -0.757  79.729 112.467  0.00  0.00     0.109 C 
ATOM     16  O   LIG d   1      -1.902  81.843 112.333  0.00  0.00    -0.276 OA
ATOM     17  H   LIG d   1       1.205  81.315 112.566  0.00  0.00     0.149 HD
ENDBRANCH   6  13
BRANCH   5  18
ATOM     18  N   LIG d   1      -0.518  83.735 110.263  0.00  0.00     0.381 N 
ATOM     19  H   LIG d   1      -1.080  84.562 110.280  0.00  0.00    -0.090 HD
ATOM     20  H   LIG d   1      -1.059  82.978 110.644  0.00  0.00    -0.090 HD
ATOM     21  H   LIG d   1      -0.251  83.524 109.327  0.00  0.00    -0.090 HD
ENDBRANCH   5  18
BRANCH   3  22
ATOM     22  C   LIG d   1       2.712  86.908 111.824  0.00  0.00     0.382 C 
ATOM     23  O   LIG d   1       2.137  88.023 111.771  0.00  0.00    -0.241 OA
ATOM     24  O   LIG d   1       3.935  86.838 111.602  0.00  0.00    -0.241 OA
ENDBRANCH   3  22
TORSDOF 7
ENDMDL
MODEL 7
REMARK VINA RESULT:      -5.0      2.717      3.765
REMARK  7 active torsions:
REMARK  status: ('A' for Active; 'I' for Inactive)
REMARK    1  A    between atoms: C_2  and  C_3 
REMARK    2  A    between atoms: C_3  and  O_6 
REMARK    3  A    between atoms: C_3  and  C_4 
REMARK    4  A    between atoms: C_7  and  O_6 
REMARK    5  A    between atoms: C_9  and  C_10 
REMARK    6  A    between atoms: N_15  and  C_14 
REMARK    7  A    between atoms: N_20  and  C_19 
REMARK       I    between atoms: C_22  and  N_20 
ROOT
ATOM      1  C   LIG d   1       1.551  82.450 112.543  0.00  0.00     0.161 C 
ATOM      2  C   LIG d   1       0.603  83.255 111.891  0.00  0.00     0.016 C 
ATOM      3  C   LIG d   1       0.238  84.545 112.338  0.00  0.00     0.038 C 
ATOM      4  C   LIG d   1       0.911  85.183 113.390  0.00  0.00     0.028 C 
ATOM      5  C   LIG d   1       1.527  84.212 114.393  0.00  0.00    -0.047 C 
ATOM      6  C   LIG d   1       2.377  83.173 113.627  0.00  0.00     0.091 C 
ENDROOT
BRANCH   1   7
ATOM      7  O   LIG d   1       2.424  81.839 111.572  0.00  0.00    -0.368 OA
BRANCH   7   8
ATOM      8  C   LIG d   1       3.692  82.503 111.349  0.00  0.00     0.119 C 
BRANCH   8   9
ATOM      9  C   LIG d   1       3.537  83.390 110.098  0.00  0.00     0.028 C 
ATOM     10  C   LIG d   1       3.494  84.888 110.443  0.00  0.00     0.006 C 
ENDBRANCH   8   9
BRANCH   8  11
ATOM     11  C   LIG d   1       4.794  81.498 110.999  0.00  0.00     0.028 C 
ATOM     12  C   LIG d   1       4.435  80.618 109.791  0.00  0.00     0.006 C 
ENDBRANCH   8  11
ENDBRANCH   7   8
ENDBRANCH   1   7
BRANCH   6  13
ATOM     13  N   LIG d   1       2.947  82.135 114.526  0.00  0.00    -0.311 N 
ATOM     14  C   LIG d   1       4.176  82.201 115.035  0.00  0.00     0.210 C 
ATOM     15  C   LIG d   1       4.572  81.016 115.921  0.00  0.00     0.109 C 
ATOM     16  O   LIG d   1       4.963  83.144 114.864  0.00  0.00    -0.276 OA
ATOM     17  H   LIG d   1       2.364  81.350 114.743  0.00  0.00     0.149 HD
ENDBRANCH   6  13
BRANCH   5  18
ATOM     18  N   LIG d   1       2.313  85.006 115.357  0.00  0.00     0.381 N 
ATOM     19  H   LIG d   1       1.930  84.899 116.275  0.00  0.00    -0.090 HD
ATOM     20  H   LIG d   1       2.256  85.976 115.102  0.00  0.00    -0.090 HD
ATOM     21  H   LIG d   1       3.263  84.707 115.349  0.00  0.00    -0.090 HD
ENDBRANCH   5  18
BRANCH   3  22
ATOM     22  C   LIG d   1      -0.840  85.195 111.756  0.00  0.00     0.382 C 
ATOM     23  O   LIG d   1      -1.184  84.911 110.584  0.00  0.00    -0.241 OA
ATOM     24  O   LIG d   1      -1.444  86.093 112.373  0.00  0.00    -0.241 OA
ENDBRANCH   3  22
TORSDOF 7
ENDMDL
MODEL 8
REMARK VINA RESULT:      -5.0      2.804      3.787
REMARK  7 active torsions:
REMARK  status: ('A' for Active; 'I' for Inactive)
REMARK    1  A    between atoms: C_2  and  C_3 
REMARK    2  A    between atoms: C_3  and  O_6 
REMARK    3  A    between atoms: C_3  and  C_4 
REMARK    4  A    between atoms: C_7  and  O_6 
REMARK    5  A    between atoms: C_9  and  C_10 
REMARK    6  A    between atoms: N_15  and  C_14 
REMARK    7  A    between atoms: N_20  and  C_19 
REMARK       I    between atoms: C_22  and  N_20 
ROOT
ATOM      1  C   LIG d   1       2.257  84.658 112.560  0.00  0.00     0.161 C 
ATOM      2  C   LIG d   1       2.718  85.913 112.993  0.00  0.00     0.016 C 
ATOM      3  C   LIG d   1       2.844  86.267 114.356  0.00  0.00     0.038 C 
ATOM      4  C   LIG d   1       2.660  85.332 115.385  0.00  0.00     0.028 C 
ATOM      5  C   LIG d   1       1.708  84.201 115.013  0.00  0.00    -0.047 C 
ATOM      6  C   LIG d   1       2.158  83.588 113.667  0.00  0.00     0.091 C 
ENDROOT
BRANCH   1   7
ATOM      7  O   LIG d   1       3.080  84.183 111.476  0.00  0.00    -0.368 OA
BRANCH   7   8
ATOM      8  C   LIG d   1       2.509  84.287 110.149  0.00  0.00     0.119 C 
BRANCH   8   9
ATOM      9  C   LIG d   1       0.983  84.426 110.312  0.00  0.00     0.028 C 
ATOM     10  C   LIG d   1       0.373  85.416 109.305  0.00  0.00     0.006 C 
ENDBRANCH   8   9
BRANCH   8  11
ATOM     11  C   LIG d   1       2.715  82.996 109.351  0.00  0.00     0.028 C 
ATOM     12  C   LIG d   1       4.126  82.410 109.521  0.00  0.00     0.006 C 
ENDBRANCH   8  11
ENDBRANCH   7   8
ENDBRANCH   1   7
BRANCH   6  13
ATOM     13  N   LIG d   1       1.231  82.530 113.188  0.00  0.00    -0.311 N 
ATOM     14  C   LIG d   1       1.643  81.374 112.670  0.00  0.00     0.210 C 
ATOM     15  C   LIG d   1       0.522  80.432 112.219  0.00  0.00     0.109 C 
ATOM     16  O   LIG d   1       2.829  81.027 112.570  0.00  0.00    -0.276 OA
ATOM     17  H   LIG d   1       0.250  82.716 113.261  0.00  0.00     0.149 HD
ENDBRANCH   6  13
BRANCH   5  18
ATOM     18  N   LIG d   1       1.715  83.228 116.122  0.00  0.00     0.381 N 
ATOM     19  H   LIG d   1       2.124  83.645 116.935  0.00  0.00    -0.090 HD
ATOM     20  H   LIG d   1       2.276  82.438 115.858  0.00  0.00    -0.090 HD
ATOM     21  H   LIG d   1       0.785  82.933 116.323  0.00  0.00    -0.090 HD
ENDBRANCH   5  18
BRANCH   3  22
ATOM     22  C   LIG d   1       3.120  87.581 114.702  0.00  0.00     0.382 C 
ATOM     23  O   LIG d   1       4.299  88.008 114.656  0.00  0.00    -0.241 OA
ATOM     24  O   LIG d   1       2.211  88.333 115.102  0.00  0.00    -0.241 OA
ENDBRANCH   3  22
TORSDOF 7
ENDMDL
MODEL 9
REMARK VINA RESULT:      -4.9     25.395     27.651
REMARK  7 active torsions:
REMARK  status: ('A' for Active; 'I' for Inactive)
REMARK    1  A    between atoms: C_2  and  C_3 
REMARK    2  A    between atoms: C_3  and  O_6 
REMARK    3  A    between atoms: C_3  and  C_4 
REMARK    4  A    between atoms: C_7  and  O_6 
REMARK    5  A    between atoms: C_9  and  C_10 
REMARK    6  A    between atoms: N_15  and  C_14 
REMARK    7  A    between atoms: N_20  and  C_19 
REMARK       I    between atoms: C_22  and  N_20 
ROOT
ATOM      1  C   LIG d   1     -25.674  85.789 113.238  0.00  0.00     0.161 C 
ATOM      2  C   LIG d   1     -24.607  86.695 113.357  0.00  0.00     0.016 C 
ATOM      3  C   LIG d   1     -23.265  86.295 113.551  0.00  0.00     0.038 C 
ATOM      4  C   LIG d   1     -22.875  84.949 113.487  0.00  0.00     0.028 C 
ATOM      5  C   LIG d   1     -23.986  83.978 113.872  0.00  0.00    -0.047 C 
ATOM      6  C   LIG d   1     -25.254  84.315 113.054  0.00  0.00     0.091 C 
ENDROOT
BRANCH   1   7
ATOM      7  O   LIG d   1     -26.545  86.199 112.165  0.00  0.00    -0.368 OA
BRANCH   7   8
ATOM      8  C   LIG d   1     -27.767  86.871 112.558  0.00  0.00     0.119 C 
BRANCH   8   9
ATOM      9  C   LIG d   1     -28.929  85.882 112.344  0.00  0.00     0.028 C 
ATOM     10  C   LIG d   1     -29.236  85.650 110.855  0.00  0.00     0.006 C 
ENDBRANCH   8   9
BRANCH   8  11
ATOM     11  C   LIG d   1     -28.070  88.058 111.639  0.00  0.00     0.028 C 
ATOM     12  C   LIG d   1     -26.852  88.971 111.423  0.00  0.00     0.006 C 
ENDBRANCH   8  11
ENDBRANCH   7   8
ENDBRANCH   1   7
BRANCH   6  13
ATOM     13  N   LIG d   1     -26.414  83.467 113.430  0.00  0.00    -0.311 N 
ATOM     14  C   LIG d   1     -27.069  82.694 112.565  0.00  0.00     0.210 C 
ATOM     15  C   LIG d   1     -28.248  81.915 113.156  0.00  0.00     0.109 C 
ATOM     16  O   LIG d   1     -26.764  82.555 111.370  0.00  0.00    -0.276 OA
ATOM     17  H   LIG d   1     -26.709  83.495 114.386  0.00  0.00     0.149 HD
ENDBRANCH   6  13
BRANCH   5  18
ATOM     18  N   LIG d   1     -23.488  82.611 113.628  0.00  0.00     0.381 N 
ATOM     19  H   LIG d   1     -22.490  82.621 113.563  0.00  0.00    -0.090 HD
ATOM     20  H   LIG d   1     -23.858  82.281 112.754  0.00  0.00    -0.090 HD
ATOM     21  H   LIG d   1     -23.774  82.007 114.367  0.00  0.00    -0.090 HD
ENDBRANCH   5  18
BRANCH   3  22
ATOM     22  C   LIG d   1     -22.301  87.245 113.852  0.00  0.00     0.382 C 
ATOM     23  O   LIG d   1     -22.594  88.227 114.577  0.00  0.00    -0.241 OA
ATOM     24  O   LIG d   1     -21.155  87.158 113.372  0.00  0.00    -0.241 OA
ENDBRANCH   3  22
TORSDOF 7
ENDMDL
