MODEL 1
REMARK VINA RESULT:      -6.9      0.000      0.000
REMARK  7 active torsions:
REMARK  status: ('A' for Active; 'I' for Inactive)
REMARK    1  A    between atoms: C_2  and  C_3 
REMARK    2  A    between atoms: C_3  and  O_6 
REMARK    3  A    between atoms: C_3  and  C_4 
REMARK    4  A    between atoms: C_7  and  O_6 
REMARK    5  A    between atoms: C_9  and  C_10 
REMARK    6  A    between atoms: N_15  and  C_14 
REMARK    7  A    between atoms: N_20  and  C_19 
REMARK       I    between atoms: C_22  and  N_20 
ROOT
ATOM      1  C   LIG d   1       0.209  82.159 111.000  0.00  0.00     0.161 C 
ATOM      2  C   LIG d   1      -0.899  81.919 111.829  0.00  0.00     0.016 C 
ATOM      3  C   LIG d   1      -1.501  80.648 111.975  0.00  0.00     0.038 C 
ATOM      4  C   LIG d   1      -0.938  79.492 111.413  0.00  0.00     0.028 C 
ATOM      5  C   LIG d   1      -0.113  79.768 110.160  0.00  0.00    -0.047 C 
ATOM      6  C   LIG d   1       0.905  80.890 110.466  0.00  0.00     0.091 C 
ENDROOT
BRANCH   1   7
ATOM      7  O   LIG d   1       1.159  83.001 111.684  0.00  0.00    -0.368 OA
BRANCH   7   8
ATOM      8  C   LIG d   1       1.275  84.359 111.195  0.00  0.00     0.119 C 
BRANCH   8   9
ATOM      9  C   LIG d   1       0.384  84.479 109.943  0.00  0.00     0.028 C 
ATOM     10  C   LIG d   1      -0.530  85.715 109.989  0.00  0.00     0.006 C 
ENDBRANCH   8   9
BRANCH   8  11
ATOM     11  C   LIG d   1       2.697  84.658 110.711  0.00  0.00     0.028 C 
ATOM     12  C   LIG d   1       3.125  86.110 110.978  0.00  0.00     0.006 C 
ENDBRANCH   8  11
ENDBRANCH   7   8
ENDBRANCH   1   7
BRANCH   6  13
ATOM     13  N   LIG d   1       1.695  81.279 109.269  0.00  0.00    -0.311 N 
ATOM     14  C   LIG d   1       3.027  81.320 109.252  0.00  0.00     0.210 C 
ATOM     15  C   LIG d   1       3.642  81.768 107.922  0.00  0.00     0.109 C 
ATOM     16  O   LIG d   1       3.757  80.998 110.201  0.00  0.00    -0.276 OA
ATOM     17  H   LIG d   1       1.184  81.527 108.445  0.00  0.00     0.149 HD
ENDBRANCH   6  13
BRANCH   5  18
ATOM     18  N   LIG d   1       0.526  78.500 109.760  0.00  0.00     0.381 N 
ATOM     19  H   LIG d   1       1.102  78.650 108.956  0.00  0.00    -0.090 HD
ATOM     20  H   LIG d   1      -0.190  77.838 109.516  0.00  0.00    -0.090 HD
ATOM     21  H   LIG d   1       1.077  78.144 110.510  0.00  0.00    -0.090 HD
ENDBRANCH   5  18
BRANCH   3  22
ATOM     22  C   LIG d   1      -2.702  80.531 112.657  0.00  0.00     0.382 C 
ATOM     23  O   LIG d   1      -2.839  79.650 113.540  0.00  0.00    -0.241 OA
ATOM     24  O   LIG d   1      -3.666  81.265 112.369  0.00  0.00    -0.241 OA
ENDBRANCH   3  22
TORSDOF 7
ENDMDL
MODEL 2
REMARK VINA RESULT:      -6.4      2.379      3.807
REMARK  7 active torsions:
REMARK  status: ('A' for Active; 'I' for Inactive)
REMARK    1  A    between atoms: C_2  and  C_3 
REMARK    2  A    between atoms: C_3  and  O_6 
REMARK    3  A    between atoms: C_3  and  C_4 
REMARK    4  A    between atoms: C_7  and  O_6 
REMARK    5  A    between atoms: C_9  and  C_10 
REMARK    6  A    between atoms: N_15  and  C_14 
REMARK    7  A    between atoms: N_20  and  C_19 
REMARK       I    between atoms: C_22  and  N_20 
ROOT
ATOM      1  C   LIG d   1      -0.011  83.892 110.402  0.00  0.00     0.161 C 
ATOM      2  C   LIG d   1      -0.170  84.892 111.376  0.00  0.00     0.016 C 
ATOM      3  C   LIG d   1      -0.462  84.619 112.732  0.00  0.00     0.038 C 
ATOM      4  C   LIG d   1      -0.466  83.311 113.241  0.00  0.00     0.028 C 
ATOM      5  C   LIG d   1      -0.809  82.256 112.195  0.00  0.00    -0.047 C 
ATOM      6  C   LIG d   1       0.099  82.458 110.961  0.00  0.00     0.091 C 
ENDROOT
BRANCH   1   7
ATOM      7  O   LIG d   1       1.128  84.195 109.572  0.00  0.00    -0.368 OA
BRANCH   7   8
ATOM      8  C   LIG d   1       2.428  83.905 110.143  0.00  0.00     0.119 C 
BRANCH   8   9
ATOM      9  C   LIG d   1       3.148  85.250 110.362  0.00  0.00     0.028 C 
ATOM     10  C   LIG d   1       3.435  85.527 111.847  0.00  0.00     0.006 C 
ENDBRANCH   8   9
BRANCH   8  11
ATOM     11  C   LIG d   1       3.308  83.129 109.159  0.00  0.00     0.028 C 
ATOM     12  C   LIG d   1       2.555  82.714 107.885  0.00  0.00     0.006 C 
ENDBRANCH   8  11
ENDBRANCH   7   8
ENDBRANCH   1   7
BRANCH   6  13
ATOM     13  N   LIG d   1      -0.229  81.519 109.856  0.00  0.00    -0.311 N 
ATOM     14  C   LIG d   1       0.480  80.423 109.591  0.00  0.00     0.210 C 
ATOM     15  C   LIG d   1      -0.018  79.604 108.396  0.00  0.00     0.109 C 
ATOM     16  O   LIG d   1       1.455  80.034 110.251  0.00  0.00    -0.276 OA
ATOM     17  H   LIG d   1      -1.024  81.741 109.289  0.00  0.00     0.149 HD
ENDBRANCH   6  13
BRANCH   5  18
ATOM     18  N   LIG d   1      -0.642  80.933 112.826  0.00  0.00     0.381 N 
ATOM     19  H   LIG d   1       0.193  80.923 113.377  0.00  0.00    -0.090 HD
ATOM     20  H   LIG d   1      -0.553  80.238 112.106  0.00  0.00    -0.090 HD
ATOM     21  H   LIG d   1      -1.429  80.727 113.401  0.00  0.00    -0.090 HD
ENDBRANCH   5  18
BRANCH   3  22
ATOM     22  C   LIG d   1      -0.794  85.659 113.587  0.00  0.00     0.382 C 
ATOM     23  O   LIG d   1       0.096  86.443 113.996  0.00  0.00    -0.241 OA
ATOM     24  O   LIG d   1      -1.965  85.797 113.989  0.00  0.00    -0.241 OA
ENDBRANCH   3  22
TORSDOF 7
ENDMDL
MODEL 3
REMARK VINA RESULT:      -6.0      2.371      5.658
REMARK  7 active torsions:
REMARK  status: ('A' for Active; 'I' for Inactive)
REMARK    1  A    between atoms: C_2  and  C_3 
REMARK    2  A    between atoms: C_3  and  O_6 
REMARK    3  A    between atoms: C_3  and  C_4 
REMARK    4  A    between atoms: C_7  and  O_6 
REMARK    5  A    between atoms: C_9  and  C_10 
REMARK    6  A    between atoms: N_15  and  C_14 
REMARK    7  A    between atoms: N_20  and  C_19 
REMARK       I    between atoms: C_22  and  N_20 
ROOT
ATOM      1  C   LIG d   1       0.632  83.145 110.065  0.00  0.00     0.161 C 
ATOM      2  C   LIG d   1       1.440  84.293 110.003  0.00  0.00     0.016 C 
ATOM      3  C   LIG d   1       1.855  85.015 111.146  0.00  0.00     0.038 C 
ATOM      4  C   LIG d   1       1.615  84.547 112.446  0.00  0.00     0.028 C 
ATOM      5  C   LIG d   1       0.374  83.666 112.553  0.00  0.00    -0.047 C 
ATOM      6  C   LIG d   1       0.452  82.557 111.480  0.00  0.00     0.091 C 
ENDROOT
BRANCH   1   7
ATOM      7  O   LIG d   1       1.141  82.141 109.165  0.00  0.00    -0.368 OA
BRANCH   7   8
ATOM      8  C   LIG d   1       2.094  81.206 109.727  0.00  0.00     0.119 C 
BRANCH   8   9
ATOM      9  C   LIG d   1       3.431  81.405 108.987  0.00  0.00     0.028 C 
ATOM     10  C   LIG d   1       4.484  82.110 109.858  0.00  0.00     0.006 C 
ENDBRANCH   8   9
BRANCH   8  11
ATOM     11  C   LIG d   1       1.686  79.757 109.444  0.00  0.00     0.028 C 
ATOM     12  C   LIG d   1       0.410  79.652 108.593  0.00  0.00     0.006 C 
ENDBRANCH   8  11
ENDBRANCH   7   8
ENDBRANCH   1   7
BRANCH   6  13
ATOM     13  N   LIG d   1      -0.763  81.701 111.460  0.00  0.00    -0.311 N 
ATOM     14  C   LIG d   1      -0.877  80.574 112.160  0.00  0.00     0.210 C 
ATOM     15  C   LIG d   1      -2.206  79.833 111.980  0.00  0.00     0.109 C 
ATOM     16  O   LIG d   1      -0.017  80.134 112.938  0.00  0.00    -0.276 OA
ATOM     17  H   LIG d   1      -1.521  82.000 110.879  0.00  0.00     0.149 HD
ENDBRANCH   6  13
BRANCH   5  18
ATOM     18  N   LIG d   1       0.321  83.137 113.929  0.00  0.00     0.381 N 
ATOM     19  H   LIG d   1      -0.564  83.355 114.341  0.00  0.00    -0.090 HD
ATOM     20  H   LIG d   1       1.040  83.577 114.475  0.00  0.00    -0.090 HD
ATOM     21  H   LIG d   1       0.457  82.150 113.920  0.00  0.00    -0.090 HD
ENDBRANCH   5  18
BRANCH   3  22
ATOM     22  C   LIG d   1       2.486  86.240 110.993  0.00  0.00     0.382 C 
ATOM     23  O   LIG d   1       3.703  86.358 111.273  0.00  0.00    -0.241 OA
ATOM     24  O   LIG d   1       1.842  87.240 110.621  0.00  0.00    -0.241 OA
ENDBRANCH   3  22
TORSDOF 7
ENDMDL
MODEL 4
REMARK VINA RESULT:      -5.8      2.234      4.779
REMARK  7 active torsions:
REMARK  status: ('A' for Active; 'I' for Inactive)
REMARK    1  A    between atoms: C_2  and  C_3 
REMARK    2  A    between atoms: C_3  and  O_6 
REMARK    3  A    between atoms: C_3  and  C_4 
REMARK    4  A    between atoms: C_7  and  O_6 
REMARK    5  A    between atoms: C_9  and  C_10 
REMARK    6  A    between atoms: N_15  and  C_14 
REMARK    7  A    between atoms: N_20  and  C_19 
REMARK       I    between atoms: C_22  and  N_20 
ROOT
ATOM      1  C   LIG d   1       0.457  82.180 111.234  0.00  0.00     0.161 C 
ATOM      2  C   LIG d   1      -0.376  82.904 112.104  0.00  0.00     0.016 C 
ATOM      3  C   LIG d   1      -0.252  84.295 112.322  0.00  0.00     0.038 C 
ATOM      4  C   LIG d   1       0.622  85.089 111.565  0.00  0.00     0.028 C 
ATOM      5  C   LIG d   1       1.832  84.325 111.038  0.00  0.00    -0.047 C 
ATOM      6  C   LIG d   1       1.344  83.048 110.317  0.00  0.00     0.091 C 
ENDROOT
BRANCH   1   7
ATOM      7  O   LIG d   1      -0.333  81.266 110.448  0.00  0.00    -0.368 OA
BRANCH   7   8
ATOM      8  C   LIG d   1      -0.359  79.891 110.905  0.00  0.00     0.119 C 
BRANCH   8   9
ATOM      9  C   LIG d   1      -0.377  78.989 109.656  0.00  0.00     0.028 C 
ATOM     10  C   LIG d   1       0.053  79.739 108.384  0.00  0.00     0.006 C 
ENDBRANCH   8   9
BRANCH   8  11
ATOM     11  C   LIG d   1      -1.658  79.577 111.652  0.00  0.00     0.028 C 
ATOM     12  C   LIG d   1      -2.347  78.302 111.138  0.00  0.00     0.006 C 
ENDBRANCH   8  11
ENDBRANCH   7   8
ENDBRANCH   1   7
BRANCH   6  13
ATOM     13  N   LIG d   1       2.468  82.200 109.843  0.00  0.00    -0.311 N 
ATOM     14  C   LIG d   1       2.781  82.046 108.558  0.00  0.00     0.210 C 
ATOM     15  C   LIG d   1       3.963  81.111 108.287  0.00  0.00     0.109 C 
ATOM     16  O   LIG d   1       2.211  82.621 107.618  0.00  0.00    -0.276 OA
ATOM     17  H   LIG d   1       3.004  81.721 110.541  0.00  0.00     0.149 HD
ENDBRANCH   6  13
BRANCH   5  18
ATOM     18  N   LIG d   1       2.584  85.237 110.155  0.00  0.00     0.381 N 
ATOM     19  H   LIG d   1       3.536  85.292 110.458  0.00  0.00    -0.090 HD
ATOM     20  H   LIG d   1       2.180  86.155 110.215  0.00  0.00    -0.090 HD
ATOM     21  H   LIG d   1       2.546  84.909 109.215  0.00  0.00    -0.090 HD
ENDBRANCH   5  18
BRANCH   3  22
ATOM     22  C   LIG d   1      -0.981  84.899 113.335  0.00  0.00     0.382 C 
ATOM     23  O   LIG d   1      -1.316  84.237 114.347  0.00  0.00    -0.241 OA
ATOM     24  O   LIG d   1      -1.346  86.085 113.230  0.00  0.00    -0.241 OA
ENDBRANCH   3  22
TORSDOF 7
ENDMDL
MODEL 5
REMARK VINA RESULT:      -5.5      1.651      2.465
REMARK  7 active torsions:
REMARK  status: ('A' for Active; 'I' for Inactive)
REMARK    1  A    between atoms: C_2  and  C_3 
REMARK    2  A    between atoms: C_3  and  O_6 
REMARK    3  A    between atoms: C_3  and  C_4 
REMARK    4  A    between atoms: C_7  and  O_6 
REMARK    5  A    between atoms: C_9  and  C_10 
REMARK    6  A    between atoms: N_15  and  C_14 
REMARK    7  A    between atoms: N_20  and  C_19 
REMARK       I    between atoms: C_22  and  N_20 
ROOT
ATOM      1  C   LIG d   1       0.342  81.173 111.196  0.00  0.00     0.161 C 
ATOM      2  C   LIG d   1      -0.760  80.427 111.648  0.00  0.00     0.016 C 
ATOM      3  C   LIG d   1      -1.204  79.238 111.023  0.00  0.00     0.038 C 
ATOM      4  C   LIG d   1      -0.480  78.630 109.987  0.00  0.00     0.028 C 
ATOM      5  C   LIG d   1       0.352  79.613 109.171  0.00  0.00    -0.047 C 
ATOM      6  C   LIG d   1       1.210  80.465 110.135  0.00  0.00     0.091 C 
ENDROOT
BRANCH   1   7
ATOM      7  O   LIG d   1       1.151  81.577 112.317  0.00  0.00    -0.368 OA
BRANCH   7   8
ATOM      8  C   LIG d   1       1.261  83.005 112.542  0.00  0.00     0.119 C 
BRANCH   8   9
ATOM      9  C   LIG d   1       2.730  83.400 112.296  0.00  0.00     0.028 C 
ATOM     10  C   LIG d   1       2.861  84.633 111.386  0.00  0.00     0.006 C 
ENDBRANCH   8   9
BRANCH   8  11
ATOM     11  C   LIG d   1       0.984  83.361 114.005  0.00  0.00     0.028 C 
ATOM     12  C   LIG d   1      -0.281  82.684 114.555  0.00  0.00     0.006 C 
ENDBRANCH   8  11
ENDBRANCH   7   8
ENDBRANCH   1   7
BRANCH   6  13
ATOM     13  N   LIG d   1       1.992  81.510 109.424  0.00  0.00    -0.311 N 
ATOM     14  C   LIG d   1       3.265  81.354 109.062  0.00  0.00     0.210 C 
ATOM     15  C   LIG d   1       3.889  82.562 108.358  0.00  0.00     0.109 C 
ATOM     16  O   LIG d   1       3.925  80.317 109.228  0.00  0.00    -0.276 OA
ATOM     17  H   LIG d   1       1.524  82.371 109.221  0.00  0.00     0.149 HD
ENDBRANCH   6  13
BRANCH   5  18
ATOM     18  N   LIG d   1       1.160  78.830 108.217  0.00  0.00     0.381 N 
ATOM     19  H   LIG d   1       0.798  78.946 107.292  0.00  0.00    -0.090 HD
ATOM     20  H   LIG d   1       1.096  77.857 108.461  0.00  0.00    -0.090 HD
ATOM     21  H   LIG d   1       2.110  79.127 108.251  0.00  0.00    -0.090 HD
ENDBRANCH   5  18
BRANCH   3  22
ATOM     22  C   LIG d   1      -2.407  78.668 111.409  0.00  0.00     0.382 C 
ATOM     23  O   LIG d   1      -2.770  77.574 110.914  0.00  0.00    -0.241 OA
ATOM     24  O   LIG d   1      -3.156  79.255 112.213  0.00  0.00    -0.241 OA
ENDBRANCH   3  22
TORSDOF 7
ENDMDL
MODEL 6
REMARK VINA RESULT:      -5.0      2.134      4.448
REMARK  7 active torsions:
REMARK  status: ('A' for Active; 'I' for Inactive)
REMARK    1  A    between atoms: C_2  and  C_3 
REMARK    2  A    between atoms: C_3  and  O_6 
REMARK    3  A    between atoms: C_3  and  C_4 
REMARK    4  A    between atoms: C_7  and  O_6 
REMARK    5  A    between atoms: C_9  and  C_10 
REMARK    6  A    between atoms: N_15  and  C_14 
REMARK    7  A    between atoms: N_20  and  C_19 
REMARK       I    between atoms: C_22  and  N_20 
ROOT
ATOM      1  C   LIG d   1       1.158  82.144 111.675  0.00  0.00     0.161 C 
ATOM      2  C   LIG d   1       0.499  82.934 112.631  0.00  0.00     0.016 C 
ATOM      3  C   LIG d   1      -0.058  84.201 112.343  0.00  0.00     0.038 C 
ATOM      4  C   LIG d   1      -0.126  84.701 111.034  0.00  0.00     0.028 C 
ATOM      5  C   LIG d   1       0.973  84.165 110.123  0.00  0.00    -0.047 C 
ATOM      6  C   LIG d   1       0.995  82.622 110.217  0.00  0.00     0.091 C 
ENDROOT
BRANCH   1   7
ATOM      7  O   LIG d   1       0.737  80.771 111.802  0.00  0.00    -0.368 OA
BRANCH   7   8
ATOM      8  C   LIG d   1      -0.620  80.479 111.385  0.00  0.00     0.119 C 
BRANCH   8   9
ATOM      9  C   LIG d   1      -1.438  80.171 112.654  0.00  0.00     0.028 C 
ATOM     10  C   LIG d   1      -2.817  80.853 112.643  0.00  0.00     0.006 C 
ENDBRANCH   8   9
BRANCH   8  11
ATOM     11  C   LIG d   1      -0.681  79.202 110.542  0.00  0.00     0.028 C 
ATOM     12  C   LIG d   1      -0.268  79.432 109.080  0.00  0.00     0.006 C 
ENDBRANCH   8  11
ENDBRANCH   7   8
ENDBRANCH   1   7
BRANCH   6  13
ATOM     13  N   LIG d   1       2.097  82.021 109.421  0.00  0.00    -0.311 N 
ATOM     14  C   LIG d   1       3.376  82.367 109.561  0.00  0.00     0.210 C 
ATOM     15  C   LIG d   1       4.348  81.640 108.628  0.00  0.00     0.109 C 
ATOM     16  O   LIG d   1       3.800  83.184 110.392  0.00  0.00    -0.276 OA
ATOM     17  H   LIG d   1       1.845  81.327 108.745  0.00  0.00     0.149 HD
ENDBRANCH   6  13
BRANCH   5  18
ATOM     18  N   LIG d   1       0.701  84.657 108.759  0.00  0.00     0.381 N 
ATOM     19  H   LIG d   1       0.379  85.603 108.799  0.00  0.00    -0.090 HD
ATOM     20  H   LIG d   1      -0.024  84.094 108.349  0.00  0.00    -0.090 HD
ATOM     21  H   LIG d   1       1.527  84.602 108.206  0.00  0.00    -0.090 HD
ENDBRANCH   5  18
BRANCH   3  22
ATOM     22  C   LIG d   1      -0.518  85.001 113.378  0.00  0.00     0.382 C 
ATOM     23  O   LIG d   1      -0.041  84.870 114.531  0.00  0.00    -0.241 OA
ATOM     24  O   LIG d   1      -1.435  85.821 113.183  0.00  0.00    -0.241 OA
ENDBRANCH   3  22
TORSDOF 7
ENDMDL
MODEL 7
REMARK VINA RESULT:      -4.0     27.746     29.277
REMARK  7 active torsions:
REMARK  status: ('A' for Active; 'I' for Inactive)
REMARK    1  A    between atoms: C_2  and  C_3 
REMARK    2  A    between atoms: C_3  and  O_6 
REMARK    3  A    between atoms: C_3  and  C_4 
REMARK    4  A    between atoms: C_7  and  O_6 
REMARK    5  A    between atoms: C_9  and  C_10 
REMARK    6  A    between atoms: N_15  and  C_14 
REMARK    7  A    between atoms: N_20  and  C_19 
REMARK       I    between atoms: C_22  and  N_20 
ROOT
ATOM      1  C   LIG d   1     -28.097  73.445 111.800  0.00  0.00     0.161 C 
ATOM      2  C   LIG d   1     -27.508  72.527 112.686  0.00  0.00     0.016 C 
ATOM      3  C   LIG d   1     -26.935  71.303 112.271  0.00  0.00     0.038 C 
ATOM      4  C   LIG d   1     -26.775  70.982 110.914  0.00  0.00     0.028 C 
ATOM      5  C   LIG d   1     -27.807  71.646 110.009  0.00  0.00    -0.047 C 
ATOM      6  C   LIG d   1     -27.833  73.163 110.306  0.00  0.00     0.091 C 
ENDROOT
BRANCH   1   7
ATOM      7  O   LIG d   1     -27.682  74.784 112.138  0.00  0.00    -0.368 OA
BRANCH   7   8
ATOM      8  C   LIG d   1     -26.338  75.153 111.744  0.00  0.00     0.119 C 
BRANCH   8   9
ATOM      9  C   LIG d   1     -25.605  75.644 113.008  0.00  0.00     0.028 C 
ATOM     10  C   LIG d   1     -26.558  75.849 114.197  0.00  0.00     0.006 C 
ENDBRANCH   8   9
BRANCH   8  11
ATOM     11  C   LIG d   1     -26.346  76.350 110.789  0.00  0.00     0.028 C 
ATOM     12  C   LIG d   1     -27.664  77.139 110.833  0.00  0.00     0.006 C 
ENDBRANCH   8  11
ENDBRANCH   7   8
ENDBRANCH   1   7
BRANCH   6  13
ATOM     13  N   LIG d   1     -28.874  73.876 109.522  0.00  0.00    -0.311 N 
ATOM     14  C   LIG d   1     -28.628  74.498 108.371  0.00  0.00     0.210 C 
ATOM     15  C   LIG d   1     -29.839  75.189 107.736  0.00  0.00     0.109 C 
ATOM     16  O   LIG d   1     -27.528  74.516 107.798  0.00  0.00    -0.276 OA
ATOM     17  H   LIG d   1     -29.802  73.885 109.899  0.00  0.00     0.149 HD
ENDBRANCH   6  13
BRANCH   5  18
ATOM     18  N   LIG d   1     -27.440  71.336 108.614  0.00  0.00     0.381 N 
ATOM     19  H   LIG d   1     -28.139  71.693 107.993  0.00  0.00    -0.090 HD
ATOM     20  H   LIG d   1     -27.399  70.339 108.502  0.00  0.00    -0.090 HD
ATOM     21  H   LIG d   1     -26.555  71.739 108.396  0.00  0.00    -0.090 HD
ENDBRANCH   5  18
BRANCH   3  22
ATOM     22  C   LIG d   1     -26.550  70.368 113.219  0.00  0.00     0.382 C 
ATOM     23  O   LIG d   1     -27.102  70.355 114.346  0.00  0.00    -0.241 OA
ATOM     24  O   LIG d   1     -25.629  69.566 112.978  0.00  0.00    -0.241 OA
ENDBRANCH   3  22
TORSDOF 7
ENDMDL
MODEL 8
REMARK VINA RESULT:      -4.0     26.951     28.796
REMARK  7 active torsions:
REMARK  status: ('A' for Active; 'I' for Inactive)
REMARK    1  A    between atoms: C_2  and  C_3 
REMARK    2  A    between atoms: C_3  and  O_6 
REMARK    3  A    between atoms: C_3  and  C_4 
REMARK    4  A    between atoms: C_7  and  O_6 
REMARK    5  A    between atoms: C_9  and  C_10 
REMARK    6  A    between atoms: N_15  and  C_14 
REMARK    7  A    between atoms: N_20  and  C_19 
REMARK       I    between atoms: C_22  and  N_20 
ROOT
ATOM      1  C   LIG d   1     -21.941  63.220 108.895  0.00  0.00     0.161 C 
ATOM      2  C   LIG d   1     -20.648  62.689 108.759  0.00  0.00     0.016 C 
ATOM      3  C   LIG d   1     -19.723  63.134 107.785  0.00  0.00     0.038 C 
ATOM      4  C   LIG d   1     -19.979  64.250 106.975  0.00  0.00     0.028 C 
ATOM      5  C   LIG d   1     -21.464  64.496 106.733  0.00  0.00    -0.047 C 
ATOM      6  C   LIG d   1     -22.198  64.513 108.094  0.00  0.00     0.091 C 
ENDROOT
BRANCH   1   7
ATOM      7  O   LIG d   1     -22.239  63.427 110.290  0.00  0.00    -0.368 OA
BRANCH   7   8
ATOM      8  C   LIG d   1     -21.638  64.594 110.904  0.00  0.00     0.119 C 
BRANCH   8   9
ATOM      9  C   LIG d   1     -20.718  64.099 112.037  0.00  0.00     0.028 C 
ATOM     10  C   LIG d   1     -20.147  65.254 112.876  0.00  0.00     0.006 C 
ENDBRANCH   8   9
BRANCH   8  11
ATOM     11  C   LIG d   1     -22.692  65.468 111.590  0.00  0.00     0.028 C 
ATOM     12  C   LIG d   1     -24.024  64.733 111.811  0.00  0.00     0.006 C 
ENDBRANCH   8  11
ENDBRANCH   7   8
ENDBRANCH   1   7
BRANCH   6  13
ATOM     13  N   LIG d   1     -23.669  64.664 107.943  0.00  0.00    -0.311 N 
ATOM     14  C   LIG d   1     -24.326  65.782 108.246  0.00  0.00     0.210 C 
ATOM     15  C   LIG d   1     -25.842  65.719 108.035  0.00  0.00     0.109 C 
ATOM     16  O   LIG d   1     -23.793  66.831 108.639  0.00  0.00    -0.276 OA
ATOM     17  H   LIG d   1     -24.176  63.872 107.600  0.00  0.00     0.149 HD
ENDBRANCH   6  13
BRANCH   5  18
ATOM     18  N   LIG d   1     -21.591  65.764 105.992  0.00  0.00     0.381 N 
ATOM     19  H   LIG d   1     -22.379  65.719 105.376  0.00  0.00    -0.090 HD
ATOM     20  H   LIG d   1     -20.765  65.901 105.437  0.00  0.00    -0.090 HD
ATOM     21  H   LIG d   1     -21.702  66.522 106.629  0.00  0.00    -0.090 HD
ENDBRANCH   5  18
BRANCH   3  22
ATOM     22  C   LIG d   1     -18.543  62.433 107.588  0.00  0.00     0.382 C 
ATOM     23  O   LIG d   1     -17.720  62.822 106.725  0.00  0.00    -0.241 OA
ATOM     24  O   LIG d   1     -18.312  61.391 108.230  0.00  0.00    -0.241 OA
ENDBRANCH   3  22
TORSDOF 7
ENDMDL
