MODEL 1
REMARK VINA RESULT:      -6.4      0.000      0.000
REMARK  7 active torsions:
REMARK  status: ('A' for Active; 'I' for Inactive)
REMARK    1  A    between atoms: C_2  and  C_3 
REMARK    2  A    between atoms: C_3  and  O_6 
REMARK    3  A    between atoms: C_3  and  C_4 
REMARK    4  A    between atoms: C_7  and  O_6 
REMARK    5  A    between atoms: C_9  and  C_10 
REMARK    6  A    between atoms: N_15  and  C_14 
REMARK    7  A    between atoms: N_20  and  C_19 
REMARK       I    between atoms: C_22  and  N_20 
ROOT
ATOM      1  C   LIG d   1       1.354  81.880 111.905  0.00  0.00     0.161 C 
ATOM      2  C   LIG d   1       2.423  82.356 111.127  0.00  0.00     0.016 C 
ATOM      3  C   LIG d   1       2.570  82.070 109.750  0.00  0.00     0.038 C 
ATOM      4  C   LIG d   1       1.571  81.410 109.018  0.00  0.00     0.028 C 
ATOM      5  C   LIG d   1       0.716  80.476 109.867  0.00  0.00    -0.047 C 
ATOM      6  C   LIG d   1       0.198  81.251 111.100  0.00  0.00     0.091 C 
ENDROOT
BRANCH   1   7
ATOM      7  O   LIG d   1       0.859  82.935 112.752  0.00  0.00    -0.368 OA
BRANCH   7   8
ATOM      8  C   LIG d   1       0.911  84.273 112.200  0.00  0.00     0.119 C 
BRANCH   8   9
ATOM      9  C   LIG d   1       1.404  85.216 113.315  0.00  0.00     0.028 C 
ATOM     10  C   LIG d   1       2.705  85.943 112.936  0.00  0.00     0.006 C 
ENDBRANCH   8   9
BRANCH   8  11
ATOM     11  C   LIG d   1      -0.487  84.779 111.832  0.00  0.00     0.028 C 
ATOM     12  C   LIG d   1      -0.603  85.186 110.354  0.00  0.00     0.006 C 
ENDBRANCH   8  11
ENDBRANCH   7   8
ENDBRANCH   1   7
BRANCH   6  13
ATOM     13  N   LIG d   1      -0.579  80.387 112.027  0.00  0.00    -0.311 N 
ATOM     14  C   LIG d   1      -1.700  80.780 112.629  0.00  0.00     0.210 C 
ATOM     15  C   LIG d   1      -2.331  79.742 113.562  0.00  0.00     0.109 C 
ATOM     16  O   LIG d   1      -2.249  81.879 112.455  0.00  0.00    -0.276 OA
ATOM     17  H   LIG d   1      -0.222  79.468 112.201  0.00  0.00     0.149 HD
ENDBRANCH   6  13
BRANCH   5  18
ATOM     18  N   LIG d   1      -0.368  79.961 109.010  0.00  0.00     0.381 N 
ATOM     19  H   LIG d   1      -1.040  79.474 109.568  0.00  0.00    -0.090 HD
ATOM     20  H   LIG d   1       0.022  79.312 108.348  0.00  0.00    -0.090 HD
ATOM     21  H   LIG d   1      -0.808  80.714 108.528  0.00  0.00    -0.090 HD
ENDBRANCH   5  18
BRANCH   3  22
ATOM     22  C   LIG d   1       3.746  82.413 109.099  0.00  0.00     0.382 C 
ATOM     23  O   LIG d   1       3.958  82.004 107.932  0.00  0.00    -0.241 OA
ATOM     24  O   LIG d   1       4.616  83.087 109.681  0.00  0.00    -0.241 OA
ENDBRANCH   3  22
TORSDOF 7
ENDMDL
MODEL 2
REMARK VINA RESULT:      -6.2      2.885      3.823
REMARK  7 active torsions:
REMARK  status: ('A' for Active; 'I' for Inactive)
REMARK    1  A    between atoms: C_2  and  C_3 
REMARK    2  A    between atoms: C_3  and  O_6 
REMARK    3  A    between atoms: C_3  and  C_4 
REMARK    4  A    between atoms: C_7  and  O_6 
REMARK    5  A    between atoms: C_9  and  C_10 
REMARK    6  A    between atoms: N_15  and  C_14 
REMARK    7  A    between atoms: N_20  and  C_19 
REMARK       I    between atoms: C_22  and  N_20 
ROOT
ATOM      1  C   LIG d   1       1.854  82.689 111.043  0.00  0.00     0.161 C 
ATOM      2  C   LIG d   1       2.750  81.624 110.851  0.00  0.00     0.016 C 
ATOM      3  C   LIG d   1       3.186  81.194 109.577  0.00  0.00     0.038 C 
ATOM      4  C   LIG d   1       2.872  81.902 108.408  0.00  0.00     0.028 C 
ATOM      5  C   LIG d   1       1.564  82.680 108.504  0.00  0.00    -0.047 C 
ATOM      6  C   LIG d   1       1.588  83.544 109.786  0.00  0.00     0.091 C 
ENDROOT
BRANCH   1   7
ATOM      7  O   LIG d   1       2.310  83.522 112.127  0.00  0.00    -0.368 OA
BRANCH   7   8
ATOM      8  C   LIG d   1       3.468  84.349 111.853  0.00  0.00     0.119 C 
BRANCH   8   9
ATOM      9  C   LIG d   1       4.682  83.685 112.532  0.00  0.00     0.028 C 
ATOM     10  C   LIG d   1       4.341  83.121 113.922  0.00  0.00     0.006 C 
ENDBRANCH   8   9
BRANCH   8  11
ATOM     11  C   LIG d   1       3.337  85.726 112.511  0.00  0.00     0.028 C 
ATOM     12  C   LIG d   1       4.346  86.746 111.961  0.00  0.00     0.006 C 
ENDBRANCH   8  11
ENDBRANCH   7   8
ENDBRANCH   1   7
BRANCH   6  13
ATOM     13  N   LIG d   1       0.311  84.274 110.001  0.00  0.00    -0.311 N 
ATOM     14  C   LIG d   1       0.237  85.597 110.133  0.00  0.00     0.210 C 
ATOM     15  C   LIG d   1      -1.174  86.145 110.368  0.00  0.00     0.109 C 
ATOM     16  O   LIG d   1       1.201  86.372 110.047  0.00  0.00    -0.276 OA
ATOM     17  H   LIG d   1      -0.525  83.726 110.053  0.00  0.00     0.149 HD
ENDBRANCH   6  13
BRANCH   5  18
ATOM     18  N   LIG d   1       1.429  83.479 107.271  0.00  0.00     0.381 N 
ATOM     19  H   LIG d   1       1.846  84.379 107.404  0.00  0.00    -0.090 HD
ATOM     20  H   LIG d   1       0.453  83.610 107.074  0.00  0.00    -0.090 HD
ATOM     21  H   LIG d   1       1.870  83.010 106.511  0.00  0.00    -0.090 HD
ENDBRANCH   5  18
BRANCH   3  22
ATOM     22  C   LIG d   1       3.914  80.019 109.460  0.00  0.00     0.382 C 
ATOM     23  O   LIG d   1       3.319  78.916 109.400  0.00  0.00    -0.241 OA
ATOM     24  O   LIG d   1       5.160  80.045 109.459  0.00  0.00    -0.241 OA
ENDBRANCH   3  22
TORSDOF 7
ENDMDL
MODEL 3
REMARK VINA RESULT:      -6.1      2.272      4.656
REMARK  7 active torsions:
REMARK  status: ('A' for Active; 'I' for Inactive)
REMARK    1  A    between atoms: C_2  and  C_3 
REMARK    2  A    between atoms: C_3  and  O_6 
REMARK    3  A    between atoms: C_3  and  C_4 
REMARK    4  A    between atoms: C_7  and  O_6 
REMARK    5  A    between atoms: C_9  and  C_10 
REMARK    6  A    between atoms: N_15  and  C_14 
REMARK    7  A    between atoms: N_20  and  C_19 
REMARK       I    between atoms: C_22  and  N_20 
ROOT
ATOM      1  C   LIG d   1       2.118  83.682 109.843  0.00  0.00     0.161 C 
ATOM      2  C   LIG d   1       2.286  84.829 110.636  0.00  0.00     0.016 C 
ATOM      3  C   LIG d   1       1.470  85.130 111.751  0.00  0.00     0.038 C 
ATOM      4  C   LIG d   1       0.520  84.222 112.242  0.00  0.00     0.028 C 
ATOM      5  C   LIG d   1      -0.027  83.281 111.173  0.00  0.00    -0.047 C 
ATOM      6  C   LIG d   1       1.159  82.625 110.429  0.00  0.00     0.091 C 
ENDROOT
BRANCH   1   7
ATOM      7  O   LIG d   1       3.402  83.091 109.560  0.00  0.00    -0.368 OA
BRANCH   7   8
ATOM      8  C   LIG d   1       3.785  81.970 110.393  0.00  0.00     0.119 C 
BRANCH   8   9
ATOM      9  C   LIG d   1       4.948  82.436 111.290  0.00  0.00     0.028 C 
ATOM     10  C   LIG d   1       4.518  82.635 112.753  0.00  0.00     0.006 C 
ENDBRANCH   8   9
BRANCH   8  11
ATOM     11  C   LIG d   1       4.354  80.822 109.554  0.00  0.00     0.028 C 
ATOM     12  C   LIG d   1       3.940  80.901 108.077  0.00  0.00     0.006 C 
ENDBRANCH   8  11
ENDBRANCH   7   8
ENDBRANCH   1   7
BRANCH   6  13
ATOM     13  N   LIG d   1       0.713  81.753 109.311  0.00  0.00    -0.311 N 
ATOM     14  C   LIG d   1       0.484  80.448 109.446  0.00  0.00     0.210 C 
ATOM     15  C   LIG d   1       0.051  79.731 108.163  0.00  0.00     0.109 C 
ATOM     16  O   LIG d   1       0.567  79.822 110.513  0.00  0.00    -0.276 OA
ATOM     17  H   LIG d   1       0.591  82.185 108.416  0.00  0.00     0.149 HD
ENDBRANCH   6  13
BRANCH   5  18
ATOM     18  N   LIG d   1      -0.900  82.301 111.847  0.00  0.00     0.381 N 
ATOM     19  H   LIG d   1      -0.706  82.293 112.828  0.00  0.00    -0.090 HD
ATOM     20  H   LIG d   1      -0.706  81.386 111.480  0.00  0.00    -0.090 HD
ATOM     21  H   LIG d   1      -1.856  82.534 111.691  0.00  0.00    -0.090 HD
ENDBRANCH   5  18
BRANCH   3  22
ATOM     22  C   LIG d   1       1.573  86.370 112.363  0.00  0.00     0.382 C 
ATOM     23  O   LIG d   1       1.780  86.444 113.599  0.00  0.00    -0.241 OA
ATOM     24  O   LIG d   1       1.418  87.415 111.704  0.00  0.00    -0.241 OA
ENDBRANCH   3  22
TORSDOF 7
ENDMDL
MODEL 4
REMARK VINA RESULT:      -6.0      2.601      4.837
REMARK  7 active torsions:
REMARK  status: ('A' for Active; 'I' for Inactive)
REMARK    1  A    between atoms: C_2  and  C_3 
REMARK    2  A    between atoms: C_3  and  O_6 
REMARK    3  A    between atoms: C_3  and  C_4 
REMARK    4  A    between atoms: C_7  and  O_6 
REMARK    5  A    between atoms: C_9  and  C_10 
REMARK    6  A    between atoms: N_15  and  C_14 
REMARK    7  A    between atoms: N_20  and  C_19 
REMARK       I    between atoms: C_22  and  N_20 
ROOT
ATOM      1  C   LIG d   1       2.351  84.364 110.024  0.00  0.00     0.161 C 
ATOM      2  C   LIG d   1       1.315  85.300 110.176  0.00  0.00     0.016 C 
ATOM      3  C   LIG d   1      -0.005  84.946 110.540  0.00  0.00     0.038 C 
ATOM      4  C   LIG d   1      -0.343  83.641 110.927  0.00  0.00     0.028 C 
ATOM      5  C   LIG d   1       0.549  82.574 110.302  0.00  0.00    -0.047 C 
ATOM      6  C   LIG d   1       2.028  82.949 110.549  0.00  0.00     0.091 C 
ENDROOT
BRANCH   1   7
ATOM      7  O   LIG d   1       3.555  84.864 110.639  0.00  0.00    -0.368 OA
BRANCH   7   8
ATOM      8  C   LIG d   1       3.374  85.691 111.814  0.00  0.00     0.119 C 
BRANCH   8   9
ATOM      9  C   LIG d   1       4.518  86.723 111.835  0.00  0.00     0.028 C 
ATOM     10  C   LIG d   1       4.226  87.904 112.776  0.00  0.00     0.006 C 
ENDBRANCH   8   9
BRANCH   8  11
ATOM     11  C   LIG d   1       3.540  84.875 113.100  0.00  0.00     0.028 C 
ATOM     12  C   LIG d   1       2.226  84.717 113.880  0.00  0.00     0.006 C 
ENDBRANCH   8  11
ENDBRANCH   7   8
ENDBRANCH   1   7
BRANCH   6  13
ATOM     13  N   LIG d   1       2.970  82.002 109.897  0.00  0.00    -0.311 N 
ATOM     14  C   LIG d   1       4.085  81.561 110.478  0.00  0.00     0.210 C 
ATOM     15  C   LIG d   1       4.924  80.605 109.624  0.00  0.00     0.109 C 
ATOM     16  O   LIG d   1       4.442  81.845 111.631  0.00  0.00    -0.276 OA
ATOM     17  H   LIG d   1       2.741  81.695 108.972  0.00  0.00     0.149 HD
ENDBRANCH   6  13
BRANCH   5  18
ATOM     18  N   LIG d   1       0.175  81.276 110.896  0.00  0.00     0.381 N 
ATOM     19  H   LIG d   1      -0.809  81.128 110.793  0.00  0.00    -0.090 HD
ATOM     20  H   LIG d   1       0.391  81.294 111.877  0.00  0.00    -0.090 HD
ATOM     21  H   LIG d   1       0.678  80.540 110.451  0.00  0.00    -0.090 HD
ENDBRANCH   5  18
BRANCH   3  22
ATOM     22  C   LIG d   1      -1.012  85.898 110.482  0.00  0.00     0.382 C 
ATOM     23  O   LIG d   1      -1.130  86.743 111.402  0.00  0.00    -0.241 OA
ATOM     24  O   LIG d   1      -1.831  85.894 109.544  0.00  0.00    -0.241 OA
ENDBRANCH   3  22
TORSDOF 7
ENDMDL
MODEL 5
REMARK VINA RESULT:      -5.8      2.279      4.552
REMARK  7 active torsions:
REMARK  status: ('A' for Active; 'I' for Inactive)
REMARK    1  A    between atoms: C_2  and  C_3 
REMARK    2  A    between atoms: C_3  and  O_6 
REMARK    3  A    between atoms: C_3  and  C_4 
REMARK    4  A    between atoms: C_7  and  O_6 
REMARK    5  A    between atoms: C_9  and  C_10 
REMARK    6  A    between atoms: N_15  and  C_14 
REMARK    7  A    between atoms: N_20  and  C_19 
REMARK       I    between atoms: C_22  and  N_20 
ROOT
ATOM      1  C   LIG d   1       1.485  82.723 110.136  0.00  0.00     0.161 C 
ATOM      2  C   LIG d   1       1.674  84.104 110.313  0.00  0.00     0.016 C 
ATOM      3  C   LIG d   1       0.816  84.913 111.092  0.00  0.00     0.038 C 
ATOM      4  C   LIG d   1      -0.209  84.366 111.877  0.00  0.00     0.028 C 
ATOM      5  C   LIG d   1      -0.748  83.046 111.335  0.00  0.00    -0.047 C 
ATOM      6  C   LIG d   1       0.437  82.089 111.074  0.00  0.00     0.091 C 
ENDROOT
BRANCH   1   7
ATOM      7  O   LIG d   1       2.747  82.038 110.259  0.00  0.00    -0.368 OA
BRANCH   7   8
ATOM      8  C   LIG d   1       3.718  82.297 109.216  0.00  0.00     0.119 C 
BRANCH   8   9
ATOM      9  C   LIG d   1       3.949  80.975 108.459  0.00  0.00     0.028 C 
ATOM     10  C   LIG d   1       3.325  79.769 109.181  0.00  0.00     0.006 C 
ENDBRANCH   8   9
BRANCH   8  11
ATOM     11  C   LIG d   1       5.081  82.672 109.804  0.00  0.00     0.028 C 
ATOM     12  C   LIG d   1       5.116  82.575 111.337  0.00  0.00     0.006 C 
ENDBRANCH   8  11
ENDBRANCH   7   8
ENDBRANCH   1   7
BRANCH   6  13
ATOM     13  N   LIG d   1       0.005  80.805 110.463  0.00  0.00    -0.311 N 
ATOM     14  C   LIG d   1      -0.424  79.763 111.173  0.00  0.00     0.210 C 
ATOM     15  C   LIG d   1      -0.802  78.529 110.347  0.00  0.00     0.109 C 
ATOM     16  O   LIG d   1      -0.558  79.754 112.406  0.00  0.00    -0.276 OA
ATOM     17  H   LIG d   1       0.051  80.736 109.465  0.00  0.00     0.149 HD
ENDBRANCH   6  13
BRANCH   5  18
ATOM     18  N   LIG d   1      -1.712  82.520 112.320  0.00  0.00     0.381 N 
ATOM     19  H   LIG d   1      -1.223  82.178 113.123  0.00  0.00    -0.090 HD
ATOM     20  H   LIG d   1      -2.214  81.754 111.906  0.00  0.00    -0.090 HD
ATOM     21  H   LIG d   1      -2.349  83.236 112.590  0.00  0.00    -0.090 HD
ENDBRANCH   5  18
BRANCH   3  22
ATOM     22  C   LIG d   1       0.956  86.293 111.061  0.00  0.00     0.382 C 
ATOM     23  O   LIG d   1      -0.015  87.028 111.359  0.00  0.00    -0.241 OA
ATOM     24  O   LIG d   1       2.028  86.810 110.695  0.00  0.00    -0.241 OA
ENDBRANCH   3  22
TORSDOF 7
ENDMDL
MODEL 6
REMARK VINA RESULT:      -5.7      2.495      5.577
REMARK  7 active torsions:
REMARK  status: ('A' for Active; 'I' for Inactive)
REMARK    1  A    between atoms: C_2  and  C_3 
REMARK    2  A    between atoms: C_3  and  O_6 
REMARK    3  A    between atoms: C_3  and  C_4 
REMARK    4  A    between atoms: C_7  and  O_6 
REMARK    5  A    between atoms: C_9  and  C_10 
REMARK    6  A    between atoms: N_15  and  C_14 
REMARK    7  A    between atoms: N_20  and  C_19 
REMARK       I    between atoms: C_22  and  N_20 
ROOT
ATOM      1  C   LIG d   1       2.385  82.697 111.426  0.00  0.00     0.161 C 
ATOM      2  C   LIG d   1       1.425  81.671 111.420  0.00  0.00     0.016 C 
ATOM      3  C   LIG d   1       0.050  81.890 111.664  0.00  0.00     0.038 C 
ATOM      4  C   LIG d   1      -0.485  83.181 111.783  0.00  0.00     0.028 C 
ATOM      5  C   LIG d   1       0.518  84.208 112.299  0.00  0.00    -0.047 C 
ATOM      6  C   LIG d   1       1.803  84.126 111.444  0.00  0.00     0.091 C 
ENDROOT
BRANCH   1   7
ATOM      7  O   LIG d   1       3.281  82.535 110.309  0.00  0.00    -0.368 OA
BRANCH   7   8
ATOM      8  C   LIG d   1       2.721  81.911 109.128  0.00  0.00     0.119 C 
BRANCH   8   9
ATOM      9  C   LIG d   1       3.713  80.827 108.663  0.00  0.00     0.028 C 
ATOM     10  C   LIG d   1       4.781  80.515 109.724  0.00  0.00     0.006 C 
ENDBRANCH   8   9
BRANCH   8  11
ATOM     11  C   LIG d   1       2.628  82.902 107.965  0.00  0.00     0.028 C 
ATOM     12  C   LIG d   1       1.372  83.785 108.032  0.00  0.00     0.006 C 
ENDBRANCH   8  11
ENDBRANCH   7   8
ENDBRANCH   1   7
BRANCH   6  13
ATOM     13  N   LIG d   1       2.868  85.039 111.935  0.00  0.00    -0.311 N 
ATOM     14  C   LIG d   1       3.006  86.297 111.518  0.00  0.00     0.210 C 
ATOM     15  C   LIG d   1       4.182  87.058 112.135  0.00  0.00     0.109 C 
ATOM     16  O   LIG d   1       2.245  86.864 110.719  0.00  0.00    -0.276 OA
ATOM     17  H   LIG d   1       3.511  84.670 112.608  0.00  0.00     0.149 HD
ENDBRANCH   6  13
BRANCH   5  18
ATOM     18  N   LIG d   1      -0.131  85.531 112.243  0.00  0.00     0.381 N 
ATOM     19  H   LIG d   1       0.361  86.174 112.831  0.00  0.00    -0.090 HD
ATOM     20  H   LIG d   1      -1.072  85.447 112.586  0.00  0.00    -0.090 HD
ATOM     21  H   LIG d   1      -0.140  85.867 111.306  0.00  0.00    -0.090 HD
ENDBRANCH   5  18
BRANCH   3  22
ATOM     22  C   LIG d   1      -0.799  80.807 111.831  0.00  0.00     0.382 C 
ATOM     23  O   LIG d   1      -1.718  80.856 112.685  0.00  0.00    -0.241 OA
ATOM     24  O   LIG d   1      -0.631  79.764 111.171  0.00  0.00    -0.241 OA
ENDBRANCH   3  22
TORSDOF 7
ENDMDL
MODEL 7
REMARK VINA RESULT:      -5.4      2.719      5.185
REMARK  7 active torsions:
REMARK  status: ('A' for Active; 'I' for Inactive)
REMARK    1  A    between atoms: C_2  and  C_3 
REMARK    2  A    between atoms: C_3  and  O_6 
REMARK    3  A    between atoms: C_3  and  C_4 
REMARK    4  A    between atoms: C_7  and  O_6 
REMARK    5  A    between atoms: C_9  and  C_10 
REMARK    6  A    between atoms: N_15  and  C_14 
REMARK    7  A    between atoms: N_20  and  C_19 
REMARK       I    between atoms: C_22  and  N_20 
ROOT
ATOM      1  C   LIG d   1       0.890  80.116 110.060  0.00  0.00     0.161 C 
ATOM      2  C   LIG d   1       0.446  78.784 110.026  0.00  0.00     0.016 C 
ATOM      3  C   LIG d   1      -0.618  78.298 110.819  0.00  0.00     0.038 C 
ATOM      4  C   LIG d   1      -1.415  79.153 111.596  0.00  0.00     0.028 C 
ATOM      5  C   LIG d   1      -0.686  80.414 112.049  0.00  0.00    -0.047 C 
ATOM      6  C   LIG d   1      -0.038  81.088 110.818  0.00  0.00     0.091 C 
ENDROOT
BRANCH   1   7
ATOM      7  O   LIG d   1       1.122  80.589 108.718  0.00  0.00    -0.368 OA
BRANCH   7   8
ATOM      8  C   LIG d   1       2.500  80.867 108.369  0.00  0.00     0.119 C 
BRANCH   8   9
ATOM      9  C   LIG d   1       3.388  80.264 109.475  0.00  0.00     0.028 C 
ATOM     10  C   LIG d   1       4.577  81.172 109.833  0.00  0.00     0.006 C 
ENDBRANCH   8   9
BRANCH   8  11
ATOM     11  C   LIG d   1       2.788  82.371 108.393  0.00  0.00     0.028 C 
ATOM     12  C   LIG d   1       1.653  83.205 107.778  0.00  0.00     0.006 C 
ENDBRANCH   8  11
ENDBRANCH   7   8
ENDBRANCH   1   7
BRANCH   6  13
ATOM     13  N   LIG d   1       0.765  82.284 111.184  0.00  0.00    -0.311 N 
ATOM     14  C   LIG d   1       0.280  83.524 111.176  0.00  0.00     0.210 C 
ATOM     15  C   LIG d   1       1.283  84.613 111.568  0.00  0.00     0.109 C 
ATOM     16  O   LIG d   1      -0.895  83.822 110.912  0.00  0.00    -0.276 OA
ATOM     17  H   LIG d   1       1.721  82.130 111.442  0.00  0.00     0.149 HD
ENDBRANCH   6  13
BRANCH   5  18
ATOM     18  N   LIG d   1      -1.670  81.277 112.729  0.00  0.00     0.381 N 
ATOM     19  H   LIG d   1      -2.538  80.788 112.829  0.00  0.00    -0.090 HD
ATOM     20  H   LIG d   1      -1.831  82.093 112.166  0.00  0.00    -0.090 HD
ATOM     21  H   LIG d   1      -1.327  81.544 113.625  0.00  0.00    -0.090 HD
ENDBRANCH   5  18
BRANCH   3  22
ATOM     22  C   LIG d   1      -0.870  76.935 110.872  0.00  0.00     0.382 C 
ATOM     23  O   LIG d   1      -2.047  76.519 111.000  0.00  0.00    -0.241 OA
ATOM     24  O   LIG d   1       0.069  76.118 110.837  0.00  0.00    -0.241 OA
ENDBRANCH   3  22
TORSDOF 7
ENDMDL
MODEL 8
REMARK VINA RESULT:      -5.3      2.184      3.991
REMARK  7 active torsions:
REMARK  status: ('A' for Active; 'I' for Inactive)
REMARK    1  A    between atoms: C_2  and  C_3 
REMARK    2  A    between atoms: C_3  and  O_6 
REMARK    3  A    between atoms: C_3  and  C_4 
REMARK    4  A    between atoms: C_7  and  O_6 
REMARK    5  A    between atoms: C_9  and  C_10 
REMARK    6  A    between atoms: N_15  and  C_14 
REMARK    7  A    between atoms: N_20  and  C_19 
REMARK       I    between atoms: C_22  and  N_20 
ROOT
ATOM      1  C   LIG d   1       2.037  82.237 110.509  0.00  0.00     0.161 C 
ATOM      2  C   LIG d   1       2.047  81.138 109.635  0.00  0.00     0.016 C 
ATOM      3  C   LIG d   1       1.063  80.122 109.651  0.00  0.00     0.038 C 
ATOM      4  C   LIG d   1      -0.088  80.217 110.446  0.00  0.00     0.028 C 
ATOM      5  C   LIG d   1       0.113  81.055 111.705  0.00  0.00    -0.047 C 
ATOM      6  C   LIG d   1       0.729  82.416 111.309  0.00  0.00     0.091 C 
ENDROOT
BRANCH   1   7
ATOM      7  O   LIG d   1       2.348  83.442 109.782  0.00  0.00    -0.368 OA
BRANCH   7   8
ATOM      8  C   LIG d   1       3.642  84.034 110.054  0.00  0.00     0.119 C 
BRANCH   8   9
ATOM      9  C   LIG d   1       4.394  83.086 111.008  0.00  0.00     0.028 C 
ATOM     10  C   LIG d   1       5.399  82.186 110.270  0.00  0.00     0.006 C 
ENDBRANCH   8   9
BRANCH   8  11
ATOM     11  C   LIG d   1       3.502  85.353 110.820  0.00  0.00     0.028 C 
ATOM     12  C   LIG d   1       4.303  85.369 112.131  0.00  0.00     0.006 C 
ENDBRANCH   8  11
ENDBRANCH   7   8
ENDBRANCH   1   7
BRANCH   6  13
ATOM     13  N   LIG d   1       1.036  83.264 112.490  0.00  0.00    -0.311 N 
ATOM     14  C   LIG d   1       0.691  84.547 112.580  0.00  0.00     0.210 C 
ATOM     15  C   LIG d   1       1.122  85.243 113.875  0.00  0.00     0.109 C 
ATOM     16  O   LIG d   1       0.040  85.167 111.725  0.00  0.00    -0.276 OA
ATOM     17  H   LIG d   1       1.535  82.833 113.243  0.00  0.00     0.149 HD
ENDBRANCH   6  13
BRANCH   5  18
ATOM     18  N   LIG d   1      -1.198  81.185 112.368  0.00  0.00     0.381 N 
ATOM     19  H   LIG d   1      -1.389  82.149 112.555  0.00  0.00    -0.090 HD
ATOM     20  H   LIG d   1      -1.170  80.693 113.244  0.00  0.00    -0.090 HD
ATOM     21  H   LIG d   1      -1.913  80.803 111.788  0.00  0.00    -0.090 HD
ENDBRANCH   5  18
BRANCH   3  22
ATOM     22  C   LIG d   1       1.247  78.976 108.892  0.00  0.00     0.382 C 
ATOM     23  O   LIG d   1       1.421  77.870 109.459  0.00  0.00    -0.241 OA
ATOM     24  O   LIG d   1       1.285  79.040 107.649  0.00  0.00    -0.241 OA
ENDBRANCH   3  22
TORSDOF 7
ENDMDL
MODEL 9
REMARK VINA RESULT:      -5.1      2.453      4.668
REMARK  7 active torsions:
REMARK  status: ('A' for Active; 'I' for Inactive)
REMARK    1  A    between atoms: C_2  and  C_3 
REMARK    2  A    between atoms: C_3  and  O_6 
REMARK    3  A    between atoms: C_3  and  C_4 
REMARK    4  A    between atoms: C_7  and  O_6 
REMARK    5  A    between atoms: C_9  and  C_10 
REMARK    6  A    between atoms: N_15  and  C_14 
REMARK    7  A    between atoms: N_20  and  C_19 
REMARK       I    between atoms: C_22  and  N_20 
ROOT
ATOM      1  C   LIG d   1       0.523  81.942 110.354  0.00  0.00     0.161 C 
ATOM      2  C   LIG d   1       1.478  80.940 110.116  0.00  0.00     0.016 C 
ATOM      3  C   LIG d   1       2.870  81.183 110.084  0.00  0.00     0.038 C 
ATOM      4  C   LIG d   1       3.414  82.427 110.440  0.00  0.00     0.028 C 
ATOM      5  C   LIG d   1       2.465  83.595 110.195  0.00  0.00    -0.047 C 
ATOM      6  C   LIG d   1       1.102  83.282 110.854  0.00  0.00     0.091 C 
ENDROOT
BRANCH   1   7
ATOM      7  O   LIG d   1      -0.478  81.456 111.270  0.00  0.00    -0.368 OA
BRANCH   7   8
ATOM      8  C   LIG d   1      -0.322  80.086 111.716  0.00  0.00     0.119 C 
BRANCH   8   9
ATOM      9  C   LIG d   1      -1.101  79.188 110.735  0.00  0.00     0.028 C 
ATOM     10  C   LIG d   1      -0.858  77.691 110.990  0.00  0.00     0.006 C 
ENDBRANCH   8   9
BRANCH   8  11
ATOM     11  C   LIG d   1      -0.983  79.865 113.080  0.00  0.00     0.028 C 
ATOM     12  C   LIG d   1      -2.448  80.328 113.114  0.00  0.00     0.006 C 
ENDBRANCH   8  11
ENDBRANCH   7   8
ENDBRANCH   1   7
BRANCH   6  13
ATOM     13  N   LIG d   1       0.089  84.336 110.590  0.00  0.00    -0.311 N 
ATOM     14  C   LIG d   1      -0.132  85.363 111.410  0.00  0.00     0.210 C 
ATOM     15  C   LIG d   1      -1.235  86.325 110.959  0.00  0.00     0.109 C 
ATOM     16  O   LIG d   1       0.504  85.585 112.452  0.00  0.00    -0.276 OA
ATOM     17  H   LIG d   1      -0.451  84.251 109.751  0.00  0.00     0.149 HD
ENDBRANCH   6  13
BRANCH   5  18
ATOM     18  N   LIG d   1       3.104  84.809 110.737  0.00  0.00     0.381 N 
ATOM     19  H   LIG d   1       4.038  84.884 110.388  0.00  0.00    -0.090 HD
ATOM     20  H   LIG d   1       3.146  84.735 111.738  0.00  0.00    -0.090 HD
ATOM     21  H   LIG d   1       2.579  85.615 110.477  0.00  0.00    -0.090 HD
ENDBRANCH   5  18
BRANCH   3  22
ATOM     22  C   LIG d   1       3.733  80.186 109.654  0.00  0.00     0.382 C 
ATOM     23  O   LIG d   1       4.963  80.418 109.563  0.00  0.00    -0.241 OA
ATOM     24  O   LIG d   1       3.291  79.073 109.313  0.00  0.00    -0.241 OA
ENDBRANCH   3  22
TORSDOF 7
ENDMDL
