MODEL 1
REMARK VINA RESULT:      -6.5      0.000      0.000
REMARK  7 active torsions:
REMARK  status: ('A' for Active; 'I' for Inactive)
REMARK    1  A    between atoms: C_2  and  C_3 
REMARK    2  A    between atoms: C_3  and  O_6 
REMARK    3  A    between atoms: C_3  and  C_4 
REMARK    4  A    between atoms: C_7  and  O_6 
REMARK    5  A    between atoms: C_9  and  C_10 
REMARK    6  A    between atoms: N_15  and  C_14 
REMARK    7  A    between atoms: N_20  and  C_19 
REMARK       I    between atoms: C_22  and  N_20 
ROOT
ATOM      1  C   LIG d   1       0.936  83.816 109.429  0.00  0.00     0.161 C 
ATOM      2  C   LIG d   1       0.366  84.904 110.111  0.00  0.00     0.016 C 
ATOM      3  C   LIG d   1      -0.496  84.761 111.223  0.00  0.00     0.038 C 
ATOM      4  C   LIG d   1      -0.727  83.516 111.826  0.00  0.00     0.028 C 
ATOM      5  C   LIG d   1      -0.576  82.340 110.866  0.00  0.00    -0.047 C 
ATOM      6  C   LIG d   1       0.784  82.456 110.141  0.00  0.00     0.091 C 
ENDROOT
BRANCH   1   7
ATOM      7  O   LIG d   1       2.325  84.086 109.154  0.00  0.00    -0.368 OA
BRANCH   7   8
ATOM      8  C   LIG d   1       3.259  83.760 110.213  0.00  0.00     0.119 C 
BRANCH   8   9
ATOM      9  C   LIG d   1       3.870  85.082 110.714  0.00  0.00     0.028 C 
ATOM     10  C   LIG d   1       3.415  85.436 112.140  0.00  0.00     0.006 C 
ENDBRANCH   8   9
BRANCH   8  11
ATOM     11  C   LIG d   1       4.440  82.943 109.681  0.00  0.00     0.028 C 
ATOM     12  C   LIG d   1       4.201  82.402 108.263  0.00  0.00     0.006 C 
ENDBRANCH   8  11
ENDBRANCH   7   8
ENDBRANCH   1   7
BRANCH   6  13
ATOM     13  N   LIG d   1       0.975  81.391 109.122  0.00  0.00    -0.311 N 
ATOM     14  C   LIG d   1       1.678  80.281 109.344  0.00  0.00     0.210 C 
ATOM     15  C   LIG d   1       1.767  79.323 108.152  0.00  0.00     0.109 C 
ATOM     16  O   LIG d   1       2.208  79.984 110.425  0.00  0.00    -0.276 OA
ATOM     17  H   LIG d   1       0.553  81.536 108.226  0.00  0.00     0.149 HD
ENDBRANCH   6  13
BRANCH   5  18
ATOM     18  N   LIG d   1      -0.708  81.101 111.655  0.00  0.00     0.381 N 
ATOM     19  H   LIG d   1      -1.507  81.163 112.253  0.00  0.00    -0.090 HD
ATOM     20  H   LIG d   1       0.109  80.994 112.231  0.00  0.00    -0.090 HD
ATOM     21  H   LIG d   1      -0.799  80.317 111.047  0.00  0.00    -0.090 HD
ENDBRANCH   5  18
BRANCH   3  22
ATOM     22  C   LIG d   1      -1.169  85.868 111.718  0.00  0.00     0.382 C 
ATOM     23  O   LIG d   1      -1.509  86.793 110.943  0.00  0.00    -0.241 OA
ATOM     24  O   LIG d   1      -1.400  85.973 112.937  0.00  0.00    -0.241 OA
ENDBRANCH   3  22
TORSDOF 7
ENDMDL
MODEL 2
REMARK VINA RESULT:      -6.5      2.143      5.126
REMARK  7 active torsions:
REMARK  status: ('A' for Active; 'I' for Inactive)
REMARK    1  A    between atoms: C_2  and  C_3 
REMARK    2  A    between atoms: C_3  and  O_6 
REMARK    3  A    between atoms: C_3  and  C_4 
REMARK    4  A    between atoms: C_7  and  O_6 
REMARK    5  A    between atoms: C_9  and  C_10 
REMARK    6  A    between atoms: N_15  and  C_14 
REMARK    7  A    between atoms: N_20  and  C_19 
REMARK       I    between atoms: C_22  and  N_20 
ROOT
ATOM      1  C   LIG d   1       1.679  82.916 111.888  0.00  0.00     0.161 C 
ATOM      2  C   LIG d   1       2.688  82.940 110.911  0.00  0.00     0.016 C 
ATOM      3  C   LIG d   1       2.757  82.020 109.840  0.00  0.00     0.038 C 
ATOM      4  C   LIG d   1       1.728  81.101 109.585  0.00  0.00     0.028 C 
ATOM      5  C   LIG d   1       0.944  80.708 110.833  0.00  0.00    -0.047 C 
ATOM      6  C   LIG d   1       0.487  81.991 111.564  0.00  0.00     0.091 C 
ENDROOT
BRANCH   1   7
ATOM      7  O   LIG d   1       1.217  84.256 112.146  0.00  0.00    -0.368 OA
BRANCH   7   8
ATOM      8  C   LIG d   1       0.120  84.722 111.322  0.00  0.00     0.119 C 
BRANCH   8   9
ATOM      9  C   LIG d   1       0.697  85.731 110.310  0.00  0.00     0.028 C 
ATOM     10  C   LIG d   1       0.656  85.203 108.866  0.00  0.00     0.006 C 
ENDBRANCH   8   9
BRANCH   8  11
ATOM     11  C   LIG d   1      -0.900  85.513 112.146  0.00  0.00     0.028 C 
ATOM     12  C   LIG d   1      -0.813  85.211 113.651  0.00  0.00     0.006 C 
ENDBRANCH   8  11
ENDBRANCH   7   8
ENDBRANCH   1   7
BRANCH   6  13
ATOM     13  N   LIG d   1      -0.214  81.696 112.840  0.00  0.00    -0.311 N 
ATOM     14  C   LIG d   1      -1.541  81.657 112.956  0.00  0.00     0.210 C 
ATOM     15  C   LIG d   1      -2.058  81.355 114.366  0.00  0.00     0.109 C 
ATOM     16  O   LIG d   1      -2.337  81.811 112.018  0.00  0.00    -0.276 OA
ATOM     17  H   LIG d   1       0.356  81.528 113.646  0.00  0.00     0.149 HD
ENDBRANCH   6  13
BRANCH   5  18
ATOM     18  N   LIG d   1      -0.180  79.855 110.402  0.00  0.00     0.381 N 
ATOM     19  H   LIG d   1      -0.105  79.664 109.423  0.00  0.00    -0.090 HD
ATOM     20  H   LIG d   1      -1.041  80.348 110.562  0.00  0.00    -0.090 HD
ATOM     21  H   LIG d   1      -0.178  79.002 110.916  0.00  0.00    -0.090 HD
ENDBRANCH   5  18
BRANCH   3  22
ATOM     22  C   LIG d   1       3.883  81.988 109.033  0.00  0.00     0.382 C 
ATOM     23  O   LIG d   1       4.116  80.981 108.321  0.00  0.00    -0.241 OA
ATOM     24  O   LIG d   1       4.694  82.934 109.040  0.00  0.00    -0.241 OA
ENDBRANCH   3  22
TORSDOF 7
ENDMDL
MODEL 3
REMARK VINA RESULT:      -6.4      2.161      4.880
REMARK  7 active torsions:
REMARK  status: ('A' for Active; 'I' for Inactive)
REMARK    1  A    between atoms: C_2  and  C_3 
REMARK    2  A    between atoms: C_3  and  O_6 
REMARK    3  A    between atoms: C_3  and  C_4 
REMARK    4  A    between atoms: C_7  and  O_6 
REMARK    5  A    between atoms: C_9  and  C_10 
REMARK    6  A    between atoms: N_15  and  C_14 
REMARK    7  A    between atoms: N_20  and  C_19 
REMARK       I    between atoms: C_22  and  N_20 
ROOT
ATOM      1  C   LIG d   1       1.429  82.956 111.745  0.00  0.00     0.161 C 
ATOM      2  C   LIG d   1       2.440  82.925 110.771  0.00  0.00     0.016 C 
ATOM      3  C   LIG d   1       2.546  81.913 109.790  0.00  0.00     0.038 C 
ATOM      4  C   LIG d   1       1.552  80.937 109.622  0.00  0.00     0.028 C 
ATOM      5  C   LIG d   1       0.779  80.633 110.901  0.00  0.00    -0.047 C 
ATOM      6  C   LIG d   1       0.273  81.961 111.508  0.00  0.00     0.091 C 
ENDROOT
BRANCH   1   7
ATOM      7  O   LIG d   1       0.917  84.297 111.877  0.00  0.00    -0.368 OA
BRANCH   7   8
ATOM      8  C   LIG d   1       1.014  85.134 110.699  0.00  0.00     0.119 C 
BRANCH   8   9
ATOM      9  C   LIG d   1       1.423  86.545 111.167  0.00  0.00     0.028 C 
ATOM     10  C   LIG d   1       2.451  86.509 112.310  0.00  0.00     0.006 C 
ENDBRANCH   8   9
BRANCH   8  11
ATOM     11  C   LIG d   1      -0.350  85.310 110.025  0.00  0.00     0.028 C 
ATOM     12  C   LIG d   1      -1.182  86.440 110.650  0.00  0.00     0.006 C 
ENDBRANCH   8  11
ENDBRANCH   7   8
ENDBRANCH   1   7
BRANCH   6  13
ATOM     13  N   LIG d   1      -0.422  81.762 112.807  0.00  0.00    -0.311 N 
ATOM     14  C   LIG d   1      -1.745  81.655 112.922  0.00  0.00     0.210 C 
ATOM     15  C   LIG d   1      -2.257  81.474 114.354  0.00  0.00     0.109 C 
ATOM     16  O   LIG d   1      -2.540  81.662 111.970  0.00  0.00    -0.276 OA
ATOM     17  H   LIG d   1       0.149  81.714 113.627  0.00  0.00     0.149 HD
ENDBRANCH   6  13
BRANCH   5  18
ATOM     18  N   LIG d   1      -0.312  79.704 110.552  0.00  0.00     0.381 N 
ATOM     19  H   LIG d   1       0.019  78.761 110.595  0.00  0.00    -0.090 HD
ATOM     20  H   LIG d   1      -0.610  79.891 109.610  0.00  0.00    -0.090 HD
ATOM     21  H   LIG d   1      -1.077  79.824 111.179  0.00  0.00    -0.090 HD
ENDBRANCH   5  18
BRANCH   3  22
ATOM     22  C   LIG d   1       3.676  81.846 108.989  0.00  0.00     0.382 C 
ATOM     23  O   LIG d   1       4.505  82.788 108.996  0.00  0.00    -0.241 OA
ATOM     24  O   LIG d   1       3.855  80.877 108.228  0.00  0.00    -0.241 OA
ENDBRANCH   3  22
TORSDOF 7
ENDMDL
MODEL 4
REMARK VINA RESULT:      -6.3      2.334      4.698
REMARK  7 active torsions:
REMARK  status: ('A' for Active; 'I' for Inactive)
REMARK    1  A    between atoms: C_2  and  C_3 
REMARK    2  A    between atoms: C_3  and  O_6 
REMARK    3  A    between atoms: C_3  and  C_4 
REMARK    4  A    between atoms: C_7  and  O_6 
REMARK    5  A    between atoms: C_9  and  C_10 
REMARK    6  A    between atoms: N_15  and  C_14 
REMARK    7  A    between atoms: N_20  and  C_19 
REMARK       I    between atoms: C_22  and  N_20 
ROOT
ATOM      1  C   LIG d   1       1.257  81.796 111.789  0.00  0.00     0.161 C 
ATOM      2  C   LIG d   1       2.318  82.555 111.267  0.00  0.00     0.016 C 
ATOM      3  C   LIG d   1       2.621  82.622 109.888  0.00  0.00     0.038 C 
ATOM      4  C   LIG d   1       1.786  82.051 108.916  0.00  0.00     0.028 C 
ATOM      5  C   LIG d   1       0.991  80.855 109.429  0.00  0.00    -0.047 C 
ATOM      6  C   LIG d   1       0.268  81.255 110.735  0.00  0.00     0.091 C 
ENDROOT
BRANCH   1   7
ATOM      7  O   LIG d   1       0.555  82.560 112.789  0.00  0.00    -0.368 OA
BRANCH   7   8
ATOM      8  C   LIG d   1       0.539  83.996 112.599  0.00  0.00     0.119 C 
BRANCH   8   9
ATOM      9  C   LIG d   1       0.477  84.647 113.994  0.00  0.00     0.028 C 
ATOM     10  C   LIG d   1      -0.787  85.502 114.187  0.00  0.00     0.006 C 
ENDBRANCH   8   9
BRANCH   8  11
ATOM     11  C   LIG d   1      -0.736  84.450 111.883  0.00  0.00     0.028 C 
ATOM     12  C   LIG d   1      -0.483  84.875 110.428  0.00  0.00     0.006 C 
ENDBRANCH   8  11
ENDBRANCH   7   8
ENDBRANCH   1   7
BRANCH   6  13
ATOM     13  N   LIG d   1      -0.466  80.118 111.348  0.00  0.00    -0.311 N 
ATOM     14  C   LIG d   1      -1.662  80.241 111.920  0.00  0.00     0.210 C 
ATOM     15  C   LIG d   1      -2.233  78.947 112.509  0.00  0.00     0.109 C 
ATOM     16  O   LIG d   1      -2.319  81.291 111.967  0.00  0.00    -0.276 OA
ATOM     17  H   LIG d   1      -0.019  79.222 111.327  0.00  0.00     0.149 HD
ENDBRANCH   6  13
BRANCH   5  18
ATOM     18  N   LIG d   1       0.063  80.445 108.357  0.00  0.00     0.381 N 
ATOM     19  H   LIG d   1      -0.278  79.522 108.540  0.00  0.00    -0.090 HD
ATOM     20  H   LIG d   1       0.561  80.430 107.485  0.00  0.00    -0.090 HD
ATOM     21  H   LIG d   1      -0.699  81.084 108.303  0.00  0.00    -0.090 HD
ENDBRANCH   5  18
BRANCH   3  22
ATOM     22  C   LIG d   1       3.794  83.234 109.472  0.00  0.00     0.382 C 
ATOM     23  O   LIG d   1       4.596  82.613 108.732  0.00  0.00    -0.241 OA
ATOM     24  O   LIG d   1       4.081  84.381 109.862  0.00  0.00    -0.241 OA
ENDBRANCH   3  22
TORSDOF 7
ENDMDL
MODEL 5
REMARK VINA RESULT:      -6.3      2.423      3.488
REMARK  7 active torsions:
REMARK  status: ('A' for Active; 'I' for Inactive)
REMARK    1  A    between atoms: C_2  and  C_3 
REMARK    2  A    between atoms: C_3  and  O_6 
REMARK    3  A    between atoms: C_3  and  C_4 
REMARK    4  A    between atoms: C_7  and  O_6 
REMARK    5  A    between atoms: C_9  and  C_10 
REMARK    6  A    between atoms: N_15  and  C_14 
REMARK    7  A    between atoms: N_20  and  C_19 
REMARK       I    between atoms: C_22  and  N_20 
ROOT
ATOM      1  C   LIG d   1       0.376  82.764 111.542  0.00  0.00     0.161 C 
ATOM      2  C   LIG d   1      -0.767  82.486 112.311  0.00  0.00     0.016 C 
ATOM      3  C   LIG d   1      -1.395  81.220 112.340  0.00  0.00     0.038 C 
ATOM      4  C   LIG d   1      -0.832  80.097 111.715  0.00  0.00     0.028 C 
ATOM      5  C   LIG d   1       0.044  80.447 110.517  0.00  0.00    -0.047 C 
ATOM      6  C   LIG d   1       1.069  81.523 110.942  0.00  0.00     0.091 C 
ENDROOT
BRANCH   1   7
ATOM      7  O   LIG d   1       1.313  83.534 112.321  0.00  0.00    -0.368 OA
BRANCH   7   8
ATOM      8  C   LIG d   1       1.519  84.904 111.898  0.00  0.00     0.119 C 
BRANCH   8   9
ATOM      9  C   LIG d   1       0.464  85.220 110.820  0.00  0.00     0.028 C 
ATOM     10  C   LIG d   1       1.096  85.516 109.450  0.00  0.00     0.006 C 
ENDBRANCH   8   9
BRANCH   8  11
ATOM     11  C   LIG d   1       2.873  85.076 111.203  0.00  0.00     0.028 C 
ATOM     12  C   LIG d   1       3.985  84.234 111.849  0.00  0.00     0.006 C 
ENDBRANCH   8  11
ENDBRANCH   7   8
ENDBRANCH   1   7
BRANCH   6  13
ATOM     13  N   LIG d   1       1.911  81.984 109.807  0.00  0.00    -0.311 N 
ATOM     14  C   LIG d   1       3.080  81.430 109.489  0.00  0.00     0.210 C 
ATOM     15  C   LIG d   1       3.796  82.070 108.295  0.00  0.00     0.109 C 
ATOM     16  O   LIG d   1       3.577  80.449 110.062  0.00  0.00    -0.276 OA
ATOM     17  H   LIG d   1       1.569  82.755 109.268  0.00  0.00     0.149 HD
ENDBRANCH   6  13
BRANCH   5  18
ATOM     18  N   LIG d   1       0.676  79.200 110.047  0.00  0.00     0.381 N 
ATOM     19  H   LIG d   1       0.109  78.779 109.338  0.00  0.00    -0.090 HD
ATOM     20  H   LIG d   1       0.744  78.559 110.818  0.00  0.00    -0.090 HD
ATOM     21  H   LIG d   1       1.584  79.393 109.686  0.00  0.00    -0.090 HD
ENDBRANCH   5  18
BRANCH   3  22
ATOM     22  C   LIG d   1      -2.624  81.077 112.967  0.00  0.00     0.382 C 
ATOM     23  O   LIG d   1      -3.306  80.040 112.781  0.00  0.00    -0.241 OA
ATOM     24  O   LIG d   1      -3.078  81.990 113.681  0.00  0.00    -0.241 OA
ENDBRANCH   3  22
TORSDOF 7
ENDMDL
MODEL 6
REMARK VINA RESULT:      -6.2      2.883      5.007
REMARK  7 active torsions:
REMARK  status: ('A' for Active; 'I' for Inactive)
REMARK    1  A    between atoms: C_2  and  C_3 
REMARK    2  A    between atoms: C_3  and  O_6 
REMARK    3  A    between atoms: C_3  and  C_4 
REMARK    4  A    between atoms: C_7  and  O_6 
REMARK    5  A    between atoms: C_9  and  C_10 
REMARK    6  A    between atoms: N_15  and  C_14 
REMARK    7  A    between atoms: N_20  and  C_19 
REMARK       I    between atoms: C_22  and  N_20 
ROOT
ATOM      1  C   LIG d   1       1.531  83.610 111.860  0.00  0.00     0.161 C 
ATOM      2  C   LIG d   1       0.498  82.670 111.713  0.00  0.00     0.016 C 
ATOM      3  C   LIG d   1      -0.721  82.736 112.426  0.00  0.00     0.038 C 
ATOM      4  C   LIG d   1      -1.052  83.838 113.229  0.00  0.00     0.028 C 
ATOM      5  C   LIG d   1       0.164  84.559 113.799  0.00  0.00    -0.047 C 
ATOM      6  C   LIG d   1       1.144  84.879 112.647  0.00  0.00     0.091 C 
ENDROOT
BRANCH   1   7
ATOM      7  O   LIG d   1       2.057  83.964 110.565  0.00  0.00    -0.368 OA
BRANCH   7   8
ATOM      8  C   LIG d   1       1.130  83.875 109.455  0.00  0.00     0.119 C 
BRANCH   8   9
ATOM      9  C   LIG d   1       1.895  83.272 108.261  0.00  0.00     0.028 C 
ATOM     10  C   LIG d   1       3.166  82.522 108.696  0.00  0.00     0.006 C 
ENDBRANCH   8   9
BRANCH   8  11
ATOM     11  C   LIG d   1       0.683  85.264 108.990  0.00  0.00     0.028 C 
ATOM     12  C   LIG d   1      -0.668  85.687 109.590  0.00  0.00     0.006 C 
ENDBRANCH   8  11
ENDBRANCH   7   8
ENDBRANCH   1   7
BRANCH   6  13
ATOM     13  N   LIG d   1       2.400  85.510 113.129  0.00  0.00    -0.311 N 
ATOM     14  C   LIG d   1       2.730  86.775 112.873  0.00  0.00     0.210 C 
ATOM     15  C   LIG d   1       4.079  87.220 113.448  0.00  0.00     0.109 C 
ATOM     16  O   LIG d   1       2.020  87.580 112.252  0.00  0.00    -0.276 OA
ATOM     17  H   LIG d   1       3.020  84.938 113.668  0.00  0.00     0.149 HD
ENDBRANCH   6  13
BRANCH   5  18
ATOM     18  N   LIG d   1      -0.319  85.764 114.499  0.00  0.00     0.381 N 
ATOM     19  H   LIG d   1      -1.221  86.020 114.148  0.00  0.00    -0.090 HD
ATOM     20  H   LIG d   1       0.316  86.521 114.320  0.00  0.00    -0.090 HD
ATOM     21  H   LIG d   1      -0.373  85.590 115.479  0.00  0.00    -0.090 HD
ENDBRANCH   5  18
BRANCH   3  22
ATOM     22  C   LIG d   1      -1.608  81.671 112.372  0.00  0.00     0.382 C 
ATOM     23  O   LIG d   1      -2.760  81.788 112.855  0.00  0.00    -0.241 OA
ATOM     24  O   LIG d   1      -1.255  80.580 111.885  0.00  0.00    -0.241 OA
ENDBRANCH   3  22
TORSDOF 7
ENDMDL
MODEL 7
REMARK VINA RESULT:      -6.2      2.450      4.735
REMARK  7 active torsions:
REMARK  status: ('A' for Active; 'I' for Inactive)
REMARK    1  A    between atoms: C_2  and  C_3 
REMARK    2  A    between atoms: C_3  and  O_6 
REMARK    3  A    between atoms: C_3  and  C_4 
REMARK    4  A    between atoms: C_7  and  O_6 
REMARK    5  A    between atoms: C_9  and  C_10 
REMARK    6  A    between atoms: N_15  and  C_14 
REMARK    7  A    between atoms: N_20  and  C_19 
REMARK       I    between atoms: C_22  and  N_20 
ROOT
ATOM      1  C   LIG d   1       1.805  81.932 112.016  0.00  0.00     0.161 C 
ATOM      2  C   LIG d   1       0.811  80.939 111.993  0.00  0.00     0.016 C 
ATOM      3  C   LIG d   1      -0.574  81.223 112.015  0.00  0.00     0.038 C 
ATOM      4  C   LIG d   1      -1.063  82.534 111.909  0.00  0.00     0.028 C 
ATOM      5  C   LIG d   1      -0.096  83.587 112.439  0.00  0.00    -0.047 C 
ATOM      6  C   LIG d   1       1.289  83.368 111.788  0.00  0.00     0.091 C 
ENDROOT
BRANCH   1   7
ATOM      7  O   LIG d   1       2.837  81.613 111.062  0.00  0.00    -0.368 OA
BRANCH   7   8
ATOM      8  C   LIG d   1       2.417  81.508 109.680  0.00  0.00     0.119 C 
BRANCH   8   9
ATOM      9  C   LIG d   1       2.986  80.190 109.121  0.00  0.00     0.028 C 
ATOM     10  C   LIG d   1       1.931  79.073 109.063  0.00  0.00     0.006 C 
ENDBRANCH   8   9
BRANCH   8  11
ATOM     11  C   LIG d   1       3.040  82.614 108.823  0.00  0.00     0.028 C 
ATOM     12  C   LIG d   1       4.399  83.091 109.360  0.00  0.00     0.006 C 
ENDBRANCH   8  11
ENDBRANCH   7   8
ENDBRANCH   1   7
BRANCH   6  13
ATOM     13  N   LIG d   1       2.317  84.304 112.316  0.00  0.00    -0.311 N 
ATOM     14  C   LIG d   1       2.677  85.424 111.691  0.00  0.00     0.210 C 
ATOM     15  C   LIG d   1       3.769  86.234 112.397  0.00  0.00     0.109 C 
ATOM     16  O   LIG d   1       2.174  85.839 110.637  0.00  0.00    -0.276 OA
ATOM     17  H   LIG d   1       2.754  84.060 113.183  0.00  0.00     0.149 HD
ENDBRANCH   6  13
BRANCH   5  18
ATOM     18  N   LIG d   1      -0.672  84.911 112.141  0.00  0.00     0.381 N 
ATOM     19  H   LIG d   1      -0.398  85.566 112.846  0.00  0.00    -0.090 HD
ATOM     20  H   LIG d   1      -1.675  84.839 112.150  0.00  0.00    -0.090 HD
ATOM     21  H   LIG d   1      -0.363  85.225 111.248  0.00  0.00    -0.090 HD
ENDBRANCH   5  18
BRANCH   3  22
ATOM     22  C   LIG d   1      -1.484  80.191 112.184  0.00  0.00     0.382 C 
ATOM     23  O   LIG d   1      -1.603  79.309 111.301  0.00  0.00    -0.241 OA
ATOM     24  O   LIG d   1      -2.220  80.157 113.189  0.00  0.00    -0.241 OA
ENDBRANCH   3  22
TORSDOF 7
ENDMDL
MODEL 8
REMARK VINA RESULT:      -6.0      2.420      3.974
REMARK  7 active torsions:
REMARK  status: ('A' for Active; 'I' for Inactive)
REMARK    1  A    between atoms: C_2  and  C_3 
REMARK    2  A    between atoms: C_3  and  O_6 
REMARK    3  A    between atoms: C_3  and  C_4 
REMARK    4  A    between atoms: C_7  and  O_6 
REMARK    5  A    between atoms: C_9  and  C_10 
REMARK    6  A    between atoms: N_15  and  C_14 
REMARK    7  A    between atoms: N_20  and  C_19 
REMARK       I    between atoms: C_22  and  N_20 
ROOT
ATOM      1  C   LIG d   1       2.555  82.786 111.552  0.00  0.00     0.161 C 
ATOM      2  C   LIG d   1       2.673  84.068 112.115  0.00  0.00     0.016 C 
ATOM      3  C   LIG d   1       2.335  85.255 111.426  0.00  0.00     0.038 C 
ATOM      4  C   LIG d   1       1.709  85.231 110.171  0.00  0.00     0.028 C 
ATOM      5  C   LIG d   1       2.034  83.984 109.355  0.00  0.00    -0.047 C 
ATOM      6  C   LIG d   1       1.770  82.733 110.224  0.00  0.00     0.091 C 
ENDROOT
BRANCH   1   7
ATOM      7  O   LIG d   1       1.977  81.881 112.513  0.00  0.00    -0.368 OA
BRANCH   7   8
ATOM      8  C   LIG d   1       0.600  82.138 112.882  0.00  0.00     0.119 C 
BRANCH   8   9
ATOM      9  C   LIG d   1       0.574  82.440 114.393  0.00  0.00     0.028 C 
ATOM     10  C   LIG d   1       0.024  83.842 114.702  0.00  0.00     0.006 C 
ENDBRANCH   8   9
BRANCH   8  11
ATOM     11  C   LIG d   1      -0.268  80.889 112.703  0.00  0.00     0.028 C 
ATOM     12  C   LIG d   1      -1.768  81.211 112.624  0.00  0.00     0.006 C 
ENDBRANCH   8  11
ENDBRANCH   7   8
ENDBRANCH   1   7
BRANCH   6  13
ATOM     13  N   LIG d   1       2.143  81.472 109.531  0.00  0.00    -0.311 N 
ATOM     14  C   LIG d   1       1.261  80.533 109.194  0.00  0.00     0.210 C 
ATOM     15  C   LIG d   1       1.860  79.302 108.504  0.00  0.00     0.109 C 
ATOM     16  O   LIG d   1       0.037  80.616 109.370  0.00  0.00    -0.276 OA
ATOM     17  H   LIG d   1       3.113  81.337 109.322  0.00  0.00     0.149 HD
ENDBRANCH   6  13
BRANCH   5  18
ATOM     18  N   LIG d   1       1.210  84.023 108.133  0.00  0.00     0.381 N 
ATOM     19  H   LIG d   1       1.246  83.136 107.671  0.00  0.00    -0.090 HD
ATOM     20  H   LIG d   1       1.584  84.718 107.511  0.00  0.00    -0.090 HD
ATOM     21  H   LIG d   1       0.267  84.247 108.364  0.00  0.00    -0.090 HD
ENDBRANCH   5  18
BRANCH   3  22
ATOM     22  C   LIG d   1       2.659  86.485 111.976  0.00  0.00     0.382 C 
ATOM     23  O   LIG d   1       1.822  87.419 111.962  0.00  0.00    -0.241 OA
ATOM     24  O   LIG d   1       3.795  86.687 112.447  0.00  0.00    -0.241 OA
ENDBRANCH   3  22
TORSDOF 7
ENDMDL
MODEL 9
REMARK VINA RESULT:      -5.9      2.104      3.173
REMARK  7 active torsions:
REMARK  status: ('A' for Active; 'I' for Inactive)
REMARK    1  A    between atoms: C_2  and  C_3 
REMARK    2  A    between atoms: C_3  and  O_6 
REMARK    3  A    between atoms: C_3  and  C_4 
REMARK    4  A    between atoms: C_7  and  O_6 
REMARK    5  A    between atoms: C_9  and  C_10 
REMARK    6  A    between atoms: N_15  and  C_14 
REMARK    7  A    between atoms: N_20  and  C_19 
REMARK       I    between atoms: C_22  and  N_20 
ROOT
ATOM      1  C   LIG d   1       0.298  82.545 110.479  0.00  0.00     0.161 C 
ATOM      2  C   LIG d   1       0.546  83.914 110.287  0.00  0.00     0.016 C 
ATOM      3  C   LIG d   1       0.752  84.824 111.349  0.00  0.00     0.038 C 
ATOM      4  C   LIG d   1       0.876  84.396 112.679  0.00  0.00     0.028 C 
ATOM      5  C   LIG d   1       0.131  83.097 112.968  0.00  0.00    -0.047 C 
ATOM      6  C   LIG d   1       0.539  82.040 111.917  0.00  0.00     0.091 C 
ENDROOT
BRANCH   1   7
ATOM      7  O   LIG d   1       1.071  81.772 109.540  0.00  0.00    -0.368 OA
BRANCH   7   8
ATOM      8  C   LIG d   1       2.457  81.541 109.893  0.00  0.00     0.119 C 
BRANCH   8   9
ATOM      9  C   LIG d   1       3.327  82.315 108.883  0.00  0.00     0.028 C 
ATOM     10  C   LIG d   1       4.193  83.391 109.559  0.00  0.00     0.006 C 
ENDBRANCH   8   9
BRANCH   8  11
ATOM     11  C   LIG d   1       2.840  80.069 109.713  0.00  0.00     0.028 C 
ATOM     12  C   LIG d   1       1.752  79.253 108.998  0.00  0.00     0.006 C 
ENDBRANCH   8  11
ENDBRANCH   7   8
ENDBRANCH   1   7
BRANCH   6  13
ATOM     13  N   LIG d   1      -0.207  80.764 112.076  0.00  0.00    -0.311 N 
ATOM     14  C   LIG d   1      -1.535  80.696 112.155  0.00  0.00     0.210 C 
ATOM     15  C   LIG d   1      -2.101  79.285 112.338  0.00  0.00     0.109 C 
ATOM     16  O   LIG d   1      -2.300  81.668 112.058  0.00  0.00    -0.276 OA
ATOM     17  H   LIG d   1       0.333  79.923 112.132  0.00  0.00     0.149 HD
ENDBRANCH   6  13
BRANCH   5  18
ATOM     18  N   LIG d   1       0.457  82.694 114.349  0.00  0.00     0.381 N 
ATOM     19  H   LIG d   1       1.055  83.378 114.769  0.00  0.00    -0.090 HD
ATOM     20  H   LIG d   1       0.948  81.818 114.325  0.00  0.00    -0.090 HD
ATOM     21  H   LIG d   1      -0.379  82.600 114.884  0.00  0.00    -0.090 HD
ENDBRANCH   5  18
BRANCH   3  22
ATOM     22  C   LIG d   1       0.798  86.185 111.089  0.00  0.00     0.382 C 
ATOM     23  O   LIG d   1      -0.266  86.845 111.011  0.00  0.00    -0.241 OA
ATOM     24  O   LIG d   1       1.888  86.754 110.887  0.00  0.00    -0.241 OA
ENDBRANCH   3  22
TORSDOF 7
ENDMDL
