MODEL 1
REMARK VINA RESULT:      -6.2      0.000      0.000
REMARK  7 active torsions:
REMARK  status: ('A' for Active; 'I' for Inactive)
REMARK    1  A    between atoms: C_2  and  C_3 
REMARK    2  A    between atoms: C_3  and  O_6 
REMARK    3  A    between atoms: C_3  and  C_4 
REMARK    4  A    between atoms: C_7  and  O_6 
REMARK    5  A    between atoms: C_9  and  C_10 
REMARK    6  A    between atoms: N_15  and  C_14 
REMARK    7  A    between atoms: N_20  and  C_19 
REMARK       I    between atoms: C_22  and  N_20 
ROOT
ATOM      1  C   LIG d   1       1.182  82.944 111.476  0.00  0.00     0.161 C 
ATOM      2  C   LIG d   1       2.490  82.739 111.005  0.00  0.00     0.016 C 
ATOM      3  C   LIG d   1       2.829  81.745 110.058  0.00  0.00     0.038 C 
ATOM      4  C   LIG d   1       1.852  80.984 109.400  0.00  0.00     0.028 C 
ATOM      5  C   LIG d   1       0.572  80.809 110.211  0.00  0.00    -0.047 C 
ATOM      6  C   LIG d   1       0.086  82.197 110.687  0.00  0.00     0.091 C 
ENDROOT
BRANCH   1   7
ATOM      7  O   LIG d   1       0.895  84.356 111.519  0.00  0.00    -0.368 OA
BRANCH   7   8
ATOM      8  C   LIG d   1       1.496  85.161 110.475  0.00  0.00     0.119 C 
BRANCH   8   9
ATOM      9  C   LIG d   1       1.990  86.468 111.126  0.00  0.00     0.028 C 
ATOM     10  C   LIG d   1       3.376  86.313 111.775  0.00  0.00     0.006 C 
ENDBRANCH   8   9
BRANCH   8  11
ATOM     11  C   LIG d   1       0.457  85.593 109.436  0.00  0.00     0.028 C 
ATOM     12  C   LIG d   1      -0.908  85.922 110.060  0.00  0.00     0.006 C 
ENDBRANCH   8  11
ENDBRANCH   7   8
ENDBRANCH   1   7
BRANCH   6  13
ATOM     13  N   LIG d   1      -1.114  82.110 111.558  0.00  0.00    -0.311 N 
ATOM     14  C   LIG d   1      -1.091  81.601 112.789  0.00  0.00     0.210 C 
ATOM     15  C   LIG d   1      -2.444  81.587 113.508  0.00  0.00     0.109 C 
ATOM     16  O   LIG d   1      -0.073  81.190 113.365  0.00  0.00    -0.276 OA
ATOM     17  H   LIG d   1      -1.977  82.449 111.181  0.00  0.00     0.149 HD
ENDBRANCH   6  13
BRANCH   5  18
ATOM     18  N   LIG d   1      -0.408  80.116 109.354  0.00  0.00     0.381 N 
ATOM     19  H   LIG d   1      -1.261  80.637 109.325  0.00  0.00    -0.090 HD
ATOM     20  H   LIG d   1      -0.603  79.213 109.748  0.00  0.00    -0.090 HD
ATOM     21  H   LIG d   1      -0.042  80.013 108.433  0.00  0.00    -0.090 HD
ENDBRANCH   5  18
BRANCH   3  22
ATOM     22  C   LIG d   1       4.163  81.478 109.790  0.00  0.00     0.382 C 
ATOM     23  O   LIG d   1       5.032  82.359 109.994  0.00  0.00    -0.241 OA
ATOM     24  O   LIG d   1       4.503  80.382 109.306  0.00  0.00    -0.241 OA
ENDBRANCH   3  22
TORSDOF 7
ENDMDL
MODEL 2
REMARK VINA RESULT:      -6.2      3.631      5.945
REMARK  7 active torsions:
REMARK  status: ('A' for Active; 'I' for Inactive)
REMARK    1  A    between atoms: C_2  and  C_3 
REMARK    2  A    between atoms: C_3  and  O_6 
REMARK    3  A    between atoms: C_3  and  C_4 
REMARK    4  A    between atoms: C_7  and  O_6 
REMARK    5  A    between atoms: C_9  and  C_10 
REMARK    6  A    between atoms: N_15  and  C_14 
REMARK    7  A    between atoms: N_20  and  C_19 
REMARK       I    between atoms: C_22  and  N_20 
ROOT
ATOM      1  C   LIG d   1       2.714  86.239 112.698  0.00  0.00     0.161 C 
ATOM      2  C   LIG d   1       3.535  87.377 112.637  0.00  0.00     0.016 C 
ATOM      3  C   LIG d   1       4.169  87.941 113.768  0.00  0.00     0.038 C 
ATOM      4  C   LIG d   1       4.147  87.311 115.021  0.00  0.00     0.028 C 
ATOM      5  C   LIG d   1       2.917  86.436 115.237  0.00  0.00    -0.047 C 
ATOM      6  C   LIG d   1       2.768  85.474 114.037  0.00  0.00     0.091 C 
ENDROOT
BRANCH   1   7
ATOM      7  O   LIG d   1       3.022  85.355 111.602  0.00  0.00    -0.368 OA
BRANCH   7   8
ATOM      8  C   LIG d   1       2.097  85.373 110.488  0.00  0.00     0.119 C 
BRANCH   8   9
ATOM      9  C   LIG d   1       0.819  86.093 110.960  0.00  0.00     0.028 C 
ATOM     10  C   LIG d   1      -0.400  85.759 110.083  0.00  0.00     0.006 C 
ENDBRANCH   8   9
BRANCH   8  11
ATOM     11  C   LIG d   1       1.649  83.958 110.111  0.00  0.00     0.028 C 
ATOM     12  C   LIG d   1       2.817  82.960 110.049  0.00  0.00     0.006 C 
ENDBRANCH   8  11
ENDBRANCH   7   8
ENDBRANCH   1   7
BRANCH   6  13
ATOM     13  N   LIG d   1       1.542  84.639 114.128  0.00  0.00    -0.311 N 
ATOM     14  C   LIG d   1       1.526  83.329 113.887  0.00  0.00     0.210 C 
ATOM     15  C   LIG d   1       0.153  82.664 114.018  0.00  0.00     0.109 C 
ATOM     16  O   LIG d   1       2.526  82.650 113.609  0.00  0.00    -0.276 OA
ATOM     17  H   LIG d   1       0.691  85.105 114.378  0.00  0.00     0.149 HD
ENDBRANCH   6  13
BRANCH   5  18
ATOM     18  N   LIG d   1       3.091  85.733 116.523  0.00  0.00     0.381 N 
ATOM     19  H   LIG d   1       4.063  85.685 116.754  0.00  0.00    -0.090 HD
ATOM     20  H   LIG d   1       2.742  84.796 116.431  0.00  0.00    -0.090 HD
ATOM     21  H   LIG d   1       2.594  86.211 117.242  0.00  0.00    -0.090 HD
ENDBRANCH   5  18
BRANCH   3  22
ATOM     22  C   LIG d   1       4.802  89.170 113.659  0.00  0.00     0.382 C 
ATOM     23  O   LIG d   1       4.140  90.229 113.774  0.00  0.00    -0.241 OA
ATOM     24  O   LIG d   1       6.020  89.233 113.404  0.00  0.00    -0.241 OA
ENDBRANCH   3  22
TORSDOF 7
ENDMDL
MODEL 3
REMARK VINA RESULT:      -6.1      2.682      5.416
REMARK  7 active torsions:
REMARK  status: ('A' for Active; 'I' for Inactive)
REMARK    1  A    between atoms: C_2  and  C_3 
REMARK    2  A    between atoms: C_3  and  O_6 
REMARK    3  A    between atoms: C_3  and  C_4 
REMARK    4  A    between atoms: C_7  and  O_6 
REMARK    5  A    between atoms: C_9  and  C_10 
REMARK    6  A    between atoms: N_15  and  C_14 
REMARK    7  A    between atoms: N_20  and  C_19 
REMARK       I    between atoms: C_22  and  N_20 
ROOT
ATOM      1  C   LIG d   1       2.041  83.403 112.760  0.00  0.00     0.161 C 
ATOM      2  C   LIG d   1       0.999  82.461 112.742  0.00  0.00     0.016 C 
ATOM      3  C   LIG d   1      -0.368  82.811 112.827  0.00  0.00     0.038 C 
ATOM      4  C   LIG d   1      -0.795  84.147 112.784  0.00  0.00     0.028 C 
ATOM      5  C   LIG d   1       0.242  85.132 113.311  0.00  0.00    -0.047 C 
ATOM      6  C   LIG d   1       1.590  84.870 112.600  0.00  0.00     0.091 C 
ENDROOT
BRANCH   1   7
ATOM      7  O   LIG d   1       3.020  83.068 111.756  0.00  0.00    -0.368 OA
BRANCH   7   8
ATOM      8  C   LIG d   1       2.500  82.573 110.498  0.00  0.00     0.119 C 
BRANCH   8   9
ATOM      9  C   LIG d   1       3.550  81.612 109.909  0.00  0.00     0.028 C 
ATOM     10  C   LIG d   1       4.802  82.350 109.402  0.00  0.00     0.006 C 
ENDBRANCH   8   9
BRANCH   8  11
ATOM     11  C   LIG d   1       2.360  83.701 109.471  0.00  0.00     0.028 C 
ATOM     12  C   LIG d   1       0.909  84.181 109.307  0.00  0.00     0.006 C 
ENDBRANCH   8  11
ENDBRANCH   7   8
ENDBRANCH   1   7
BRANCH   6  13
ATOM     13  N   LIG d   1       2.681  85.735 113.118  0.00  0.00    -0.311 N 
ATOM     14  C   LIG d   1       3.001  86.912 112.582  0.00  0.00     0.210 C 
ATOM     15  C   LIG d   1       4.171  87.634 113.258  0.00  0.00     0.109 C 
ATOM     16  O   LIG d   1       2.406  87.441 111.632  0.00  0.00    -0.276 OA
ATOM     17  H   LIG d   1       3.196  85.397 113.908  0.00  0.00     0.149 HD
ENDBRANCH   6  13
BRANCH   5  18
ATOM     18  N   LIG d   1      -0.278  86.493 113.081  0.00  0.00     0.381 N 
ATOM     19  H   LIG d   1      -0.675  86.851 113.926  0.00  0.00    -0.090 HD
ATOM     20  H   LIG d   1      -1.002  86.451 112.385  0.00  0.00    -0.090 HD
ATOM     21  H   LIG d   1       0.456  87.091 112.771  0.00  0.00    -0.090 HD
ENDBRANCH   5  18
BRANCH   3  22
ATOM     22  C   LIG d   1      -1.322  81.819 112.997  0.00  0.00     0.382 C 
ATOM     23  O   LIG d   1      -2.533  82.073 112.791  0.00  0.00    -0.241 OA
ATOM     24  O   LIG d   1      -0.991  80.687 113.395  0.00  0.00    -0.241 OA
ENDBRANCH   3  22
TORSDOF 7
ENDMDL
MODEL 4
REMARK VINA RESULT:      -6.1      2.906      5.012
REMARK  7 active torsions:
REMARK  status: ('A' for Active; 'I' for Inactive)
REMARK    1  A    between atoms: C_2  and  C_3 
REMARK    2  A    between atoms: C_3  and  O_6 
REMARK    3  A    between atoms: C_3  and  C_4 
REMARK    4  A    between atoms: C_7  and  O_6 
REMARK    5  A    between atoms: C_9  and  C_10 
REMARK    6  A    between atoms: N_15  and  C_14 
REMARK    7  A    between atoms: N_20  and  C_19 
REMARK       I    between atoms: C_22  and  N_20 
ROOT
ATOM      1  C   LIG d   1       2.869  83.997 112.290  0.00  0.00     0.161 C 
ATOM      2  C   LIG d   1       3.263  85.245 112.798  0.00  0.00     0.016 C 
ATOM      3  C   LIG d   1       2.844  86.478 112.246  0.00  0.00     0.038 C 
ATOM      4  C   LIG d   1       1.875  86.546 111.234  0.00  0.00     0.028 C 
ATOM      5  C   LIG d   1       1.831  85.302 110.353  0.00  0.00    -0.047 C 
ATOM      6  C   LIG d   1       1.724  84.052 111.256  0.00  0.00     0.091 C 
ENDROOT
BRANCH   1   7
ATOM      7  O   LIG d   1       2.522  83.114 113.375  0.00  0.00    -0.368 OA
BRANCH   7   8
ATOM      8  C   LIG d   1       1.599  83.645 114.358  0.00  0.00     0.119 C 
BRANCH   8   9
ATOM      9  C   LIG d   1       2.243  83.459 115.745  0.00  0.00     0.028 C 
ATOM     10  C   LIG d   1       3.198  82.255 115.792  0.00  0.00     0.006 C 
ENDBRANCH   8   9
BRANCH   8  11
ATOM     11  C   LIG d   1       0.302  82.833 114.401  0.00  0.00     0.028 C 
ATOM     12  C   LIG d   1      -0.862  83.528 113.676  0.00  0.00     0.006 C 
ENDBRANCH   8  11
ENDBRANCH   7   8
ENDBRANCH   1   7
BRANCH   6  13
ATOM     13  N   LIG d   1       1.760  82.786 110.478  0.00  0.00    -0.311 N 
ATOM     14  C   LIG d   1       0.666  82.140 110.078  0.00  0.00     0.210 C 
ATOM     15  C   LIG d   1       0.927  80.843 109.305  0.00  0.00     0.109 C 
ATOM     16  O   LIG d   1      -0.495  82.534 110.263  0.00  0.00    -0.276 OA
ATOM     17  H   LIG d   1       2.662  82.412 110.257  0.00  0.00     0.149 HD
ENDBRANCH   6  13
BRANCH   5  18
ATOM     18  N   LIG d   1       0.689  85.449 109.432  0.00  0.00     0.381 N 
ATOM     19  H   LIG d   1       0.771  84.791 108.683  0.00  0.00    -0.090 HD
ATOM     20  H   LIG d   1       0.703  86.375 109.041  0.00  0.00    -0.090 HD
ATOM     21  H   LIG d   1      -0.166  85.301 109.921  0.00  0.00    -0.090 HD
ENDBRANCH   5  18
BRANCH   3  22
ATOM     22  C   LIG d   1       3.427  87.659 112.681  0.00  0.00     0.382 C 
ATOM     23  O   LIG d   1       2.711  88.662 112.917  0.00  0.00    -0.241 OA
ATOM     24  O   LIG d   1       4.664  87.747 112.798  0.00  0.00    -0.241 OA
ENDBRANCH   3  22
TORSDOF 7
ENDMDL
MODEL 5
REMARK VINA RESULT:      -6.1      2.331      4.654
REMARK  7 active torsions:
REMARK  status: ('A' for Active; 'I' for Inactive)
REMARK    1  A    between atoms: C_2  and  C_3 
REMARK    2  A    between atoms: C_3  and  O_6 
REMARK    3  A    between atoms: C_3  and  C_4 
REMARK    4  A    between atoms: C_7  and  O_6 
REMARK    5  A    between atoms: C_9  and  C_10 
REMARK    6  A    between atoms: N_15  and  C_14 
REMARK    7  A    between atoms: N_20  and  C_19 
REMARK       I    between atoms: C_22  and  N_20 
ROOT
ATOM      1  C   LIG d   1      -0.233  82.538 110.910  0.00  0.00     0.161 C 
ATOM      2  C   LIG d   1      -0.311  83.923 111.133  0.00  0.00     0.016 C 
ATOM      3  C   LIG d   1      -0.248  84.509 112.418  0.00  0.00     0.038 C 
ATOM      4  C   LIG d   1       0.052  83.756 113.563  0.00  0.00     0.028 C 
ATOM      5  C   LIG d   1      -0.363  82.292 113.450  0.00  0.00    -0.047 C 
ATOM      6  C   LIG d   1       0.205  81.710 112.136  0.00  0.00     0.091 C 
ENDROOT
BRANCH   1   7
ATOM      7  O   LIG d   1       0.634  82.272 109.790  0.00  0.00    -0.368 OA
BRANCH   7   8
ATOM      8  C   LIG d   1       2.046  82.152 110.090  0.00  0.00     0.119 C 
BRANCH   8   9
ATOM      9  C   LIG d   1       2.755  83.379 109.484  0.00  0.00     0.028 C 
ATOM     10  C   LIG d   1       3.299  84.333 110.560  0.00  0.00     0.006 C 
ENDBRANCH   8   9
BRANCH   8  11
ATOM     11  C   LIG d   1       2.664  80.939 109.389  0.00  0.00     0.028 C 
ATOM     12  C   LIG d   1       4.200  80.986 109.360  0.00  0.00     0.006 C 
ENDBRANCH   8  11
ENDBRANCH   7   8
ENDBRANCH   1   7
BRANCH   6  13
ATOM     13  N   LIG d   1      -0.224  80.306 111.906  0.00  0.00    -0.311 N 
ATOM     14  C   LIG d   1      -1.498  79.941 111.776  0.00  0.00     0.210 C 
ATOM     15  C   LIG d   1      -1.723  78.440 111.565  0.00  0.00     0.109 C 
ATOM     16  O   LIG d   1      -2.462  80.721 111.782  0.00  0.00    -0.276 OA
ATOM     17  H   LIG d   1       0.495  79.611 111.856  0.00  0.00     0.149 HD
ENDBRANCH   6  13
BRANCH   5  18
ATOM     18  N   LIG d   1       0.131  81.596 114.653  0.00  0.00     0.381 N 
ATOM     19  H   LIG d   1      -0.487  80.845 114.887  0.00  0.00    -0.090 HD
ATOM     20  H   LIG d   1       0.146  82.243 115.421  0.00  0.00    -0.090 HD
ATOM     21  H   LIG d   1       1.048  81.242 114.489  0.00  0.00    -0.090 HD
ENDBRANCH   5  18
BRANCH   3  22
ATOM     22  C   LIG d   1      -0.525  85.859 112.572  0.00  0.00     0.382 C 
ATOM     23  O   LIG d   1      -0.033  86.494 113.536  0.00  0.00    -0.241 OA
ATOM     24  O   LIG d   1      -1.296  86.440 111.784  0.00  0.00    -0.241 OA
ENDBRANCH   3  22
TORSDOF 7
ENDMDL
MODEL 6
REMARK VINA RESULT:      -6.0      1.936      4.757
REMARK  7 active torsions:
REMARK  status: ('A' for Active; 'I' for Inactive)
REMARK    1  A    between atoms: C_2  and  C_3 
REMARK    2  A    between atoms: C_3  and  O_6 
REMARK    3  A    between atoms: C_3  and  C_4 
REMARK    4  A    between atoms: C_7  and  O_6 
REMARK    5  A    between atoms: C_9  and  C_10 
REMARK    6  A    between atoms: N_15  and  C_14 
REMARK    7  A    between atoms: N_20  and  C_19 
REMARK       I    between atoms: C_22  and  N_20 
ROOT
ATOM      1  C   LIG d   1       0.486  82.796 112.011  0.00  0.00     0.161 C 
ATOM      2  C   LIG d   1      -0.768  82.370 112.480  0.00  0.00     0.016 C 
ATOM      3  C   LIG d   1      -1.385  81.166 112.068  0.00  0.00     0.038 C 
ATOM      4  C   LIG d   1      -0.717  80.227 111.268  0.00  0.00     0.028 C 
ATOM      5  C   LIG d   1       0.346  80.845 110.366  0.00  0.00    -0.047 C 
ATOM      6  C   LIG d   1       1.278  81.731 111.224  0.00  0.00     0.091 C 
ENDROOT
BRANCH   1   7
ATOM      7  O   LIG d   1       1.274  83.296 113.110  0.00  0.00    -0.368 OA
BRANCH   7   8
ATOM      8  C   LIG d   1       1.542  84.720 113.105  0.00  0.00     0.119 C 
BRANCH   8   9
ATOM      9  C   LIG d   1       0.728  85.340 111.953  0.00  0.00     0.028 C 
ATOM     10  C   LIG d   1      -0.553  86.034 112.447  0.00  0.00     0.006 C 
ENDBRANCH   8   9
BRANCH   8  11
ATOM     11  C   LIG d   1       3.008  85.010 112.768  0.00  0.00     0.028 C 
ATOM     12  C   LIG d   1       3.169  85.893 111.521  0.00  0.00     0.006 C 
ENDBRANCH   8  11
ENDBRANCH   7   8
ENDBRANCH   1   7
BRANCH   6  13
ATOM     13  N   LIG d   1       2.296  82.440 110.407  0.00  0.00    -0.311 N 
ATOM     14  C   LIG d   1       3.507  81.946 110.152  0.00  0.00     0.210 C 
ATOM     15  C   LIG d   1       4.409  82.849 109.306  0.00  0.00     0.109 C 
ATOM     16  O   LIG d   1       3.908  80.832 110.521  0.00  0.00    -0.276 OA
ATOM     17  H   LIG d   1       2.043  83.338 110.041  0.00  0.00     0.149 HD
ENDBRANCH   6  13
BRANCH   5  18
ATOM     18  N   LIG d   1       1.055  79.742 109.692  0.00  0.00     0.381 N 
ATOM     19  H   LIG d   1       0.989  78.909 110.243  0.00  0.00    -0.090 HD
ATOM     20  H   LIG d   1       2.026  79.985 109.604  0.00  0.00    -0.090 HD
ATOM     21  H   LIG d   1       0.662  79.584 108.790  0.00  0.00    -0.090 HD
ENDBRANCH   5  18
BRANCH   3  22
ATOM     22  C   LIG d   1      -2.700  80.911 112.424  0.00  0.00     0.382 C 
ATOM     23  O   LIG d   1      -3.461  81.860 112.734  0.00  0.00    -0.241 OA
ATOM     24  O   LIG d   1      -3.124  79.741 112.483  0.00  0.00    -0.241 OA
ENDBRANCH   3  22
TORSDOF 7
ENDMDL
MODEL 7
REMARK VINA RESULT:      -6.0      2.585      4.906
REMARK  7 active torsions:
REMARK  status: ('A' for Active; 'I' for Inactive)
REMARK    1  A    between atoms: C_2  and  C_3 
REMARK    2  A    between atoms: C_3  and  O_6 
REMARK    3  A    between atoms: C_3  and  C_4 
REMARK    4  A    between atoms: C_7  and  O_6 
REMARK    5  A    between atoms: C_9  and  C_10 
REMARK    6  A    between atoms: N_15  and  C_14 
REMARK    7  A    between atoms: N_20  and  C_19 
REMARK       I    between atoms: C_22  and  N_20 
ROOT
ATOM      1  C   LIG d   1      -0.145  81.286 111.285  0.00  0.00     0.161 C 
ATOM      2  C   LIG d   1      -0.795  80.054 111.107  0.00  0.00     0.016 C 
ATOM      3  C   LIG d   1      -1.762  79.546 112.004  0.00  0.00     0.038 C 
ATOM      4  C   LIG d   1      -2.259  80.312 113.070  0.00  0.00     0.028 C 
ATOM      5  C   LIG d   1      -1.269  81.355 113.579  0.00  0.00    -0.047 C 
ATOM      6  C   LIG d   1      -0.755  82.185 112.381  0.00  0.00     0.091 C 
ENDROOT
BRANCH   1   7
ATOM      7  O   LIG d   1      -0.087  81.994 110.031  0.00  0.00    -0.368 OA
BRANCH   7   8
ATOM      8  C   LIG d   1       1.230  82.157 109.452  0.00  0.00     0.119 C 
BRANCH   8   9
ATOM      9  C   LIG d   1       2.213  81.321 110.294  0.00  0.00     0.028 C 
ATOM     10  C   LIG d   1       3.471  80.923 109.504  0.00  0.00     0.006 C 
ENDBRANCH   8   9
BRANCH   8  11
ATOM     11  C   LIG d   1       1.719  83.604 109.575  0.00  0.00     0.028 C 
ATOM     12  C   LIG d   1       0.586  84.630 109.417  0.00  0.00     0.006 C 
ENDBRANCH   8  11
ENDBRANCH   7   8
ENDBRANCH   1   7
BRANCH   6  13
ATOM     13  N   LIG d   1       0.282  83.173 112.780  0.00  0.00    -0.311 N 
ATOM     14  C   LIG d   1       0.006  84.436 113.101  0.00  0.00     0.210 C 
ATOM     15  C   LIG d   1       1.224  85.292 113.463  0.00  0.00     0.109 C 
ATOM     16  O   LIG d   1      -1.135  84.920 113.151  0.00  0.00    -0.276 OA
ATOM     17  H   LIG d   1       1.231  82.856 112.797  0.00  0.00     0.149 HD
ENDBRANCH   6  13
BRANCH   5  18
ATOM     18  N   LIG d   1      -1.964  82.171 114.593  0.00  0.00     0.381 N 
ATOM     19  H   LIG d   1      -1.898  83.139 114.351  0.00  0.00    -0.090 HD
ATOM     20  H   LIG d   1      -1.515  82.036 115.482  0.00  0.00    -0.090 HD
ATOM     21  H   LIG d   1      -2.921  81.900 114.651  0.00  0.00    -0.090 HD
ENDBRANCH   5  18
BRANCH   3  22
ATOM     22  C   LIG d   1      -2.214  78.243 111.864  0.00  0.00     0.382 C 
ATOM     23  O   LIG d   1      -1.740  77.334 112.587  0.00  0.00    -0.241 OA
ATOM     24  O   LIG d   1      -3.057  77.957 110.992  0.00  0.00    -0.241 OA
ENDBRANCH   3  22
TORSDOF 7
ENDMDL
MODEL 8
REMARK VINA RESULT:      -6.0      8.327     12.130
REMARK  7 active torsions:
REMARK  status: ('A' for Active; 'I' for Inactive)
REMARK    1  A    between atoms: C_2  and  C_3 
REMARK    2  A    between atoms: C_3  and  O_6 
REMARK    3  A    between atoms: C_3  and  C_4 
REMARK    4  A    between atoms: C_7  and  O_6 
REMARK    5  A    between atoms: C_9  and  C_10 
REMARK    6  A    between atoms: N_15  and  C_14 
REMARK    7  A    between atoms: N_20  and  C_19 
REMARK       I    between atoms: C_22  and  N_20 
ROOT
ATOM      1  C   LIG d   1      -6.456  79.596 117.634  0.00  0.00     0.161 C 
ATOM      2  C   LIG d   1      -7.787  79.206 117.861  0.00  0.00     0.016 C 
ATOM      3  C   LIG d   1      -8.809  80.109 118.233  0.00  0.00     0.038 C 
ATOM      4  C   LIG d   1      -8.601  81.496 118.258  0.00  0.00     0.028 C 
ATOM      5  C   LIG d   1      -7.152  81.886 118.528  0.00  0.00    -0.047 C 
ATOM      6  C   LIG d   1      -6.235  81.120 117.547  0.00  0.00     0.091 C 
ENDROOT
BRANCH   1   7
ATOM      7  O   LIG d   1      -5.953  78.948 116.449  0.00  0.00    -0.368 OA
BRANCH   7   8
ATOM      8  C   LIG d   1      -5.426  77.610 116.628  0.00  0.00     0.119 C 
BRANCH   8   9
ATOM      9  C   LIG d   1      -3.976  77.610 116.108  0.00  0.00     0.028 C 
ATOM     10  C   LIG d   1      -2.995  78.250 117.104  0.00  0.00     0.006 C 
ENDBRANCH   8   9
BRANCH   8  11
ATOM     11  C   LIG d   1      -6.171  76.596 115.754  0.00  0.00     0.028 C 
ATOM     12  C   LIG d   1      -7.271  75.845 116.520  0.00  0.00     0.006 C 
ENDBRANCH   8  11
ENDBRANCH   7   8
ENDBRANCH   1   7
BRANCH   6  13
ATOM     13  N   LIG d   1      -4.793  81.380 117.799  0.00  0.00    -0.311 N 
ATOM     14  C   LIG d   1      -3.977  81.920 116.895  0.00  0.00     0.210 C 
ATOM     15  C   LIG d   1      -2.524  82.083 117.352  0.00  0.00     0.109 C 
ATOM     16  O   LIG d   1      -4.325  82.309 115.770  0.00  0.00    -0.276 OA
ATOM     17  H   LIG d   1      -4.433  81.124 118.697  0.00  0.00     0.149 HD
ENDBRANCH   6  13
BRANCH   5  18
ATOM     18  N   LIG d   1      -7.051  83.351 118.389  0.00  0.00     0.381 N 
ATOM     19  H   LIG d   1      -7.856  83.786 118.795  0.00  0.00    -0.090 HD
ATOM     20  H   LIG d   1      -7.026  83.584 117.412  0.00  0.00    -0.090 HD
ATOM     21  H   LIG d   1      -6.225  83.681 118.838  0.00  0.00    -0.090 HD
ENDBRANCH   5  18
BRANCH   3  22
ATOM     22  C   LIG d   1     -10.047  79.622 118.626  0.00  0.00     0.382 C 
ATOM     23  O   LIG d   1     -10.640  78.773 117.917  0.00  0.00    -0.241 OA
ATOM     24  O   LIG d   1     -10.598  80.053 119.656  0.00  0.00    -0.241 OA
ENDBRANCH   3  22
TORSDOF 7
ENDMDL
MODEL 9
REMARK VINA RESULT:      -5.9      1.838      2.119
REMARK  7 active torsions:
REMARK  status: ('A' for Active; 'I' for Inactive)
REMARK    1  A    between atoms: C_2  and  C_3 
REMARK    2  A    between atoms: C_3  and  O_6 
REMARK    3  A    between atoms: C_3  and  C_4 
REMARK    4  A    between atoms: C_7  and  O_6 
REMARK    5  A    between atoms: C_9  and  C_10 
REMARK    6  A    between atoms: N_15  and  C_14 
REMARK    7  A    between atoms: N_20  and  C_19 
REMARK       I    between atoms: C_22  and  N_20 
ROOT
ATOM      1  C   LIG d   1       0.759  82.780 113.128  0.00  0.00     0.161 C 
ATOM      2  C   LIG d   1       1.829  82.977 112.239  0.00  0.00     0.016 C 
ATOM      3  C   LIG d   1       1.961  82.283 111.014  0.00  0.00     0.038 C 
ATOM      4  C   LIG d   1       0.946  81.448 110.522  0.00  0.00     0.028 C 
ATOM      5  C   LIG d   1       0.083  80.833 111.618  0.00  0.00    -0.047 C 
ATOM      6  C   LIG d   1      -0.413  81.956 112.557  0.00  0.00     0.091 C 
ENDROOT
BRANCH   1   7
ATOM      7  O   LIG d   1       0.288  84.052 113.614  0.00  0.00    -0.368 OA
BRANCH   7   8
ATOM      8  C   LIG d   1       0.656  85.212 112.828  0.00  0.00     0.119 C 
BRANCH   8   9
ATOM      9  C   LIG d   1       1.081  86.321 113.809  0.00  0.00     0.028 C 
ATOM     10  C   LIG d   1       2.565  86.220 114.203  0.00  0.00     0.006 C 
ENDBRANCH   8   9
BRANCH   8  11
ATOM     11  C   LIG d   1      -0.550  85.779 112.073  0.00  0.00     0.028 C 
ATOM     12  C   LIG d   1      -0.516  85.460 110.570  0.00  0.00     0.006 C 
ENDBRANCH   8  11
ENDBRANCH   7   8
ENDBRANCH   1   7
BRANCH   6  13
ATOM     13  N   LIG d   1      -1.196  81.430 113.706  0.00  0.00    -0.311 N 
ATOM     14  C   LIG d   1      -2.517  81.561 113.815  0.00  0.00     0.210 C 
ATOM     15  C   LIG d   1      -3.123  80.964 115.088  0.00  0.00     0.109 C 
ATOM     16  O   LIG d   1      -3.248  82.086 112.962  0.00  0.00    -0.276 OA
ATOM     17  H   LIG d   1      -0.685  80.962 114.429  0.00  0.00     0.149 HD
ENDBRANCH   6  13
BRANCH   5  18
ATOM     18  N   LIG d   1      -1.015  80.099 110.962  0.00  0.00     0.381 N 
ATOM     19  H   LIG d   1      -1.156  80.456 110.038  0.00  0.00    -0.090 HD
ATOM     20  H   LIG d   1      -1.860  80.242 111.487  0.00  0.00    -0.090 HD
ATOM     21  H   LIG d   1      -0.801  79.127 110.922  0.00  0.00    -0.090 HD
ENDBRANCH   5  18
BRANCH   3  22
ATOM     22  C   LIG d   1       3.136  82.390 110.287  0.00  0.00     0.382 C 
ATOM     23  O   LIG d   1       3.983  81.465 110.324  0.00  0.00    -0.241 OA
ATOM     24  O   LIG d   1       3.381  83.419 109.629  0.00  0.00    -0.241 OA
ENDBRANCH   3  22
TORSDOF 7
ENDMDL
