MODEL 1
REMARK VINA RESULT:      -6.8      0.000      0.000
REMARK  7 active torsions:
REMARK  status: ('A' for Active; 'I' for Inactive)
REMARK    1  A    between atoms: C_2  and  C_3 
REMARK    2  A    between atoms: C_3  and  O_6 
REMARK    3  A    between atoms: C_3  and  C_4 
REMARK    4  A    between atoms: C_7  and  O_6 
REMARK    5  A    between atoms: C_9  and  C_10 
REMARK    6  A    between atoms: N_15  and  C_14 
REMARK    7  A    between atoms: N_20  and  C_19 
REMARK       I    between atoms: C_22  and  N_20 
ROOT
ATOM      1  C   LIG d   1       0.053  82.342 111.052  0.00  0.00     0.161 C 
ATOM      2  C   LIG d   1      -1.058  81.944 111.813  0.00  0.00     0.016 C 
ATOM      3  C   LIG d   1      -1.540  80.615 111.850  0.00  0.00     0.038 C 
ATOM      4  C   LIG d   1      -0.847  79.558 111.242  0.00  0.00     0.028 C 
ATOM      5  C   LIG d   1      -0.005  79.993 110.048  0.00  0.00    -0.047 C 
ATOM      6  C   LIG d   1       0.888  81.182 110.470  0.00  0.00     0.091 C 
ENDROOT
BRANCH   1   7
ATOM      7  O   LIG d   1       0.889  83.221 111.830  0.00  0.00    -0.368 OA
BRANCH   7   8
ATOM      8  C   LIG d   1       0.709  84.640 111.602  0.00  0.00     0.119 C 
BRANCH   8   9
ATOM      9  C   LIG d   1       0.297  84.824 110.129  0.00  0.00     0.028 C 
ATOM     10  C   LIG d   1      -0.821  85.867 109.958  0.00  0.00     0.006 C 
ENDBRANCH   8   9
BRANCH   8  11
ATOM     11  C   LIG d   1       2.030  85.400 111.751  0.00  0.00     0.028 C 
ATOM     12  C   LIG d   1       2.830  85.468 110.441  0.00  0.00     0.006 C 
ENDBRANCH   8  11
ENDBRANCH   7   8
ENDBRANCH   1   7
BRANCH   6  13
ATOM     13  N   LIG d   1       1.683  81.724 109.338  0.00  0.00    -0.311 N 
ATOM     14  C   LIG d   1       2.993  81.953 109.405  0.00  0.00     0.210 C 
ATOM     15  C   LIG d   1       3.615  82.533 108.131  0.00  0.00     0.109 C 
ATOM     16  O   LIG d   1       3.705  81.701 110.389  0.00  0.00    -0.276 OA
ATOM     17  H   LIG d   1       1.190  81.928 108.490  0.00  0.00     0.149 HD
ENDBRANCH   6  13
BRANCH   5  18
ATOM     18  N   LIG d   1       0.768  78.821 109.597  0.00  0.00     0.381 N 
ATOM     19  H   LIG d   1       1.668  79.114 109.271  0.00  0.00    -0.090 HD
ATOM     20  H   LIG d   1       0.282  78.385 108.833  0.00  0.00    -0.090 HD
ATOM     21  H   LIG d   1       0.874  78.173 110.347  0.00  0.00    -0.090 HD
ENDBRANCH   5  18
BRANCH   3  22
ATOM     22  C   LIG d   1      -2.751  80.340 112.469  0.00  0.00     0.382 C 
ATOM     23  O   LIG d   1      -3.503  81.281 112.821  0.00  0.00    -0.241 OA
ATOM     24  O   LIG d   1      -3.080  79.165 112.718  0.00  0.00    -0.241 OA
ENDBRANCH   3  22
TORSDOF 7
ENDMDL
MODEL 2
REMARK VINA RESULT:      -6.8      1.490      4.959
REMARK  7 active torsions:
REMARK  status: ('A' for Active; 'I' for Inactive)
REMARK    1  A    between atoms: C_2  and  C_3 
REMARK    2  A    between atoms: C_3  and  O_6 
REMARK    3  A    between atoms: C_3  and  C_4 
REMARK    4  A    between atoms: C_7  and  O_6 
REMARK    5  A    between atoms: C_9  and  C_10 
REMARK    6  A    between atoms: N_15  and  C_14 
REMARK    7  A    between atoms: N_20  and  C_19 
REMARK       I    between atoms: C_22  and  N_20 
ROOT
ATOM      1  C   LIG d   1       1.398  81.510 111.536  0.00  0.00     0.161 C 
ATOM      2  C   LIG d   1       2.446  82.043 110.767  0.00  0.00     0.016 C 
ATOM      3  C   LIG d   1       2.576  81.830 109.375  0.00  0.00     0.038 C 
ATOM      4  C   LIG d   1       1.576  81.191 108.626  0.00  0.00     0.028 C 
ATOM      5  C   LIG d   1       0.750  80.201 109.439  0.00  0.00    -0.047 C 
ATOM      6  C   LIG d   1       0.239  80.904 110.717  0.00  0.00     0.091 C 
ENDROOT
BRANCH   1   7
ATOM      7  O   LIG d   1       0.900  82.513 112.443  0.00  0.00    -0.368 OA
BRANCH   7   8
ATOM      8  C   LIG d   1       0.970  83.884 111.980  0.00  0.00     0.119 C 
BRANCH   8   9
ATOM      9  C   LIG d   1       1.508  84.739 113.144  0.00  0.00     0.028 C 
ATOM     10  C   LIG d   1       2.800  85.487 112.775  0.00  0.00     0.006 C 
ENDBRANCH   8   9
BRANCH   8  11
ATOM     11  C   LIG d   1      -0.423  84.442 111.677  0.00  0.00     0.028 C 
ATOM     12  C   LIG d   1      -0.534  85.030 110.261  0.00  0.00     0.006 C 
ENDBRANCH   8  11
ENDBRANCH   7   8
ENDBRANCH   1   7
BRANCH   6  13
ATOM     13  N   LIG d   1      -0.509  79.982 111.612  0.00  0.00    -0.311 N 
ATOM     14  C   LIG d   1      -1.646  80.313 112.221  0.00  0.00     0.210 C 
ATOM     15  C   LIG d   1      -2.242  79.221 113.115  0.00  0.00     0.109 C 
ATOM     16  O   LIG d   1      -2.234  81.396 112.081  0.00  0.00    -0.276 OA
ATOM     17  H   LIG d   1      -0.119  79.071 111.756  0.00  0.00     0.149 HD
ENDBRANCH   6  13
BRANCH   5  18
ATOM     18  N   LIG d   1      -0.339  79.712 108.573  0.00  0.00     0.381 N 
ATOM     19  H   LIG d   1      -1.165  80.256 108.728  0.00  0.00    -0.090 HD
ATOM     20  H   LIG d   1      -0.541  78.757 108.812  0.00  0.00    -0.090 HD
ATOM     21  H   LIG d   1      -0.068  79.772 107.617  0.00  0.00    -0.090 HD
ENDBRANCH   5  18
BRANCH   3  22
ATOM     22  C   LIG d   1       3.735  82.225 108.725  0.00  0.00     0.382 C 
ATOM     23  O   LIG d   1       4.784  82.430 109.382  0.00  0.00    -0.241 OA
ATOM     24  O   LIG d   1       3.734  82.421 107.494  0.00  0.00    -0.241 OA
ENDBRANCH   3  22
TORSDOF 7
ENDMDL
MODEL 3
REMARK VINA RESULT:      -6.5      2.438      4.540
REMARK  7 active torsions:
REMARK  status: ('A' for Active; 'I' for Inactive)
REMARK    1  A    between atoms: C_2  and  C_3 
REMARK    2  A    between atoms: C_3  and  O_6 
REMARK    3  A    between atoms: C_3  and  C_4 
REMARK    4  A    between atoms: C_7  and  O_6 
REMARK    5  A    between atoms: C_9  and  C_10 
REMARK    6  A    between atoms: N_15  and  C_14 
REMARK    7  A    between atoms: N_20  and  C_19 
REMARK       I    between atoms: C_22  and  N_20 
ROOT
ATOM      1  C   LIG d   1       2.210  83.145 111.555  0.00  0.00     0.161 C 
ATOM      2  C   LIG d   1       1.316  82.064 111.487  0.00  0.00     0.016 C 
ATOM      3  C   LIG d   1      -0.081  82.217 111.328  0.00  0.00     0.038 C 
ATOM      4  C   LIG d   1      -0.665  83.467 111.073  0.00  0.00     0.028 C 
ATOM      5  C   LIG d   1       0.136  84.636 111.635  0.00  0.00    -0.047 C 
ATOM      6  C   LIG d   1       1.604  84.510 111.167  0.00  0.00     0.091 C 
ENDROOT
BRANCH   1   7
ATOM      7  O   LIG d   1       3.374  82.867 110.752  0.00  0.00    -0.368 OA
BRANCH   7   8
ATOM      8  C   LIG d   1       3.139  82.151 109.515  0.00  0.00     0.119 C 
BRANCH   8   9
ATOM      9  C   LIG d   1       4.230  81.070 109.392  0.00  0.00     0.028 C 
ATOM     10  C   LIG d   1       3.729  79.679 109.817  0.00  0.00     0.006 C 
ENDBRANCH   8   9
BRANCH   8  11
ATOM     11  C   LIG d   1       3.332  83.062 108.299  0.00  0.00     0.028 C 
ATOM     12  C   LIG d   1       2.117  83.064 107.357  0.00  0.00     0.006 C 
ENDBRANCH   8  11
ENDBRANCH   7   8
ENDBRANCH   1   7
BRANCH   6  13
ATOM     13  N   LIG d   1       2.475  85.569 111.741  0.00  0.00    -0.311 N 
ATOM     14  C   LIG d   1       2.739  86.717 111.121  0.00  0.00     0.210 C 
ATOM     15  C   LIG d   1       3.677  87.661 111.880  0.00  0.00     0.109 C 
ATOM     16  O   LIG d   1       2.260  87.058 110.029  0.00  0.00    -0.276 OA
ATOM     17  H   LIG d   1       2.881  85.388 112.638  0.00  0.00     0.149 HD
ENDBRANCH   6  13
BRANCH   5  18
ATOM     18  N   LIG d   1      -0.512  85.880 111.178  0.00  0.00     0.381 N 
ATOM     19  H   LIG d   1      -0.019  86.672 111.542  0.00  0.00    -0.090 HD
ATOM     20  H   LIG d   1      -1.452  85.905 111.530  0.00  0.00    -0.090 HD
ATOM     21  H   LIG d   1      -0.520  85.915 110.183  0.00  0.00    -0.090 HD
ENDBRANCH   5  18
BRANCH   3  22
ATOM     22  C   LIG d   1      -0.913  81.117 111.464  0.00  0.00     0.382 C 
ATOM     23  O   LIG d   1      -0.596  80.022 110.939  0.00  0.00    -0.241 OA
ATOM     24  O   LIG d   1      -1.998  81.216 112.068  0.00  0.00    -0.241 OA
ENDBRANCH   3  22
TORSDOF 7
ENDMDL
MODEL 4
REMARK VINA RESULT:      -6.1      2.979      4.129
REMARK  7 active torsions:
REMARK  status: ('A' for Active; 'I' for Inactive)
REMARK    1  A    between atoms: C_2  and  C_3 
REMARK    2  A    between atoms: C_3  and  O_6 
REMARK    3  A    between atoms: C_3  and  C_4 
REMARK    4  A    between atoms: C_7  and  O_6 
REMARK    5  A    between atoms: C_9  and  C_10 
REMARK    6  A    between atoms: N_15  and  C_14 
REMARK    7  A    between atoms: N_20  and  C_19 
REMARK       I    between atoms: C_22  and  N_20 
ROOT
ATOM      1  C   LIG d   1       2.290  84.844 109.991  0.00  0.00     0.161 C 
ATOM      2  C   LIG d   1       1.210  85.667 110.350  0.00  0.00     0.016 C 
ATOM      3  C   LIG d   1      -0.035  85.167 110.797  0.00  0.00     0.038 C 
ATOM      4  C   LIG d   1      -0.235  83.804 111.060  0.00  0.00     0.028 C 
ATOM      5  C   LIG d   1       0.662  82.889 110.233  0.00  0.00    -0.047 C 
ATOM      6  C   LIG d   1       2.127  83.359 110.378  0.00  0.00     0.091 C 
ENDROOT
BRANCH   1   7
ATOM      7  O   LIG d   1       3.513  85.373 110.541  0.00  0.00    -0.368 OA
BRANCH   7   8
ATOM      8  C   LIG d   1       3.379  86.165 111.747  0.00  0.00     0.119 C 
BRANCH   8   9
ATOM      9  C   LIG d   1       4.428  87.291 111.681  0.00  0.00     0.028 C 
ATOM     10  C   LIG d   1       4.039  88.507 112.539  0.00  0.00     0.006 C 
ENDBRANCH   8   9
BRANCH   8  11
ATOM     11  C   LIG d   1       3.738  85.348 112.992  0.00  0.00     0.028 C 
ATOM     12  C   LIG d   1       2.502  84.891 113.783  0.00  0.00     0.006 C 
ENDBRANCH   8  11
ENDBRANCH   7   8
ENDBRANCH   1   7
BRANCH   6  13
ATOM     13  N   LIG d   1       3.062  82.569 109.533  0.00  0.00    -0.311 N 
ATOM     14  C   LIG d   1       3.652  81.448 109.944  0.00  0.00     0.210 C 
ATOM     15  C   LIG d   1       4.594  80.802 108.923  0.00  0.00     0.109 C 
ATOM     16  O   LIG d   1       3.460  80.911 111.045  0.00  0.00    -0.276 OA
ATOM     17  H   LIG d   1       3.249  82.917 108.613  0.00  0.00     0.149 HD
ENDBRANCH   6  13
BRANCH   5  18
ATOM     18  N   LIG d   1       0.447  81.509 110.706  0.00  0.00     0.381 N 
ATOM     19  H   LIG d   1      -0.327  81.484 111.339  0.00  0.00    -0.090 HD
ATOM     20  H   LIG d   1       1.268  81.203 111.199  0.00  0.00    -0.090 HD
ATOM     21  H   LIG d   1       0.272  80.906 109.932  0.00  0.00    -0.090 HD
ENDBRANCH   5  18
BRANCH   3  22
ATOM     22  C   LIG d   1      -1.109  86.032 110.946  0.00  0.00     0.382 C 
ATOM     23  O   LIG d   1      -1.430  86.801 110.009  0.00  0.00    -0.241 OA
ATOM     24  O   LIG d   1      -1.733  86.084 112.023  0.00  0.00    -0.241 OA
ENDBRANCH   3  22
TORSDOF 7
ENDMDL
MODEL 5
REMARK VINA RESULT:      -5.6      4.104      7.463
REMARK  7 active torsions:
REMARK  status: ('A' for Active; 'I' for Inactive)
REMARK    1  A    between atoms: C_2  and  C_3 
REMARK    2  A    between atoms: C_3  and  O_6 
REMARK    3  A    between atoms: C_3  and  C_4 
REMARK    4  A    between atoms: C_7  and  O_6 
REMARK    5  A    between atoms: C_9  and  C_10 
REMARK    6  A    between atoms: N_15  and  C_14 
REMARK    7  A    between atoms: N_20  and  C_19 
REMARK       I    between atoms: C_22  and  N_20 
ROOT
ATOM      1  C   LIG d   1       3.888  85.459 112.766  0.00  0.00     0.161 C 
ATOM      2  C   LIG d   1       4.445  86.715 113.060  0.00  0.00     0.016 C 
ATOM      3  C   LIG d   1       4.083  87.904 112.386  0.00  0.00     0.038 C 
ATOM      4  C   LIG d   1       3.022  87.942 111.469  0.00  0.00     0.028 C 
ATOM      5  C   LIG d   1       2.773  86.607 110.775  0.00  0.00    -0.047 C 
ATOM      6  C   LIG d   1       2.650  85.500 111.846  0.00  0.00     0.091 C 
ENDROOT
BRANCH   1   7
ATOM      7  O   LIG d   1       3.580  84.763 113.990  0.00  0.00    -0.368 OA
BRANCH   7   8
ATOM      8  C   LIG d   1       3.240  85.593 115.128  0.00  0.00     0.119 C 
BRANCH   8   9
ATOM      9  C   LIG d   1       4.048  85.078 116.334  0.00  0.00     0.028 C 
ATOM     10  C   LIG d   1       5.168  86.049 116.748  0.00  0.00     0.006 C 
ENDBRANCH   8   9
BRANCH   8  11
ATOM     11  C   LIG d   1       1.770  85.423 115.522  0.00  0.00     0.028 C 
ATOM     12  C   LIG d   1       1.042  86.765 115.699  0.00  0.00     0.006 C 
ENDBRANCH   8  11
ENDBRANCH   7   8
ENDBRANCH   1   7
BRANCH   6  13
ATOM     13  N   LIG d   1       2.489  84.148 111.249  0.00  0.00    -0.311 N 
ATOM     14  C   LIG d   1       1.559  83.279 111.641  0.00  0.00     0.210 C 
ATOM     15  C   LIG d   1       1.580  81.935 110.907  0.00  0.00     0.109 C 
ATOM     16  O   LIG d   1       0.699  83.506 112.505  0.00  0.00    -0.276 OA
ATOM     17  H   LIG d   1       3.126  83.894 110.519  0.00  0.00     0.149 HD
ENDBRANCH   6  13
BRANCH   5  18
ATOM     18  N   LIG d   1       1.557  86.753 109.952  0.00  0.00     0.381 N 
ATOM     19  H   LIG d   1       1.610  87.595 109.415  0.00  0.00    -0.090 HD
ATOM     20  H   LIG d   1       0.759  86.816 110.560  0.00  0.00    -0.090 HD
ATOM     21  H   LIG d   1       1.460  85.969 109.345  0.00  0.00    -0.090 HD
ENDBRANCH   5  18
BRANCH   3  22
ATOM     22  C   LIG d   1       4.812  89.064 112.598  0.00  0.00     0.382 C 
ATOM     23  O   LIG d   1       6.066  89.026 112.590  0.00  0.00    -0.241 OA
ATOM     24  O   LIG d   1       4.232  90.139 112.842  0.00  0.00    -0.241 OA
ENDBRANCH   3  22
TORSDOF 7
ENDMDL
MODEL 6
REMARK VINA RESULT:      -5.5     23.769     26.566
REMARK  7 active torsions:
REMARK  status: ('A' for Active; 'I' for Inactive)
REMARK    1  A    between atoms: C_2  and  C_3 
REMARK    2  A    between atoms: C_3  and  O_6 
REMARK    3  A    between atoms: C_3  and  C_4 
REMARK    4  A    between atoms: C_7  and  O_6 
REMARK    5  A    between atoms: C_9  and  C_10 
REMARK    6  A    between atoms: N_15  and  C_14 
REMARK    7  A    between atoms: N_20  and  C_19 
REMARK       I    between atoms: C_22  and  N_20 
ROOT
ATOM      1  C   LIG d   1     -25.716  85.661 113.029  0.00  0.00     0.161 C 
ATOM      2  C   LIG d   1     -24.604  86.491 113.247  0.00  0.00     0.016 C 
ATOM      3  C   LIG d   1     -23.281  86.006 113.361  0.00  0.00     0.038 C 
ATOM      4  C   LIG d   1     -22.960  84.663 113.112  0.00  0.00     0.028 C 
ATOM      5  C   LIG d   1     -24.113  83.704 113.387  0.00  0.00    -0.047 C 
ATOM      6  C   LIG d   1     -25.372  84.207 112.645  0.00  0.00     0.091 C 
ENDROOT
BRANCH   1   7
ATOM      7  O   LIG d   1     -26.579  86.251 112.037  0.00  0.00    -0.368 OA
BRANCH   7   8
ATOM      8  C   LIG d   1     -27.830  86.796 112.524  0.00  0.00     0.119 C 
BRANCH   8   9
ATOM      9  C   LIG d   1     -28.970  85.955 111.917  0.00  0.00     0.028 C 
ATOM     10  C   LIG d   1     -28.622  85.418 110.519  0.00  0.00     0.006 C 
ENDBRANCH   8   9
BRANCH   8  11
ATOM     11  C   LIG d   1     -28.057  88.220 112.005  0.00  0.00     0.028 C 
ATOM     12  C   LIG d   1     -26.818  88.803 111.307  0.00  0.00     0.006 C 
ENDBRANCH   8  11
ENDBRANCH   7   8
ENDBRANCH   1   7
BRANCH   6  13
ATOM     13  N   LIG d   1     -26.568  83.372 112.928  0.00  0.00    -0.311 N 
ATOM     14  C   LIG d   1     -27.002  82.412 112.112  0.00  0.00     0.210 C 
ATOM     15  C   LIG d   1     -28.265  81.685 112.584  0.00  0.00     0.109 C 
ATOM     16  O   LIG d   1     -26.442  82.073 111.059  0.00  0.00    -0.276 OA
ATOM     17  H   LIG d   1     -27.065  83.559 113.777  0.00  0.00     0.149 HD
ENDBRANCH   6  13
BRANCH   5  18
ATOM     18  N   LIG d   1     -23.686  82.359 112.955  0.00  0.00     0.381 N 
ATOM     19  H   LIG d   1     -22.708  82.366 112.744  0.00  0.00    -0.090 HD
ATOM     20  H   LIG d   1     -24.187  82.111 112.120  0.00  0.00    -0.090 HD
ATOM     21  H   LIG d   1     -23.874  81.695 113.674  0.00  0.00    -0.090 HD
ENDBRANCH   5  18
BRANCH   3  22
ATOM     22  C   LIG d   1     -22.268  86.861 113.766  0.00  0.00     0.382 C 
ATOM     23  O   LIG d   1     -22.486  87.710 114.664  0.00  0.00    -0.241 OA
ATOM     24  O   LIG d   1     -21.151  86.824 113.215  0.00  0.00    -0.241 OA
ENDBRANCH   3  22
TORSDOF 7
ENDMDL
MODEL 7
REMARK VINA RESULT:      -5.3      3.548      5.582
REMARK  7 active torsions:
REMARK  status: ('A' for Active; 'I' for Inactive)
REMARK    1  A    between atoms: C_2  and  C_3 
REMARK    2  A    between atoms: C_3  and  O_6 
REMARK    3  A    between atoms: C_3  and  C_4 
REMARK    4  A    between atoms: C_7  and  O_6 
REMARK    5  A    between atoms: C_9  and  C_10 
REMARK    6  A    between atoms: N_15  and  C_14 
REMARK    7  A    between atoms: N_20  and  C_19 
REMARK       I    between atoms: C_22  and  N_20 
ROOT
ATOM      1  C   LIG d   1       1.990  85.596 112.964  0.00  0.00     0.161 C 
ATOM      2  C   LIG d   1       0.811  85.007 112.477  0.00  0.00     0.016 C 
ATOM      3  C   LIG d   1       0.735  84.324 111.242  0.00  0.00     0.038 C 
ATOM      4  C   LIG d   1       1.877  84.052 110.474  0.00  0.00     0.028 C 
ATOM      5  C   LIG d   1       3.000  85.063 110.678  0.00  0.00    -0.047 C 
ATOM      6  C   LIG d   1       3.270  85.214 112.192  0.00  0.00     0.091 C 
ENDROOT
BRANCH   1   7
ATOM      7  O   LIG d   1       2.142  85.299 114.366  0.00  0.00    -0.368 OA
BRANCH   7   8
ATOM      8  C   LIG d   1       1.679  86.317 115.287  0.00  0.00     0.119 C 
BRANCH   8   9
ATOM      9  C   LIG d   1       2.884  87.215 115.628  0.00  0.00     0.028 C 
ATOM     10  C   LIG d   1       2.609  88.701 115.339  0.00  0.00     0.006 C 
ENDBRANCH   8   9
BRANCH   8  11
ATOM     11  C   LIG d   1       1.240  85.704 116.620  0.00  0.00     0.028 C 
ATOM     12  C   LIG d   1       1.648  84.229 116.761  0.00  0.00     0.006 C 
ENDBRANCH   8  11
ENDBRANCH   7   8
ENDBRANCH   1   7
BRANCH   6  13
ATOM     13  N   LIG d   1       4.297  86.247 112.485  0.00  0.00    -0.311 N 
ATOM     14  C   LIG d   1       4.168  87.527 112.140  0.00  0.00     0.210 C 
ATOM     15  C   LIG d   1       5.353  88.421 112.519  0.00  0.00     0.109 C 
ATOM     16  O   LIG d   1       3.171  88.013 111.585  0.00  0.00    -0.276 OA
ATOM     17  H   LIG d   1       5.125  85.946 112.961  0.00  0.00     0.149 HD
ENDBRANCH   6  13
BRANCH   5  18
ATOM     18  N   LIG d   1       4.174  84.583 109.926  0.00  0.00     0.381 N 
ATOM     19  H   LIG d   1       4.216  83.585 109.964  0.00  0.00    -0.090 HD
ATOM     20  H   LIG d   1       5.006  84.951 110.353  0.00  0.00    -0.090 HD
ATOM     21  H   LIG d   1       4.118  84.884 108.977  0.00  0.00    -0.090 HD
ENDBRANCH   5  18
BRANCH   3  22
ATOM     22  C   LIG d   1      -0.501  83.940 110.743  0.00  0.00     0.382 C 
ATOM     23  O   LIG d   1      -0.859  82.740 110.812  0.00  0.00    -0.241 OA
ATOM     24  O   LIG d   1      -1.243  84.771 110.186  0.00  0.00    -0.241 OA
ENDBRANCH   3  22
TORSDOF 7
ENDMDL
MODEL 8
REMARK VINA RESULT:      -4.7      2.802      4.244
REMARK  7 active torsions:
REMARK  status: ('A' for Active; 'I' for Inactive)
REMARK    1  A    between atoms: C_2  and  C_3 
REMARK    2  A    between atoms: C_3  and  O_6 
REMARK    3  A    between atoms: C_3  and  C_4 
REMARK    4  A    between atoms: C_7  and  O_6 
REMARK    5  A    between atoms: C_9  and  C_10 
REMARK    6  A    between atoms: N_15  and  C_14 
REMARK    7  A    between atoms: N_20  and  C_19 
REMARK       I    between atoms: C_22  and  N_20 
ROOT
ATOM      1  C   LIG d   1       2.072  82.425 110.671  0.00  0.00     0.161 C 
ATOM      2  C   LIG d   1       1.902  81.467 109.658  0.00  0.00     0.016 C 
ATOM      3  C   LIG d   1       0.739  80.673 109.524  0.00  0.00     0.038 C 
ATOM      4  C   LIG d   1      -0.401  80.891 110.311  0.00  0.00     0.028 C 
ATOM      5  C   LIG d   1      -0.090  81.502 111.673  0.00  0.00    -0.047 C 
ATOM      6  C   LIG d   1       0.794  82.754 111.471  0.00  0.00     0.091 C 
ENDROOT
BRANCH   1   7
ATOM      7  O   LIG d   1       2.639  83.628 110.117  0.00  0.00    -0.368 OA
BRANCH   7   8
ATOM      8  C   LIG d   1       3.950  84.001 110.610  0.00  0.00     0.119 C 
BRANCH   8   9
ATOM      9  C   LIG d   1       3.958  85.531 110.791  0.00  0.00     0.028 C 
ATOM     10  C   LIG d   1       2.667  86.190 110.276  0.00  0.00     0.006 C 
ENDBRANCH   8   9
BRANCH   8  11
ATOM     11  C   LIG d   1       5.039  83.709 109.574  0.00  0.00     0.028 C 
ATOM     12  C   LIG d   1       4.504  82.964 108.340  0.00  0.00     0.006 C 
ENDBRANCH   8  11
ENDBRANCH   7   8
ENDBRANCH   1   7
BRANCH   6  13
ATOM     13  N   LIG d   1       1.214  83.365 112.759  0.00  0.00    -0.311 N 
ATOM     14  C   LIG d   1       0.977  84.636 113.080  0.00  0.00     0.210 C 
ATOM     15  C   LIG d   1       1.513  85.068 114.448  0.00  0.00     0.109 C 
ATOM     16  O   LIG d   1       0.346  85.437 112.374  0.00  0.00    -0.276 OA
ATOM     17  H   LIG d   1       1.705  82.777 113.404  0.00  0.00     0.149 HD
ENDBRANCH   6  13
BRANCH   5  18
ATOM     18  N   LIG d   1      -1.376  81.802 112.331  0.00  0.00     0.381 N 
ATOM     19  H   LIG d   1      -1.933  80.973 112.381  0.00  0.00    -0.090 HD
ATOM     20  H   LIG d   1      -1.871  82.483 111.782  0.00  0.00    -0.090 HD
ATOM     21  H   LIG d   1      -1.215  82.158 113.248  0.00  0.00    -0.090 HD
ENDBRANCH   5  18
BRANCH   3  22
ATOM     22  C   LIG d   1       0.726  79.621 108.621  0.00  0.00     0.382 C 
ATOM     23  O   LIG d   1      -0.222  79.507 107.807  0.00  0.00    -0.241 OA
ATOM     24  O   LIG d   1       1.626  78.760 108.640  0.00  0.00    -0.241 OA
ENDBRANCH   3  22
TORSDOF 7
ENDMDL
MODEL 9
REMARK VINA RESULT:      -4.5     27.165     29.398
REMARK  7 active torsions:
REMARK  status: ('A' for Active; 'I' for Inactive)
REMARK    1  A    between atoms: C_2  and  C_3 
REMARK    2  A    between atoms: C_3  and  O_6 
REMARK    3  A    between atoms: C_3  and  C_4 
REMARK    4  A    between atoms: C_7  and  O_6 
REMARK    5  A    between atoms: C_9  and  C_10 
REMARK    6  A    between atoms: N_15  and  C_14 
REMARK    7  A    between atoms: N_20  and  C_19 
REMARK       I    between atoms: C_22  and  N_20 
ROOT
ATOM      1  C   LIG d   1     -26.560  71.982 111.584  0.00  0.00     0.161 C 
ATOM      2  C   LIG d   1     -26.002  71.760 112.854  0.00  0.00     0.016 C 
ATOM      3  C   LIG d   1     -25.516  72.798 113.682  0.00  0.00     0.038 C 
ATOM      4  C   LIG d   1     -25.695  74.151 113.358  0.00  0.00     0.028 C 
ATOM      5  C   LIG d   1     -25.798  74.405 111.858  0.00  0.00    -0.047 C 
ATOM      6  C   LIG d   1     -26.865  73.460 111.261  0.00  0.00     0.091 C 
ENDROOT
BRANCH   1   7
ATOM      7  O   LIG d   1     -27.747  71.179 111.425  0.00  0.00    -0.368 OA
BRANCH   7   8
ATOM      8  C   LIG d   1     -27.550  69.852 110.878  0.00  0.00     0.119 C 
BRANCH   8   9
ATOM      9  C   LIG d   1     -27.182  70.015 109.390  0.00  0.00     0.028 C 
ATOM     10  C   LIG d   1     -26.233  68.911 108.896  0.00  0.00     0.006 C 
ENDBRANCH   8   9
BRANCH   8  11
ATOM     11  C   LIG d   1     -28.853  69.047 110.887  0.00  0.00     0.028 C 
ATOM     12  C   LIG d   1     -29.970  69.711 110.067  0.00  0.00     0.006 C 
ENDBRANCH   8  11
ENDBRANCH   7   8
ENDBRANCH   1   7
BRANCH   6  13
ATOM     13  N   LIG d   1     -26.970  73.584 109.783  0.00  0.00    -0.311 N 
ATOM     14  C   LIG d   1     -28.130  73.615 109.131  0.00  0.00     0.210 C 
ATOM     15  C   LIG d   1     -28.013  73.727 107.607  0.00  0.00     0.109 C 
ATOM     16  O   LIG d   1     -29.246  73.591 109.671  0.00  0.00    -0.276 OA
ATOM     17  H   LIG d   1     -26.113  73.640 109.268  0.00  0.00     0.149 HD
ENDBRANCH   6  13
BRANCH   5  18
ATOM     18  N   LIG d   1     -26.120  75.833 111.669  0.00  0.00     0.381 N 
ATOM     19  H   LIG d   1     -25.360  76.293 111.208  0.00  0.00    -0.090 HD
ATOM     20  H   LIG d   1     -26.247  76.259 112.570  0.00  0.00    -0.090 HD
ATOM     21  H   LIG d   1     -26.952  75.926 111.128  0.00  0.00    -0.090 HD
ENDBRANCH   5  18
BRANCH   3  22
ATOM     22  C   LIG d   1     -24.807  72.485 114.832  0.00  0.00     0.382 C 
ATOM     23  O   LIG d   1     -23.785  73.145 115.138  0.00  0.00    -0.241 OA
ATOM     24  O   LIG d   1     -25.150  71.521 115.543  0.00  0.00    -0.241 OA
ENDBRANCH   3  22
TORSDOF 7
ENDMDL
