MODEL 1
REMARK VINA RESULT:      -6.8      0.000      0.000
REMARK  7 active torsions:
REMARK  status: ('A' for Active; 'I' for Inactive)
REMARK    1  A    between atoms: C_2  and  C_3 
REMARK    2  A    between atoms: C_3  and  O_6 
REMARK    3  A    between atoms: C_3  and  C_4 
REMARK    4  A    between atoms: C_7  and  O_6 
REMARK    5  A    between atoms: C_9  and  C_10 
REMARK    6  A    between atoms: N_15  and  C_14 
REMARK    7  A    between atoms: N_20  and  C_19 
REMARK       I    between atoms: C_22  and  N_20 
ROOT
ATOM      1  C   LIG d   1       0.967  83.869 109.170  0.00  0.00     0.161 C 
ATOM      2  C   LIG d   1       0.690  85.134 109.715  0.00  0.00     0.016 C 
ATOM      3  C   LIG d   1      -0.028  85.322 110.918  0.00  0.00     0.038 C 
ATOM      4  C   LIG d   1      -0.389  84.246 111.742  0.00  0.00     0.028 C 
ATOM      5  C   LIG d   1      -0.574  82.937 110.983  0.00  0.00    -0.047 C 
ATOM      6  C   LIG d   1       0.678  82.682 110.111  0.00  0.00     0.091 C 
ENDROOT
BRANCH   1   7
ATOM      7  O   LIG d   1       2.332  83.824 108.710  0.00  0.00    -0.368 OA
BRANCH   7   8
ATOM      8  C   LIG d   1       3.305  83.312 109.654  0.00  0.00     0.119 C 
BRANCH   8   9
ATOM      9  C   LIG d   1       3.860  84.513 110.444  0.00  0.00     0.028 C 
ATOM     10  C   LIG d   1       3.582  84.402 111.952  0.00  0.00     0.006 C 
ENDBRANCH   8   9
BRANCH   8  11
ATOM     11  C   LIG d   1       4.514  82.706 108.935  0.00  0.00     0.028 C 
ATOM     12  C   LIG d   1       4.526  81.170 108.981  0.00  0.00     0.006 C 
ENDBRANCH   8  11
ENDBRANCH   7   8
ENDBRANCH   1   7
BRANCH   6  13
ATOM     13  N   LIG d   1       0.544  81.463 109.271  0.00  0.00    -0.311 N 
ATOM     14  C   LIG d   1       1.041  80.277 109.616  0.00  0.00     0.210 C 
ATOM     15  C   LIG d   1       0.809  79.157 108.596  0.00  0.00     0.109 C 
ATOM     16  O   LIG d   1       1.624  80.037 110.684  0.00  0.00    -0.276 OA
ATOM     17  H   LIG d   1       0.058  81.560 108.401  0.00  0.00     0.149 HD
ENDBRANCH   6  13
BRANCH   5  18
ATOM     18  N   LIG d   1      -0.812  81.874 111.978  0.00  0.00     0.381 N 
ATOM     19  H   LIG d   1      -1.783  81.633 111.990  0.00  0.00    -0.090 HD
ATOM     20  H   LIG d   1      -0.560  82.218 112.887  0.00  0.00    -0.090 HD
ATOM     21  H   LIG d   1      -0.266  81.071 111.756  0.00  0.00    -0.090 HD
ENDBRANCH   5  18
BRANCH   3  22
ATOM     22  C   LIG d   1      -0.427  86.598 111.288  0.00  0.00     0.382 C 
ATOM     23  O   LIG d   1       0.405  87.537 111.296  0.00  0.00    -0.241 OA
ATOM     24  O   LIG d   1      -1.597  86.812 111.657  0.00  0.00    -0.241 OA
ENDBRANCH   3  22
TORSDOF 7
ENDMDL
MODEL 2
REMARK VINA RESULT:      -6.6      2.562      4.333
REMARK  7 active torsions:
REMARK  status: ('A' for Active; 'I' for Inactive)
REMARK    1  A    between atoms: C_2  and  C_3 
REMARK    2  A    between atoms: C_3  and  O_6 
REMARK    3  A    between atoms: C_3  and  C_4 
REMARK    4  A    between atoms: C_7  and  O_6 
REMARK    5  A    between atoms: C_9  and  C_10 
REMARK    6  A    between atoms: N_15  and  C_14 
REMARK    7  A    between atoms: N_20  and  C_19 
REMARK       I    between atoms: C_22  and  N_20 
ROOT
ATOM      1  C   LIG d   1       0.347  82.554 111.215  0.00  0.00     0.161 C 
ATOM      2  C   LIG d   1      -0.783  82.262 111.997  0.00  0.00     0.016 C 
ATOM      3  C   LIG d   1      -1.241  80.948 112.243  0.00  0.00     0.038 C 
ATOM      4  C   LIG d   1      -0.508  79.820 111.844  0.00  0.00     0.028 C 
ATOM      5  C   LIG d   1       0.368  80.069 110.621  0.00  0.00    -0.047 C 
ATOM      6  C   LIG d   1       1.223  81.333 110.865  0.00  0.00     0.091 C 
ENDROOT
BRANCH   1   7
ATOM      7  O   LIG d   1       1.139  83.570 111.861  0.00  0.00    -0.368 OA
BRANCH   7   8
ATOM      8  C   LIG d   1       1.126  84.879 111.239  0.00  0.00     0.119 C 
BRANCH   8   9
ATOM      9  C   LIG d   1       0.179  84.806 110.026  0.00  0.00     0.028 C 
ATOM     10  C   LIG d   1      -0.848  85.951 110.013  0.00  0.00     0.006 C 
ENDBRANCH   8   9
BRANCH   8  11
ATOM     11  C   LIG d   1       2.499  85.234 110.660  0.00  0.00     0.028 C 
ATOM     12  C   LIG d   1       3.638  85.054 111.676  0.00  0.00     0.006 C 
ENDBRANCH   8  11
ENDBRANCH   7   8
ENDBRANCH   1   7
BRANCH   6  13
ATOM     13  N   LIG d   1       2.048  81.696 109.683  0.00  0.00    -0.311 N 
ATOM     14  C   LIG d   1       3.372  81.830 109.726  0.00  0.00     0.210 C 
ATOM     15  C   LIG d   1       4.026  82.229 108.399  0.00  0.00     0.109 C 
ATOM     16  O   LIG d   1       4.072  81.624 110.730  0.00  0.00    -0.276 OA
ATOM     17  H   LIG d   1       1.565  81.850 108.820  0.00  0.00     0.149 HD
ENDBRANCH   6  13
BRANCH   5  18
ATOM     18  N   LIG d   1       1.179  78.856 110.399  0.00  0.00     0.381 N 
ATOM     19  H   LIG d   1       0.581  78.057 110.328  0.00  0.00    -0.090 HD
ATOM     20  H   LIG d   1       1.789  78.725 111.187  0.00  0.00    -0.090 HD
ATOM     21  H   LIG d   1       1.716  78.953 109.566  0.00  0.00    -0.090 HD
ENDBRANCH   5  18
BRANCH   3  22
ATOM     22  C   LIG d   1      -2.468  80.751 112.860  0.00  0.00     0.382 C 
ATOM     23  O   LIG d   1      -2.661  79.727 113.558  0.00  0.00    -0.241 OA
ATOM     24  O   LIG d   1      -3.397  81.563 112.691  0.00  0.00    -0.241 OA
ENDBRANCH   3  22
TORSDOF 7
ENDMDL
MODEL 3
REMARK VINA RESULT:      -6.2      2.417      4.964
REMARK  7 active torsions:
REMARK  status: ('A' for Active; 'I' for Inactive)
REMARK    1  A    between atoms: C_2  and  C_3 
REMARK    2  A    between atoms: C_3  and  O_6 
REMARK    3  A    between atoms: C_3  and  C_4 
REMARK    4  A    between atoms: C_7  and  O_6 
REMARK    5  A    between atoms: C_9  and  C_10 
REMARK    6  A    between atoms: N_15  and  C_14 
REMARK    7  A    between atoms: N_20  and  C_19 
REMARK       I    between atoms: C_22  and  N_20 
ROOT
ATOM      1  C   LIG d   1       1.330  81.680 111.841  0.00  0.00     0.161 C 
ATOM      2  C   LIG d   1       2.370  81.945 110.934  0.00  0.00     0.016 C 
ATOM      3  C   LIG d   1       2.463  81.341 109.659  0.00  0.00     0.038 C 
ATOM      4  C   LIG d   1       1.434  80.540 109.141  0.00  0.00     0.028 C 
ATOM      5  C   LIG d   1       0.609  79.843 110.217  0.00  0.00    -0.047 C 
ATOM      6  C   LIG d   1       0.141  80.894 111.250  0.00  0.00     0.091 C 
ENDROOT
BRANCH   1   7
ATOM      7  O   LIG d   1       0.872  82.911 112.433  0.00  0.00    -0.368 OA
BRANCH   7   8
ATOM      8  C   LIG d   1       0.898  84.079 111.575  0.00  0.00     0.119 C 
BRANCH   8   9
ATOM      9  C   LIG d   1       1.476  85.246 112.399  0.00  0.00     0.028 C 
ATOM     10  C   LIG d   1       2.962  85.501 112.093  0.00  0.00     0.006 C 
ENDBRANCH   8   9
BRANCH   8  11
ATOM     11  C   LIG d   1      -0.518  84.518 111.189  0.00  0.00     0.028 C 
ATOM     12  C   LIG d   1      -0.529  85.614 110.113  0.00  0.00     0.006 C 
ENDBRANCH   8  11
ENDBRANCH   7   8
ENDBRANCH   1   7
BRANCH   6  13
ATOM     13  N   LIG d   1      -0.603  80.284 112.383  0.00  0.00    -0.311 N 
ATOM     14  C   LIG d   1      -1.768  80.748 112.830  0.00  0.00     0.210 C 
ATOM     15  C   LIG d   1      -2.355  79.983 114.021  0.00  0.00     0.109 C 
ATOM     16  O   LIG d   1      -2.387  81.701 112.333  0.00  0.00    -0.276 OA
ATOM     17  H   LIG d   1      -0.187  79.487 112.825  0.00  0.00     0.149 HD
ENDBRANCH   6  13
BRANCH   5  18
ATOM     18  N   LIG d   1      -0.510  79.155 109.545  0.00  0.00     0.381 N 
ATOM     19  H   LIG d   1      -0.892  78.457 110.153  0.00  0.00    -0.090 HD
ATOM     20  H   LIG d   1      -0.162  78.699 108.720  0.00  0.00    -0.090 HD
ATOM     21  H   LIG d   1      -1.216  79.813 109.298  0.00  0.00    -0.090 HD
ENDBRANCH   5  18
BRANCH   3  22
ATOM     22  C   LIG d   1       3.614  81.505 108.903  0.00  0.00     0.382 C 
ATOM     23  O   LIG d   1       3.626  82.318 107.947  0.00  0.00    -0.241 OA
ATOM     24  O   LIG d   1       4.626  80.818 109.137  0.00  0.00    -0.241 OA
ENDBRANCH   3  22
TORSDOF 7
ENDMDL
MODEL 4
REMARK VINA RESULT:      -6.1      2.188      3.328
REMARK  7 active torsions:
REMARK  status: ('A' for Active; 'I' for Inactive)
REMARK    1  A    between atoms: C_2  and  C_3 
REMARK    2  A    between atoms: C_3  and  O_6 
REMARK    3  A    between atoms: C_3  and  C_4 
REMARK    4  A    between atoms: C_7  and  O_6 
REMARK    5  A    between atoms: C_9  and  C_10 
REMARK    6  A    between atoms: N_15  and  C_14 
REMARK    7  A    between atoms: N_20  and  C_19 
REMARK       I    between atoms: C_22  and  N_20 
ROOT
ATOM      1  C   LIG d   1       1.194  82.596 110.177  0.00  0.00     0.161 C 
ATOM      2  C   LIG d   1       1.732  83.886 110.039  0.00  0.00     0.016 C 
ATOM      3  C   LIG d   1       2.491  84.525 111.046  0.00  0.00     0.038 C 
ATOM      4  C   LIG d   1       2.895  83.853 112.209  0.00  0.00     0.028 C 
ATOM      5  C   LIG d   1       1.953  82.724 112.614  0.00  0.00    -0.047 C 
ATOM      6  C   LIG d   1       1.718  81.804 111.394  0.00  0.00     0.091 C 
ENDROOT
BRANCH   1   7
ATOM      7  O   LIG d   1       1.404  81.846 108.964  0.00  0.00    -0.368 OA
BRANCH   7   8
ATOM      8  C   LIG d   1       2.369  80.769 109.039  0.00  0.00     0.119 C 
BRANCH   8   9
ATOM      9  C   LIG d   1       3.585  81.175 108.184  0.00  0.00     0.028 C 
ATOM     10  C   LIG d   1       4.666  81.897 109.006  0.00  0.00     0.006 C 
ENDBRANCH   8   9
BRANCH   8  11
ATOM     11  C   LIG d   1       1.828  79.490 108.393  0.00  0.00     0.028 C 
ATOM     12  C   LIG d   1       0.302  79.514 108.212  0.00  0.00     0.006 C 
ENDBRANCH   8  11
ENDBRANCH   7   8
ENDBRANCH   1   7
BRANCH   6  13
ATOM     13  N   LIG d   1       0.741  80.721 111.680  0.00  0.00    -0.311 N 
ATOM     14  C   LIG d   1      -0.523  80.948 112.034  0.00  0.00     0.210 C 
ATOM     15  C   LIG d   1      -1.355  79.691 112.303  0.00  0.00     0.109 C 
ATOM     16  O   LIG d   1      -1.042  82.071 112.120  0.00  0.00    -0.276 OA
ATOM     17  H   LIG d   1       1.070  79.779 111.604  0.00  0.00     0.149 HD
ENDBRANCH   6  13
BRANCH   5  18
ATOM     18  N   LIG d   1       2.564  82.022 113.758  0.00  0.00     0.381 N 
ATOM     19  H   LIG d   1       3.260  82.604 114.180  0.00  0.00    -0.090 HD
ATOM     20  H   LIG d   1       3.013  81.186 113.425  0.00  0.00    -0.090 HD
ATOM     21  H   LIG d   1       1.865  81.788 114.428  0.00  0.00    -0.090 HD
ENDBRANCH   5  18
BRANCH   3  22
ATOM     22  C   LIG d   1       2.821  85.865 110.912  0.00  0.00     0.382 C 
ATOM     23  O   LIG d   1       3.979  86.257 111.194  0.00  0.00    -0.241 OA
ATOM     24  O   LIG d   1       1.962  86.694 110.555  0.00  0.00    -0.241 OA
ENDBRANCH   3  22
TORSDOF 7
ENDMDL
MODEL 5
REMARK VINA RESULT:      -6.0      2.233      4.320
REMARK  7 active torsions:
REMARK  status: ('A' for Active; 'I' for Inactive)
REMARK    1  A    between atoms: C_2  and  C_3 
REMARK    2  A    between atoms: C_3  and  O_6 
REMARK    3  A    between atoms: C_3  and  C_4 
REMARK    4  A    between atoms: C_7  and  O_6 
REMARK    5  A    between atoms: C_9  and  C_10 
REMARK    6  A    between atoms: N_15  and  C_14 
REMARK    7  A    between atoms: N_20  and  C_19 
REMARK       I    between atoms: C_22  and  N_20 
ROOT
ATOM      1  C   LIG d   1       0.212  82.311 111.158  0.00  0.00     0.161 C 
ATOM      2  C   LIG d   1      -0.163  83.546 111.714  0.00  0.00     0.016 C 
ATOM      3  C   LIG d   1      -0.008  84.781 111.043  0.00  0.00     0.038 C 
ATOM      4  C   LIG d   1       0.397  84.850 109.702  0.00  0.00     0.028 C 
ATOM      5  C   LIG d   1       1.265  83.673 109.270  0.00  0.00    -0.047 C 
ATOM      6  C   LIG d   1       0.553  82.356 109.654  0.00  0.00     0.091 C 
ENDROOT
BRANCH   1   7
ATOM      7  O   LIG d   1      -0.813  81.330 111.411  0.00  0.00    -0.368 OA
BRANCH   7   8
ATOM      8  C   LIG d   1      -0.525  80.362 112.450  0.00  0.00     0.119 C 
BRANCH   8   9
ATOM      9  C   LIG d   1      -0.330  78.994 111.767  0.00  0.00     0.028 C 
ATOM     10  C   LIG d   1      -1.658  78.378 111.297  0.00  0.00     0.006 C 
ENDBRANCH   8   9
BRANCH   8  11
ATOM     11  C   LIG d   1      -1.722  80.179 113.388  0.00  0.00     0.028 C 
ATOM     12  C   LIG d   1      -2.852  81.184 113.114  0.00  0.00     0.006 C 
ENDBRANCH   8  11
ENDBRANCH   7   8
ENDBRANCH   1   7
BRANCH   6  13
ATOM     13  N   LIG d   1       1.372  81.156 109.342  0.00  0.00    -0.311 N 
ATOM     14  C   LIG d   1       0.894  80.086 108.710  0.00  0.00     0.210 C 
ATOM     15  C   LIG d   1       1.903  78.951 108.507  0.00  0.00     0.109 C 
ATOM     16  O   LIG d   1      -0.260  79.982 108.269  0.00  0.00    -0.276 OA
ATOM     17  H   LIG d   1       2.329  81.168 109.637  0.00  0.00     0.149 HD
ENDBRANCH   6  13
BRANCH   5  18
ATOM     18  N   LIG d   1       1.501  83.801 107.819  0.00  0.00     0.381 N 
ATOM     19  H   LIG d   1       2.171  84.523 107.647  0.00  0.00    -0.090 HD
ATOM     20  H   LIG d   1       0.638  84.059 107.372  0.00  0.00    -0.090 HD
ATOM     21  H   LIG d   1       1.830  82.937 107.449  0.00  0.00    -0.090 HD
ENDBRANCH   5  18
BRANCH   3  22
ATOM     22  C   LIG d   1      -0.221  85.967 111.729  0.00  0.00     0.382 C 
ATOM     23  O   LIG d   1       0.757  86.644 112.128  0.00  0.00    -0.241 OA
ATOM     24  O   LIG d   1      -1.378  86.345 111.992  0.00  0.00    -0.241 OA
ENDBRANCH   3  22
TORSDOF 7
ENDMDL
MODEL 6
REMARK VINA RESULT:      -6.0      2.053      3.834
REMARK  7 active torsions:
REMARK  status: ('A' for Active; 'I' for Inactive)
REMARK    1  A    between atoms: C_2  and  C_3 
REMARK    2  A    between atoms: C_3  and  O_6 
REMARK    3  A    between atoms: C_3  and  C_4 
REMARK    4  A    between atoms: C_7  and  O_6 
REMARK    5  A    between atoms: C_9  and  C_10 
REMARK    6  A    between atoms: N_15  and  C_14 
REMARK    7  A    between atoms: N_20  and  C_19 
REMARK       I    between atoms: C_22  and  N_20 
ROOT
ATOM      1  C   LIG d   1       1.362  83.024 111.564  0.00  0.00     0.161 C 
ATOM      2  C   LIG d   1       0.596  84.200 111.633  0.00  0.00     0.016 C 
ATOM      3  C   LIG d   1       0.320  85.015 110.512  0.00  0.00     0.038 C 
ATOM      4  C   LIG d   1       0.666  84.626 109.209  0.00  0.00     0.028 C 
ATOM      5  C   LIG d   1       1.876  83.700 109.155  0.00  0.00    -0.047 C 
ATOM      6  C   LIG d   1       1.653  82.525 110.134  0.00  0.00     0.091 C 
ENDROOT
BRANCH   1   7
ATOM      7  O   LIG d   1       0.731  81.984 112.338  0.00  0.00    -0.368 OA
BRANCH   7   8
ATOM      8  C   LIG d   1      -0.367  81.290 111.697  0.00  0.00     0.119 C 
BRANCH   8   9
ATOM      9  C   LIG d   1      -1.662  81.697 112.427  0.00  0.00     0.028 C 
ATOM     10  C   LIG d   1      -2.298  80.525 113.193  0.00  0.00     0.006 C 
ENDBRANCH   8   9
BRANCH   8  11
ATOM     11  C   LIG d   1      -0.255  79.774 111.887  0.00  0.00     0.028 C 
ATOM     12  C   LIG d   1      -0.230  79.007 110.556  0.00  0.00     0.006 C 
ENDBRANCH   8  11
ENDBRANCH   7   8
ENDBRANCH   1   7
BRANCH   6  13
ATOM     13  N   LIG d   1       2.827  81.616 110.205  0.00  0.00    -0.311 N 
ATOM     14  C   LIG d   1       3.004  80.582 109.385  0.00  0.00     0.210 C 
ATOM     15  C   LIG d   1       4.272  79.761 109.643  0.00  0.00     0.109 C 
ATOM     16  O   LIG d   1       2.248  80.285 108.447  0.00  0.00    -0.276 OA
ATOM     17  H   LIG d   1       3.506  81.803 110.916  0.00  0.00     0.149 HD
ENDBRANCH   6  13
BRANCH   5  18
ATOM     18  N   LIG d   1       2.041  83.264 107.755  0.00  0.00     0.381 N 
ATOM     19  H   LIG d   1       1.277  82.674 107.492  0.00  0.00    -0.090 HD
ATOM     20  H   LIG d   1       2.891  82.734 107.678  0.00  0.00    -0.090 HD
ATOM     21  H   LIG d   1       2.080  84.057 107.153  0.00  0.00    -0.090 HD
ENDBRANCH   5  18
BRANCH   3  22
ATOM     22  C   LIG d   1      -0.275  86.254 110.693  0.00  0.00     0.382 C 
ATOM     23  O   LIG d   1       0.317  87.144 111.351  0.00  0.00    -0.241 OA
ATOM     24  O   LIG d   1      -1.415  86.479 110.245  0.00  0.00    -0.241 OA
ENDBRANCH   3  22
TORSDOF 7
ENDMDL
MODEL 7
REMARK VINA RESULT:      -5.9      1.934      2.951
REMARK  7 active torsions:
REMARK  status: ('A' for Active; 'I' for Inactive)
REMARK    1  A    between atoms: C_2  and  C_3 
REMARK    2  A    between atoms: C_3  and  O_6 
REMARK    3  A    between atoms: C_3  and  C_4 
REMARK    4  A    between atoms: C_7  and  O_6 
REMARK    5  A    between atoms: C_9  and  C_10 
REMARK    6  A    between atoms: N_15  and  C_14 
REMARK    7  A    between atoms: N_20  and  C_19 
REMARK       I    between atoms: C_22  and  N_20 
ROOT
ATOM      1  C   LIG d   1       1.797  81.782 110.472  0.00  0.00     0.161 C 
ATOM      2  C   LIG d   1       2.277  83.097 110.597  0.00  0.00     0.016 C 
ATOM      3  C   LIG d   1       1.558  84.129 111.242  0.00  0.00     0.038 C 
ATOM      4  C   LIG d   1       0.369  83.879 111.944  0.00  0.00     0.028 C 
ATOM      5  C   LIG d   1      -0.403  82.675 111.416  0.00  0.00    -0.047 C 
ATOM      6  C   LIG d   1       0.553  81.464 111.328  0.00  0.00     0.091 C 
ENDROOT
BRANCH   1   7
ATOM      7  O   LIG d   1       2.856  80.847 110.759  0.00  0.00    -0.368 OA
BRANCH   7   8
ATOM      8  C   LIG d   1       3.263  79.989 109.665  0.00  0.00     0.119 C 
BRANCH   8   9
ATOM      9  C   LIG d   1       4.718  80.352 109.309  0.00  0.00     0.028 C 
ATOM     10  C   LIG d   1       4.822  81.688 108.554  0.00  0.00     0.006 C 
ENDBRANCH   8   9
BRANCH   8  11
ATOM     11  C   LIG d   1       2.452  80.279 108.398  0.00  0.00     0.028 C 
ATOM     12  C   LIG d   1       1.564  79.098 107.976  0.00  0.00     0.006 C 
ENDBRANCH   8  11
ENDBRANCH   7   8
ENDBRANCH   1   7
BRANCH   6  13
ATOM     13  N   LIG d   1      -0.101  80.265 110.741  0.00  0.00    -0.311 N 
ATOM     14  C   LIG d   1      -0.654  79.300 111.473  0.00  0.00     0.210 C 
ATOM     15  C   LIG d   1      -1.257  78.144 110.669  0.00  0.00     0.109 C 
ATOM     16  O   LIG d   1      -0.731  79.306 112.711  0.00  0.00    -0.276 OA
ATOM     17  H   LIG d   1      -0.112  80.194 109.743  0.00  0.00     0.149 HD
ENDBRANCH   6  13
BRANCH   5  18
ATOM     18  N   LIG d   1      -1.545  82.445 112.322  0.00  0.00     0.381 N 
ATOM     19  H   LIG d   1      -2.235  83.156 112.183  0.00  0.00    -0.090 HD
ATOM     20  H   LIG d   1      -1.222  82.500 113.272  0.00  0.00    -0.090 HD
ATOM     21  H   LIG d   1      -1.942  81.548 112.149  0.00  0.00    -0.090 HD
ENDBRANCH   5  18
BRANCH   3  22
ATOM     22  C   LIG d   1       2.008  85.438 111.155  0.00  0.00     0.382 C 
ATOM     23  O   LIG d   1       1.937  86.054 110.065  0.00  0.00    -0.241 OA
ATOM     24  O   LIG d   1       2.525  85.995 112.142  0.00  0.00    -0.241 OA
ENDBRANCH   3  22
TORSDOF 7
ENDMDL
MODEL 8
REMARK VINA RESULT:      -5.8      2.026      4.090
REMARK  7 active torsions:
REMARK  status: ('A' for Active; 'I' for Inactive)
REMARK    1  A    between atoms: C_2  and  C_3 
REMARK    2  A    between atoms: C_3  and  O_6 
REMARK    3  A    between atoms: C_3  and  C_4 
REMARK    4  A    between atoms: C_7  and  O_6 
REMARK    5  A    between atoms: C_9  and  C_10 
REMARK    6  A    between atoms: N_15  and  C_14 
REMARK    7  A    between atoms: N_20  and  C_19 
REMARK       I    between atoms: C_22  and  N_20 
ROOT
ATOM      1  C   LIG d   1       0.694  82.378 111.015  0.00  0.00     0.161 C 
ATOM      2  C   LIG d   1      -0.057  83.535 111.282  0.00  0.00     0.016 C 
ATOM      3  C   LIG d   1       0.383  84.840 110.961  0.00  0.00     0.038 C 
ATOM      4  C   LIG d   1       1.545  85.065 110.208  0.00  0.00     0.028 C 
ATOM      5  C   LIG d   1       2.588  83.962 110.357  0.00  0.00    -0.047 C 
ATOM      6  C   LIG d   1       1.913  82.596 110.095  0.00  0.00     0.091 C 
ENDROOT
BRANCH   1   7
ATOM      7  O   LIG d   1      -0.164  81.353 110.476  0.00  0.00    -0.368 OA
BRANCH   7   8
ATOM      8  C   LIG d   1       0.033  80.016 110.999  0.00  0.00     0.119 C 
BRANCH   8   9
ATOM      9  C   LIG d   1      -0.161  79.029 109.832  0.00  0.00     0.028 C 
ATOM     10  C   LIG d   1       0.204  79.648 108.473  0.00  0.00     0.006 C 
ENDBRANCH   8   9
BRANCH   8  11
ATOM     11  C   LIG d   1      -1.049  79.654 112.021  0.00  0.00     0.028 C 
ATOM     12  C   LIG d   1      -0.558  79.767 113.473  0.00  0.00     0.006 C 
ENDBRANCH   8  11
ENDBRANCH   7   8
ENDBRANCH   1   7
BRANCH   6  13
ATOM     13  N   LIG d   1       2.843  81.456 110.303  0.00  0.00    -0.311 N 
ATOM     14  C   LIG d   1       3.536  80.886 109.319  0.00  0.00     0.210 C 
ATOM     15  C   LIG d   1       4.421  79.711 109.747  0.00  0.00     0.109 C 
ATOM     16  O   LIG d   1       3.525  81.262 108.137  0.00  0.00    -0.276 OA
ATOM     17  H   LIG d   1       2.936  81.107 111.237  0.00  0.00     0.149 HD
ENDBRANCH   6  13
BRANCH   5  18
ATOM     18  N   LIG d   1       3.685  84.255 109.416  0.00  0.00     0.381 N 
ATOM     19  H   LIG d   1       4.011  83.406 109.001  0.00  0.00    -0.090 HD
ATOM     20  H   LIG d   1       4.446  84.671 109.924  0.00  0.00    -0.090 HD
ATOM     21  H   LIG d   1       3.369  84.880 108.707  0.00  0.00    -0.090 HD
ENDBRANCH   5  18
BRANCH   3  22
ATOM     22  C   LIG d   1      -0.323  85.938 111.428  0.00  0.00     0.382 C 
ATOM     23  O   LIG d   1       0.144  87.093 111.279  0.00  0.00    -0.241 OA
ATOM     24  O   LIG d   1      -1.399  85.785 112.036  0.00  0.00    -0.241 OA
ENDBRANCH   3  22
TORSDOF 7
ENDMDL
MODEL 9
REMARK VINA RESULT:      -5.7      2.615      3.830
REMARK  7 active torsions:
REMARK  status: ('A' for Active; 'I' for Inactive)
REMARK    1  A    between atoms: C_2  and  C_3 
REMARK    2  A    between atoms: C_3  and  O_6 
REMARK    3  A    between atoms: C_3  and  C_4 
REMARK    4  A    between atoms: C_7  and  O_6 
REMARK    5  A    between atoms: C_9  and  C_10 
REMARK    6  A    between atoms: N_15  and  C_14 
REMARK    7  A    between atoms: N_20  and  C_19 
REMARK       I    between atoms: C_22  and  N_20 
ROOT
ATOM      1  C   LIG d   1       2.011  85.344 111.351  0.00  0.00     0.161 C 
ATOM      2  C   LIG d   1       2.505  86.590 111.773  0.00  0.00     0.016 C 
ATOM      3  C   LIG d   1       3.143  86.793 113.018  0.00  0.00     0.038 C 
ATOM      4  C   LIG d   1       3.467  85.725 113.868  0.00  0.00     0.028 C 
ATOM      5  C   LIG d   1       2.540  84.524 113.713  0.00  0.00    -0.047 C 
ATOM      6  C   LIG d   1       2.455  84.146 112.217  0.00  0.00     0.091 C 
ENDROOT
BRANCH   1   7
ATOM      7  O   LIG d   1       2.361  85.121 109.971  0.00  0.00    -0.368 OA
BRANCH   7   8
ATOM      8  C   LIG d   1       1.274  85.206 109.016  0.00  0.00     0.119 C 
BRANCH   8   9
ATOM      9  C   LIG d   1      -0.026  84.845 109.761  0.00  0.00     0.028 C 
ATOM     10  C   LIG d   1      -0.918  86.072 110.015  0.00  0.00     0.006 C 
ENDBRANCH   8   9
BRANCH   8  11
ATOM     11  C   LIG d   1       1.416  84.153 107.914  0.00  0.00     0.028 C 
ATOM     12  C   LIG d   1       2.158  82.892 108.387  0.00  0.00     0.006 C 
ENDBRANCH   8  11
ENDBRANCH   7   8
ENDBRANCH   1   7
BRANCH   6  13
ATOM     13  N   LIG d   1       1.502  83.033 111.967  0.00  0.00    -0.311 N 
ATOM     14  C   LIG d   1       1.874  81.759 111.858  0.00  0.00     0.210 C 
ATOM     15  C   LIG d   1       0.735  80.773 111.580  0.00  0.00     0.109 C 
ATOM     16  O   LIG d   1       3.036  81.348 111.998  0.00  0.00    -0.276 OA
ATOM     17  H   LIG d   1       0.534  83.274 111.872  0.00  0.00     0.149 HD
ENDBRANCH   6  13
BRANCH   5  18
ATOM     18  N   LIG d   1       3.074  83.437 114.555  0.00  0.00     0.381 N 
ATOM     19  H   LIG d   1       3.319  83.796 115.456  0.00  0.00    -0.090 HD
ATOM     20  H   LIG d   1       3.905  83.071 114.125  0.00  0.00    -0.090 HD
ATOM     21  H   LIG d   1       2.394  82.715 114.650  0.00  0.00    -0.090 HD
ENDBRANCH   5  18
BRANCH   3  22
ATOM     22  C   LIG d   1       3.427  88.082 113.442  0.00  0.00     0.382 C 
ATOM     23  O   LIG d   1       4.246  88.269 114.374  0.00  0.00    -0.241 OA
ATOM     24  O   LIG d   1       2.842  89.058 112.935  0.00  0.00    -0.241 OA
ENDBRANCH   3  22
TORSDOF 7
ENDMDL
