MODEL 1
REMARK VINA RESULT:      -6.4      0.000      0.000
REMARK  7 active torsions:
REMARK  status: ('A' for Active; 'I' for Inactive)
REMARK    1  A    between atoms: C_2  and  C_3 
REMARK    2  A    between atoms: C_3  and  O_6 
REMARK    3  A    between atoms: C_3  and  C_4 
REMARK    4  A    between atoms: C_7  and  O_6 
REMARK    5  A    between atoms: C_9  and  C_10 
REMARK    6  A    between atoms: N_15  and  C_14 
REMARK    7  A    between atoms: N_20  and  C_19 
REMARK       I    between atoms: C_22  and  N_20 
ROOT
ATOM      1  C   LIG d   1       1.279  81.197 111.885  0.00  0.00     0.161 C 
ATOM      2  C   LIG d   1       2.441  81.707 111.282  0.00  0.00     0.016 C 
ATOM      3  C   LIG d   1       2.687  81.646 109.891  0.00  0.00     0.038 C 
ATOM      4  C   LIG d   1       1.712  81.203 108.985  0.00  0.00     0.028 C 
ATOM      5  C   LIG d   1       0.725  80.212 109.594  0.00  0.00    -0.047 C 
ATOM      6  C   LIG d   1       0.156  80.810 110.901  0.00  0.00     0.091 C 
ENDROOT
BRANCH   1   7
ATOM      7  O   LIG d   1       0.787  82.133 112.865  0.00  0.00    -0.368 OA
BRANCH   7   8
ATOM      8  C   LIG d   1       1.102  83.527 112.630  0.00  0.00     0.119 C 
BRANCH   8   9
ATOM      9  C   LIG d   1       1.390  84.174 113.999  0.00  0.00     0.028 C 
ATOM     10  C   LIG d   1       1.241  85.704 113.968  0.00  0.00     0.006 C 
ENDBRANCH   8   9
BRANCH   8  11
ATOM     11  C   LIG d   1      -0.105  84.285 112.070  0.00  0.00     0.028 C 
ATOM     12  C   LIG d   1       0.013  84.563 110.563  0.00  0.00     0.006 C 
ENDBRANCH   8  11
ENDBRANCH   7   8
ENDBRANCH   1   7
BRANCH   6  13
ATOM     13  N   LIG d   1      -0.755  79.870 111.605  0.00  0.00    -0.311 N 
ATOM     14  C   LIG d   1      -1.885  80.251 112.197  0.00  0.00     0.210 C 
ATOM     15  C   LIG d   1      -2.666  79.125 112.883  0.00  0.00     0.109 C 
ATOM     16  O   LIG d   1      -2.332  81.408 112.193  0.00  0.00    -0.276 OA
ATOM     17  H   LIG d   1      -0.485  78.906 111.630  0.00  0.00     0.149 HD
ENDBRANCH   6  13
BRANCH   5  18
ATOM     18  N   LIG d   1      -0.314  79.940 108.582  0.00  0.00     0.381 N 
ATOM     19  H   LIG d   1      -0.060  79.137 108.043  0.00  0.00    -0.090 HD
ATOM     20  H   LIG d   1      -0.380  80.728 107.963  0.00  0.00    -0.090 HD
ATOM     21  H   LIG d   1      -1.192  79.785 109.028  0.00  0.00    -0.090 HD
ENDBRANCH   5  18
BRANCH   3  22
ATOM     22  C   LIG d   1       3.935  81.995 109.397  0.00  0.00     0.382 C 
ATOM     23  O   LIG d   1       4.457  83.087 109.727  0.00  0.00    -0.241 OA
ATOM     24  O   LIG d   1       4.526  81.251 108.592  0.00  0.00    -0.241 OA
ENDBRANCH   3  22
TORSDOF 7
ENDMDL
MODEL 2
REMARK VINA RESULT:      -6.2      2.344      4.443
REMARK  7 active torsions:
REMARK  status: ('A' for Active; 'I' for Inactive)
REMARK    1  A    between atoms: C_2  and  C_3 
REMARK    2  A    between atoms: C_3  and  O_6 
REMARK    3  A    between atoms: C_3  and  C_4 
REMARK    4  A    between atoms: C_7  and  O_6 
REMARK    5  A    between atoms: C_9  and  C_10 
REMARK    6  A    between atoms: N_15  and  C_14 
REMARK    7  A    between atoms: N_20  and  C_19 
REMARK       I    between atoms: C_22  and  N_20 
ROOT
ATOM      1  C   LIG d   1       0.795  83.440 110.054  0.00  0.00     0.161 C 
ATOM      2  C   LIG d   1       1.653  84.550 109.981  0.00  0.00     0.016 C 
ATOM      3  C   LIG d   1       2.221  85.171 111.118  0.00  0.00     0.038 C 
ATOM      4  C   LIG d   1       2.087  84.627 112.404  0.00  0.00     0.028 C 
ATOM      5  C   LIG d   1       0.818  83.801 112.584  0.00  0.00    -0.047 C 
ATOM      6  C   LIG d   1       0.727  82.765 111.440  0.00  0.00     0.091 C 
ENDROOT
BRANCH   1   7
ATOM      7  O   LIG d   1       1.156  82.477 109.044  0.00  0.00    -0.368 OA
BRANCH   7   8
ATOM      8  C   LIG d   1       2.240  81.577 109.380  0.00  0.00     0.119 C 
BRANCH   8   9
ATOM      9  C   LIG d   1       3.397  81.860 108.403  0.00  0.00     0.028 C 
ATOM     10  C   LIG d   1       4.598  82.530 109.093  0.00  0.00     0.006 C 
ENDBRANCH   8   9
BRANCH   8  11
ATOM     11  C   LIG d   1       1.849  80.117 109.133  0.00  0.00     0.028 C 
ATOM     12  C   LIG d   1       0.398  79.962 108.652  0.00  0.00     0.006 C 
ENDBRANCH   8  11
ENDBRANCH   7   8
ENDBRANCH   1   7
BRANCH   6  13
ATOM     13  N   LIG d   1      -0.528  81.971 111.492  0.00  0.00    -0.311 N 
ATOM     14  C   LIG d   1      -0.680  80.889 112.254  0.00  0.00     0.210 C 
ATOM     15  C   LIG d   1      -2.047  80.208 112.144  0.00  0.00     0.109 C 
ATOM     16  O   LIG d   1       0.177  80.448 113.035  0.00  0.00    -0.276 OA
ATOM     17  H   LIG d   1      -1.285  82.277 110.913  0.00  0.00     0.149 HD
ENDBRANCH   6  13
BRANCH   5  18
ATOM     18  N   LIG d   1       0.875  83.182 113.921  0.00  0.00     0.381 N 
ATOM     19  H   LIG d   1       0.672  83.867 114.621  0.00  0.00    -0.090 HD
ATOM     20  H   LIG d   1       1.805  82.835 114.080  0.00  0.00    -0.090 HD
ATOM     21  H   LIG d   1       0.219  82.434 113.979  0.00  0.00    -0.090 HD
ENDBRANCH   5  18
BRANCH   3  22
ATOM     22  C   LIG d   1       2.898  86.373 110.978  0.00  0.00     0.382 C 
ATOM     23  O   LIG d   1       4.152  86.395 111.024  0.00  0.00    -0.241 OA
ATOM     24  O   LIG d   1       2.270  87.441 110.852  0.00  0.00    -0.241 OA
ENDBRANCH   3  22
TORSDOF 7
ENDMDL
MODEL 3
REMARK VINA RESULT:      -5.7      1.806      2.106
REMARK  7 active torsions:
REMARK  status: ('A' for Active; 'I' for Inactive)
REMARK    1  A    between atoms: C_2  and  C_3 
REMARK    2  A    between atoms: C_3  and  O_6 
REMARK    3  A    between atoms: C_3  and  C_4 
REMARK    4  A    between atoms: C_7  and  O_6 
REMARK    5  A    between atoms: C_9  and  C_10 
REMARK    6  A    between atoms: N_15  and  C_14 
REMARK    7  A    between atoms: N_20  and  C_19 
REMARK       I    between atoms: C_22  and  N_20 
ROOT
ATOM      1  C   LIG d   1       1.319  82.552 110.879  0.00  0.00     0.161 C 
ATOM      2  C   LIG d   1       2.624  82.402 110.381  0.00  0.00     0.016 C 
ATOM      3  C   LIG d   1       2.961  81.508 109.339  0.00  0.00     0.038 C 
ATOM      4  C   LIG d   1       1.982  80.808 108.616  0.00  0.00     0.028 C 
ATOM      5  C   LIG d   1       0.710  80.548 109.416  0.00  0.00    -0.047 C 
ATOM      6  C   LIG d   1       0.221  81.880 110.029  0.00  0.00     0.091 C 
ENDROOT
BRANCH   1   7
ATOM      7  O   LIG d   1       1.024  83.951 111.062  0.00  0.00    -0.368 OA
BRANCH   7   8
ATOM      8  C   LIG d   1       1.704  84.868 110.170  0.00  0.00     0.119 C 
BRANCH   8   9
ATOM      9  C   LIG d   1       2.136  86.090 111.003  0.00  0.00     0.028 C 
ATOM     10  C   LIG d   1       3.656  86.137 111.232  0.00  0.00     0.006 C 
ENDBRANCH   8   9
BRANCH   8  11
ATOM     11  C   LIG d   1       0.751  85.419 109.105  0.00  0.00     0.028 C 
ATOM     12  C   LIG d   1      -0.631  85.780 109.672  0.00  0.00     0.006 C 
ENDBRANCH   8  11
ENDBRANCH   7   8
ENDBRANCH   1   7
BRANCH   6  13
ATOM     13  N   LIG d   1      -0.973  81.700 110.896  0.00  0.00    -0.311 N 
ATOM     14  C   LIG d   1      -0.992  80.897 111.959  0.00  0.00     0.210 C 
ATOM     15  C   LIG d   1      -2.330  80.842 112.703  0.00  0.00     0.109 C 
ATOM     16  O   LIG d   1      -0.020  80.249 112.374  0.00  0.00    -0.276 OA
ATOM     17  H   LIG d   1      -1.797  82.212 110.650  0.00  0.00     0.149 HD
ENDBRANCH   6  13
BRANCH   5  18
ATOM     18  N   LIG d   1      -0.273  79.936 108.502  0.00  0.00     0.381 N 
ATOM     19  H   LIG d   1       0.203  79.441 107.774  0.00  0.00    -0.090 HD
ATOM     20  H   LIG d   1      -0.823  80.664 108.081  0.00  0.00    -0.090 HD
ATOM     21  H   LIG d   1      -0.864  79.312 109.006  0.00  0.00    -0.090 HD
ENDBRANCH   5  18
BRANCH   3  22
ATOM     22  C   LIG d   1       4.294  81.276 109.036  0.00  0.00     0.382 C 
ATOM     23  O   LIG d   1       4.728  80.101 108.978  0.00  0.00    -0.241 OA
ATOM     24  O   LIG d   1       5.078  82.229 108.864  0.00  0.00    -0.241 OA
ENDBRANCH   3  22
TORSDOF 7
ENDMDL
MODEL 4
REMARK VINA RESULT:      -5.6      2.475      5.811
REMARK  7 active torsions:
REMARK  status: ('A' for Active; 'I' for Inactive)
REMARK    1  A    between atoms: C_2  and  C_3 
REMARK    2  A    between atoms: C_3  and  O_6 
REMARK    3  A    between atoms: C_3  and  C_4 
REMARK    4  A    between atoms: C_7  and  O_6 
REMARK    5  A    between atoms: C_9  and  C_10 
REMARK    6  A    between atoms: N_15  and  C_14 
REMARK    7  A    between atoms: N_20  and  C_19 
REMARK       I    between atoms: C_22  and  N_20 
ROOT
ATOM      1  C   LIG d   1       1.934  81.941 111.621  0.00  0.00     0.161 C 
ATOM      2  C   LIG d   1       0.906  81.012 111.858  0.00  0.00     0.016 C 
ATOM      3  C   LIG d   1      -0.447  81.379 112.038  0.00  0.00     0.038 C 
ATOM      4  C   LIG d   1      -0.892  82.695 111.841  0.00  0.00     0.028 C 
ATOM      5  C   LIG d   1       0.186  83.743 112.098  0.00  0.00    -0.047 C 
ATOM      6  C   LIG d   1       1.451  83.369 111.293  0.00  0.00     0.091 C 
ENDROOT
BRANCH   1   7
ATOM      7  O   LIG d   1       2.802  81.453 110.579  0.00  0.00    -0.368 OA
BRANCH   7   8
ATOM      8  C   LIG d   1       2.308  81.587 109.223  0.00  0.00     0.119 C 
BRANCH   8   9
ATOM      9  C   LIG d   1       2.023  80.169 108.692  0.00  0.00     0.028 C 
ATOM     10  C   LIG d   1       0.524  79.924 108.447  0.00  0.00     0.006 C 
ENDBRANCH   8   9
BRANCH   8  11
ATOM     11  C   LIG d   1       3.381  82.160 108.293  0.00  0.00     0.028 C 
ATOM     12  C   LIG d   1       4.658  82.574 109.041  0.00  0.00     0.006 C 
ENDBRANCH   8  11
ENDBRANCH   7   8
ENDBRANCH   1   7
BRANCH   6  13
ATOM     13  N   LIG d   1       2.583  84.297 111.552  0.00  0.00    -0.311 N 
ATOM     14  C   LIG d   1       2.818  85.388 110.826  0.00  0.00     0.210 C 
ATOM     15  C   LIG d   1       4.049  86.195 111.251  0.00  0.00     0.109 C 
ATOM     16  O   LIG d   1       2.105  85.783 109.891  0.00  0.00    -0.276 OA
ATOM     17  H   LIG d   1       3.194  84.069 112.312  0.00  0.00     0.149 HD
ENDBRANCH   6  13
BRANCH   5  18
ATOM     18  N   LIG d   1      -0.371  85.056 111.723  0.00  0.00     0.381 N 
ATOM     19  H   LIG d   1       0.200  85.478 111.019  0.00  0.00    -0.090 HD
ATOM     20  H   LIG d   1      -0.368  85.653 112.532  0.00  0.00    -0.090 HD
ATOM     21  H   LIG d   1      -1.302  84.948 111.385  0.00  0.00    -0.090 HD
ENDBRANCH   5  18
BRANCH   3  22
ATOM     22  C   LIG d   1      -1.366  80.429 112.458  0.00  0.00     0.382 C 
ATOM     23  O   LIG d   1      -0.969  79.322 112.894  0.00  0.00    -0.241 OA
ATOM     24  O   LIG d   1      -2.589  80.649 112.365  0.00  0.00    -0.241 OA
ENDBRANCH   3  22
TORSDOF 7
ENDMDL
MODEL 5
REMARK VINA RESULT:      -5.0      2.308      4.483
REMARK  7 active torsions:
REMARK  status: ('A' for Active; 'I' for Inactive)
REMARK    1  A    between atoms: C_2  and  C_3 
REMARK    2  A    between atoms: C_3  and  O_6 
REMARK    3  A    between atoms: C_3  and  C_4 
REMARK    4  A    between atoms: C_7  and  O_6 
REMARK    5  A    between atoms: C_9  and  C_10 
REMARK    6  A    between atoms: N_15  and  C_14 
REMARK    7  A    between atoms: N_20  and  C_19 
REMARK       I    between atoms: C_22  and  N_20 
ROOT
ATOM      1  C   LIG d   1       1.000  82.642 109.307  0.00  0.00     0.161 C 
ATOM      2  C   LIG d   1       1.308  84.004 109.458  0.00  0.00     0.016 C 
ATOM      3  C   LIG d   1       0.853  84.789 110.543  0.00  0.00     0.038 C 
ATOM      4  C   LIG d   1       0.180  84.224 111.636  0.00  0.00     0.028 C 
ATOM      5  C   LIG d   1      -0.588  82.954 111.285  0.00  0.00    -0.047 C 
ATOM      6  C   LIG d   1       0.360  81.982 110.547  0.00  0.00     0.091 C 
ENDROOT
BRANCH   1   7
ATOM      7  O   LIG d   1       2.179  81.916 108.905  0.00  0.00    -0.368 OA
BRANCH   7   8
ATOM      8  C   LIG d   1       3.448  82.557 109.185  0.00  0.00     0.119 C 
BRANCH   8   9
ATOM      9  C   LIG d   1       4.535  81.791 108.406  0.00  0.00     0.028 C 
ATOM     10  C   LIG d   1       4.503  80.279 108.688  0.00  0.00     0.006 C 
ENDBRANCH   8   9
BRANCH   8  11
ATOM     11  C   LIG d   1       3.830  82.416 110.661  0.00  0.00     0.028 C 
ATOM     12  C   LIG d   1       4.215  83.757 111.307  0.00  0.00     0.006 C 
ENDBRANCH   8  11
ENDBRANCH   7   8
ENDBRANCH   1   7
BRANCH   6  13
ATOM     13  N   LIG d   1      -0.333  80.749 110.092  0.00  0.00    -0.311 N 
ATOM     14  C   LIG d   1      -0.635  79.736 110.903  0.00  0.00     0.210 C 
ATOM     15  C   LIG d   1      -1.333  78.552 110.227  0.00  0.00     0.109 C 
ATOM     16  O   LIG d   1      -0.421  79.720 112.125  0.00  0.00    -0.276 OA
ATOM     17  H   LIG d   1      -0.573  80.691 109.122  0.00  0.00     0.149 HD
ENDBRANCH   6  13
BRANCH   5  18
ATOM     18  N   LIG d   1      -1.126  82.396 112.540  0.00  0.00     0.381 N 
ATOM     19  H   LIG d   1      -1.047  81.399 112.528  0.00  0.00    -0.090 HD
ATOM     20  H   LIG d   1      -2.099  82.635 112.611  0.00  0.00    -0.090 HD
ATOM     21  H   LIG d   1      -0.628  82.767 113.319  0.00  0.00    -0.090 HD
ENDBRANCH   5  18
BRANCH   3  22
ATOM     22  C   LIG d   1       1.036  86.163 110.521  0.00  0.00     0.382 C 
ATOM     23  O   LIG d   1       2.154  86.642 110.213  0.00  0.00    -0.241 OA
ATOM     24  O   LIG d   1       0.110  86.929 110.848  0.00  0.00    -0.241 OA
ENDBRANCH   3  22
TORSDOF 7
ENDMDL
MODEL 6
REMARK VINA RESULT:      -4.9      2.473      5.272
REMARK  7 active torsions:
REMARK  status: ('A' for Active; 'I' for Inactive)
REMARK    1  A    between atoms: C_2  and  C_3 
REMARK    2  A    between atoms: C_3  and  O_6 
REMARK    3  A    between atoms: C_3  and  C_4 
REMARK    4  A    between atoms: C_7  and  O_6 
REMARK    5  A    between atoms: C_9  and  C_10 
REMARK    6  A    between atoms: N_15  and  C_14 
REMARK    7  A    between atoms: N_20  and  C_19 
REMARK       I    between atoms: C_22  and  N_20 
ROOT
ATOM      1  C   LIG d   1      -0.033  80.356 110.934  0.00  0.00     0.161 C 
ATOM      2  C   LIG d   1      -0.746  79.281 110.379  0.00  0.00     0.016 C 
ATOM      3  C   LIG d   1      -1.587  78.431 111.135  0.00  0.00     0.038 C 
ATOM      4  C   LIG d   1      -1.890  78.694 112.479  0.00  0.00     0.028 C 
ATOM      5  C   LIG d   1      -0.798  79.472 113.206  0.00  0.00    -0.047 C 
ATOM      6  C   LIG d   1      -0.438  80.726 112.376  0.00  0.00     0.091 C 
ENDROOT
BRANCH   1   7
ATOM      7  O   LIG d   1      -0.137  81.508 110.073  0.00  0.00    -0.368 OA
BRANCH   7   8
ATOM      8  C   LIG d   1       1.045  81.838 109.304  0.00  0.00     0.119 C 
BRANCH   8   9
ATOM      9  C   LIG d   1       2.222  81.040 109.898  0.00  0.00     0.028 C 
ATOM     10  C   LIG d   1       2.805  80.024 108.902  0.00  0.00     0.006 C 
ENDBRANCH   8   9
BRANCH   8  11
ATOM     11  C   LIG d   1       1.427  83.311 109.473  0.00  0.00     0.028 C 
ATOM     12  C   LIG d   1       2.903  83.503 109.857  0.00  0.00     0.006 C 
ENDBRANCH   8  11
ENDBRANCH   7   8
ENDBRANCH   1   7
BRANCH   6  13
ATOM     13  N   LIG d   1       0.681  81.499 112.974  0.00  0.00    -0.311 N 
ATOM     14  C   LIG d   1       0.700  82.829 113.042  0.00  0.00     0.210 C 
ATOM     15  C   LIG d   1       1.958  83.427 113.679  0.00  0.00     0.109 C 
ATOM     16  O   LIG d   1      -0.221  83.569 112.664  0.00  0.00    -0.276 OA
ATOM     17  H   LIG d   1       1.456  80.976 113.333  0.00  0.00     0.149 HD
ENDBRANCH   6  13
BRANCH   5  18
ATOM     18  N   LIG d   1      -1.303  79.796 114.553  0.00  0.00     0.381 N 
ATOM     19  H   LIG d   1      -2.246  80.126 114.491  0.00  0.00    -0.090 HD
ATOM     20  H   LIG d   1      -0.738  80.528 114.945  0.00  0.00    -0.090 HD
ATOM     21  H   LIG d   1      -1.264  78.989 115.135  0.00  0.00    -0.090 HD
ENDBRANCH   5  18
BRANCH   3  22
ATOM     22  C   LIG d   1      -2.101  77.282 110.556  0.00  0.00     0.382 C 
ATOM     23  O   LIG d   1      -3.297  77.251 110.178  0.00  0.00    -0.241 OA
ATOM     24  O   LIG d   1      -1.398  76.259 110.448  0.00  0.00    -0.241 OA
ENDBRANCH   3  22
TORSDOF 7
ENDMDL
MODEL 7
REMARK VINA RESULT:      -4.4      2.438      5.056
REMARK  7 active torsions:
REMARK  status: ('A' for Active; 'I' for Inactive)
REMARK    1  A    between atoms: C_2  and  C_3 
REMARK    2  A    between atoms: C_3  and  O_6 
REMARK    3  A    between atoms: C_3  and  C_4 
REMARK    4  A    between atoms: C_7  and  O_6 
REMARK    5  A    between atoms: C_9  and  C_10 
REMARK    6  A    between atoms: N_15  and  C_14 
REMARK    7  A    between atoms: N_20  and  C_19 
REMARK       I    between atoms: C_22  and  N_20 
ROOT
ATOM      1  C   LIG d   1       0.221  83.038 111.474  0.00  0.00     0.161 C 
ATOM      2  C   LIG d   1      -0.907  82.212 111.600  0.00  0.00     0.016 C 
ATOM      3  C   LIG d   1      -0.937  81.053 112.409  0.00  0.00     0.038 C 
ATOM      4  C   LIG d   1       0.120  80.724 113.271  0.00  0.00     0.028 C 
ATOM      5  C   LIG d   1       1.472  81.248 112.800  0.00  0.00    -0.047 C 
ATOM      6  C   LIG d   1       1.346  82.757 112.492  0.00  0.00     0.091 C 
ENDROOT
BRANCH   1   7
ATOM      7  O   LIG d   1      -0.177  84.422 111.536  0.00  0.00    -0.368 OA
BRANCH   7   8
ATOM      8  C   LIG d   1       0.571  85.339 110.699  0.00  0.00     0.119 C 
BRANCH   8   9
ATOM      9  C   LIG d   1       0.482  86.734 111.347  0.00  0.00     0.028 C 
ATOM     10  C   LIG d   1       1.852  87.427 111.439  0.00  0.00     0.006 C 
ENDBRANCH   8   9
BRANCH   8  11
ATOM     11  C   LIG d   1      -0.079  85.490 109.320  0.00  0.00     0.028 C 
ATOM     12  C   LIG d   1       0.898  85.206 108.168  0.00  0.00     0.006 C 
ENDBRANCH   8  11
ENDBRANCH   7   8
ENDBRANCH   1   7
BRANCH   6  13
ATOM     13  N   LIG d   1       2.603  83.331 111.944  0.00  0.00    -0.311 N 
ATOM     14  C   LIG d   1       3.181  82.895 110.827  0.00  0.00     0.210 C 
ATOM     15  C   LIG d   1       4.482  83.612 110.450  0.00  0.00     0.109 C 
ATOM     16  O   LIG d   1       2.724  82.005 110.094  0.00  0.00    -0.276 OA
ATOM     17  H   LIG d   1       3.025  84.079 112.459  0.00  0.00     0.149 HD
ENDBRANCH   6  13
BRANCH   5  18
ATOM     18  N   LIG d   1       2.458  80.953 113.857  0.00  0.00     0.381 N 
ATOM     19  H   LIG d   1       2.340  80.013 114.178  0.00  0.00    -0.090 HD
ATOM     20  H   LIG d   1       2.298  81.573 114.632  0.00  0.00    -0.090 HD
ATOM     21  H   LIG d   1       3.382  81.079 113.506  0.00  0.00    -0.090 HD
ENDBRANCH   5  18
BRANCH   3  22
ATOM     22  C   LIG d   1      -2.017  80.187 112.331  0.00  0.00     0.382 C 
ATOM     23  O   LIG d   1      -2.952  80.275 113.163  0.00  0.00    -0.241 OA
ATOM     24  O   LIG d   1      -2.047  79.291 111.467  0.00  0.00    -0.241 OA
ENDBRANCH   3  22
TORSDOF 7
ENDMDL
MODEL 8
REMARK VINA RESULT:      -3.8     27.861     30.110
REMARK  7 active torsions:
REMARK  status: ('A' for Active; 'I' for Inactive)
REMARK    1  A    between atoms: C_2  and  C_3 
REMARK    2  A    between atoms: C_3  and  O_6 
REMARK    3  A    between atoms: C_3  and  C_4 
REMARK    4  A    between atoms: C_7  and  O_6 
REMARK    5  A    between atoms: C_9  and  C_10 
REMARK    6  A    between atoms: N_15  and  C_14 
REMARK    7  A    between atoms: N_20  and  C_19 
REMARK       I    between atoms: C_22  and  N_20 
ROOT
ATOM      1  C   LIG d   1     -26.012  67.079 110.320  0.00  0.00     0.161 C 
ATOM      2  C   LIG d   1     -25.290  67.724 111.339  0.00  0.00     0.016 C 
ATOM      3  C   LIG d   1     -23.878  67.777 111.378  0.00  0.00     0.038 C 
ATOM      4  C   LIG d   1     -23.089  67.315 110.315  0.00  0.00     0.028 C 
ATOM      5  C   LIG d   1     -23.753  66.207 109.504  0.00  0.00    -0.047 C 
ATOM      6  C   LIG d   1     -25.170  66.667 109.094  0.00  0.00     0.091 C 
ENDROOT
BRANCH   1   7
ATOM      7  O   LIG d   1     -27.122  67.902 109.911  0.00  0.00    -0.368 OA
BRANCH   7   8
ATOM      8  C   LIG d   1     -26.804  69.269 109.550  0.00  0.00     0.119 C 
BRANCH   8   9
ATOM      9  C   LIG d   1     -27.665  70.193 110.433  0.00  0.00     0.028 C 
ATOM     10  C   LIG d   1     -26.814  71.107 111.331  0.00  0.00     0.006 C 
ENDBRANCH   8   9
BRANCH   8  11
ATOM     11  C   LIG d   1     -27.223  69.577 108.110  0.00  0.00     0.028 C 
ATOM     12  C   LIG d   1     -28.420  70.538 108.030  0.00  0.00     0.006 C 
ENDBRANCH   8  11
ENDBRANCH   7   8
ENDBRANCH   1   7
BRANCH   6  13
ATOM     13  N   LIG d   1     -25.921  65.609 108.369  0.00  0.00    -0.311 N 
ATOM     14  C   LIG d   1     -25.871  65.449 107.047  0.00  0.00     0.210 C 
ATOM     15  C   LIG d   1     -26.738  64.310 106.501  0.00  0.00     0.109 C 
ATOM     16  O   LIG d   1     -25.167  66.122 106.280  0.00  0.00    -0.276 OA
ATOM     17  H   LIG d   1     -26.494  64.998 108.918  0.00  0.00     0.149 HD
ENDBRANCH   6  13
BRANCH   5  18
ATOM     18  N   LIG d   1     -22.882  65.917 108.349  0.00  0.00     0.381 N 
ATOM     19  H   LIG d   1     -22.227  66.663 108.223  0.00  0.00    -0.090 HD
ATOM     20  H   LIG d   1     -23.449  65.854 107.522  0.00  0.00    -0.090 HD
ATOM     21  H   LIG d   1     -22.397  65.060 108.495  0.00  0.00    -0.090 HD
ENDBRANCH   5  18
BRANCH   3  22
ATOM     22  C   LIG d   1     -23.240  68.261 112.511  0.00  0.00     0.382 C 
ATOM     23  O   LIG d   1     -22.950  69.478 112.595  0.00  0.00    -0.241 OA
ATOM     24  O   LIG d   1     -22.911  67.487 113.430  0.00  0.00    -0.241 OA
ENDBRANCH   3  22
TORSDOF 7
ENDMDL
MODEL 9
REMARK VINA RESULT:      -3.8     26.862     30.523
REMARK  7 active torsions:
REMARK  status: ('A' for Active; 'I' for Inactive)
REMARK    1  A    between atoms: C_2  and  C_3 
REMARK    2  A    between atoms: C_3  and  O_6 
REMARK    3  A    between atoms: C_3  and  C_4 
REMARK    4  A    between atoms: C_7  and  O_6 
REMARK    5  A    between atoms: C_9  and  C_10 
REMARK    6  A    between atoms: N_15  and  C_14 
REMARK    7  A    between atoms: N_20  and  C_19 
REMARK       I    between atoms: C_22  and  N_20 
ROOT
ATOM      1  C   LIG d   1     -15.261  57.059 111.478  0.00  0.00     0.161 C 
ATOM      2  C   LIG d   1     -16.301  56.285 110.936  0.00  0.00     0.016 C 
ATOM      3  C   LIG d   1     -16.085  55.191 110.067  0.00  0.00     0.038 C 
ATOM      4  C   LIG d   1     -14.798  54.700 109.798  0.00  0.00     0.028 C 
ATOM      5  C   LIG d   1     -13.708  55.760 109.919  0.00  0.00    -0.047 C 
ATOM      6  C   LIG d   1     -13.848  56.470 111.285  0.00  0.00     0.091 C 
ENDROOT
BRANCH   1   7
ATOM      7  O   LIG d   1     -15.514  57.307 112.875  0.00  0.00    -0.368 OA
BRANCH   7   8
ATOM      8  C   LIG d   1     -16.898  57.235 113.295  0.00  0.00     0.119 C 
BRANCH   8   9
ATOM      9  C   LIG d   1     -17.324  58.650 113.733  0.00  0.00     0.028 C 
ATOM     10  C   LIG d   1     -18.229  59.338 112.698  0.00  0.00     0.006 C 
ENDBRANCH   8   9
BRANCH   8  11
ATOM     11  C   LIG d   1     -17.058  56.359 114.541  0.00  0.00     0.028 C 
ATOM     12  C   LIG d   1     -16.410  54.975 114.383  0.00  0.00     0.006 C 
ENDBRANCH   8  11
ENDBRANCH   7   8
ENDBRANCH   1   7
BRANCH   6  13
ATOM     13  N   LIG d   1     -12.872  57.579 111.449  0.00  0.00    -0.311 N 
ATOM     14  C   LIG d   1     -11.656  57.414 111.966  0.00  0.00     0.210 C 
ATOM     15  C   LIG d   1     -10.817  58.692 112.065  0.00  0.00     0.109 C 
ATOM     16  O   LIG d   1     -11.180  56.325 112.322  0.00  0.00    -0.276 OA
ATOM     17  H   LIG d   1     -13.165  58.491 111.157  0.00  0.00     0.149 HD
ENDBRANCH   6  13
BRANCH   5  18
ATOM     18  N   LIG d   1     -12.408  55.083 109.749  0.00  0.00     0.381 N 
ATOM     19  H   LIG d   1     -12.504  54.109 109.958  0.00  0.00    -0.090 HD
ATOM     20  H   LIG d   1     -11.748  55.481 110.394  0.00  0.00    -0.090 HD
ATOM     21  H   LIG d   1     -12.083  55.200 108.815  0.00  0.00    -0.090 HD
ENDBRANCH   5  18
BRANCH   3  22
ATOM     22  C   LIG d   1     -17.162  54.601 109.424  0.00  0.00     0.382 C 
ATOM     23  O   LIG d   1     -18.291  54.593 109.971  0.00  0.00    -0.241 OA
ATOM     24  O   LIG d   1     -17.010  54.037 108.324  0.00  0.00    -0.241 OA
ENDBRANCH   3  22
TORSDOF 7
ENDMDL
