MODEL 1
REMARK VINA RESULT:      -6.1      0.000      0.000
REMARK  7 active torsions:
REMARK  status: ('A' for Active; 'I' for Inactive)
REMARK    1  A    between atoms: C_2  and  C_3 
REMARK    2  A    between atoms: C_3  and  O_6 
REMARK    3  A    between atoms: C_3  and  C_4 
REMARK    4  A    between atoms: C_7  and  O_6 
REMARK    5  A    between atoms: C_9  and  C_10 
REMARK    6  A    between atoms: N_15  and  C_14 
REMARK    7  A    between atoms: N_20  and  C_19 
REMARK       I    between atoms: C_22  and  N_20 
ROOT
ATOM      1  C   LIG d   1       2.186  82.856 111.728  0.00  0.00     0.161 C 
ATOM      2  C   LIG d   1       3.162  82.785 110.720  0.00  0.00     0.016 C 
ATOM      3  C   LIG d   1       3.077  81.905 109.616  0.00  0.00     0.038 C 
ATOM      4  C   LIG d   1       1.929  81.140 109.365  0.00  0.00     0.028 C 
ATOM      5  C   LIG d   1       1.136  80.806 110.623  0.00  0.00    -0.047 C 
ATOM      6  C   LIG d   1       0.874  82.109 111.412  0.00  0.00     0.091 C 
ENDROOT
BRANCH   1   7
ATOM      7  O   LIG d   1       1.914  84.235 112.047  0.00  0.00    -0.368 OA
BRANCH   7   8
ATOM      8  C   LIG d   1       2.190  85.198 111.000  0.00  0.00     0.119 C 
BRANCH   8   9
ATOM      9  C   LIG d   1       2.903  86.398 111.651  0.00  0.00     0.028 C 
ATOM     10  C   LIG d   1       4.406  86.146 111.857  0.00  0.00     0.006 C 
ENDBRANCH   8   9
BRANCH   8  11
ATOM     11  C   LIG d   1       0.895  85.767 110.411  0.00  0.00     0.028 C 
ATOM     12  C   LIG d   1       0.438  85.021 109.147  0.00  0.00     0.006 C 
ENDBRANCH   8  11
ENDBRANCH   7   8
ENDBRANCH   1   7
BRANCH   6  13
ATOM     13  N   LIG d   1       0.176  81.861 112.701  0.00  0.00    -0.311 N 
ATOM     14  C   LIG d   1      -1.144  81.961 112.851  0.00  0.00     0.210 C 
ATOM     15  C   LIG d   1      -1.656  81.683 114.268  0.00  0.00     0.109 C 
ATOM     16  O   LIG d   1      -1.942  82.221 111.938  0.00  0.00    -0.276 OA
ATOM     17  H   LIG d   1       0.744  81.614 113.487  0.00  0.00     0.149 HD
ENDBRANCH   6  13
BRANCH   5  18
ATOM     18  N   LIG d   1      -0.104  80.126 110.202  0.00  0.00     0.381 N 
ATOM     19  H   LIG d   1      -0.369  79.449 110.889  0.00  0.00    -0.090 HD
ATOM     20  H   LIG d   1       0.067  79.646 109.336  0.00  0.00    -0.090 HD
ATOM     21  H   LIG d   1      -0.834  80.792 110.082  0.00  0.00    -0.090 HD
ENDBRANCH   5  18
BRANCH   3  22
ATOM     22  C   LIG d   1       4.166  81.756 108.771  0.00  0.00     0.382 C 
ATOM     23  O   LIG d   1       5.185  82.470 108.930  0.00  0.00    -0.241 OA
ATOM     24  O   LIG d   1       4.126  80.946 107.825  0.00  0.00    -0.241 OA
ENDBRANCH   3  22
TORSDOF 7
ENDMDL
MODEL 2
REMARK VINA RESULT:      -6.1      1.575      5.059
REMARK  7 active torsions:
REMARK  status: ('A' for Active; 'I' for Inactive)
REMARK    1  A    between atoms: C_2  and  C_3 
REMARK    2  A    between atoms: C_3  and  O_6 
REMARK    3  A    between atoms: C_3  and  C_4 
REMARK    4  A    between atoms: C_7  and  O_6 
REMARK    5  A    between atoms: C_9  and  C_10 
REMARK    6  A    between atoms: N_15  and  C_14 
REMARK    7  A    between atoms: N_20  and  C_19 
REMARK       I    between atoms: C_22  and  N_20 
ROOT
ATOM      1  C   LIG d   1       0.347  82.924 111.198  0.00  0.00     0.161 C 
ATOM      2  C   LIG d   1      -0.755  82.707 112.041  0.00  0.00     0.016 C 
ATOM      3  C   LIG d   1      -1.286  81.425 112.315  0.00  0.00     0.038 C 
ATOM      4  C   LIG d   1      -0.652  80.252 111.879  0.00  0.00     0.028 C 
ATOM      5  C   LIG d   1       0.170  80.443 110.609  0.00  0.00    -0.047 C 
ATOM      6  C   LIG d   1       1.120  81.647 110.802  0.00  0.00     0.091 C 
ENDROOT
BRANCH   1   7
ATOM      7  O   LIG d   1       1.240  83.884 111.796  0.00  0.00    -0.368 OA
BRANCH   7   8
ATOM      8  C   LIG d   1       1.106  85.251 111.336  0.00  0.00     0.119 C 
BRANCH   8   9
ATOM      9  C   LIG d   1       0.545  85.205 109.902  0.00  0.00     0.028 C 
ATOM     10  C   LIG d   1      -0.890  85.752 109.815  0.00  0.00     0.006 C 
ENDBRANCH   8   9
BRANCH   8  11
ATOM     11  C   LIG d   1       2.471  85.935 111.215  0.00  0.00     0.028 C 
ATOM     12  C   LIG d   1       3.622  84.935 111.015  0.00  0.00     0.006 C 
ENDBRANCH   8  11
ENDBRANCH   7   8
ENDBRANCH   1   7
BRANCH   6  13
ATOM     13  N   LIG d   1       1.900  81.956 109.576  0.00  0.00    -0.311 N 
ATOM     14  C   LIG d   1       3.142  81.522 109.369  0.00  0.00     0.210 C 
ATOM     15  C   LIG d   1       3.773  81.972 108.048  0.00  0.00     0.109 C 
ATOM     16  O   LIG d   1       3.770  80.780 110.140  0.00  0.00    -0.276 OA
ATOM     17  H   LIG d   1       1.456  82.527 108.884  0.00  0.00     0.149 HD
ENDBRANCH   6  13
BRANCH   5  18
ATOM     18  N   LIG d   1       0.884  79.180 110.346  0.00  0.00     0.381 N 
ATOM     19  H   LIG d   1       1.710  79.363 109.811  0.00  0.00    -0.090 HD
ATOM     20  H   LIG d   1       0.288  78.575 109.808  0.00  0.00    -0.090 HD
ATOM     21  H   LIG d   1       1.127  78.740 111.206  0.00  0.00    -0.090 HD
ENDBRANCH   5  18
BRANCH   3  22
ATOM     22  C   LIG d   1      -2.487  81.311 112.998  0.00  0.00     0.382 C 
ATOM     23  O   LIG d   1      -3.566  81.579 112.419  0.00  0.00    -0.241 OA
ATOM     24  O   LIG d   1      -2.500  80.984 114.200  0.00  0.00    -0.241 OA
ENDBRANCH   3  22
TORSDOF 7
ENDMDL
MODEL 3
REMARK VINA RESULT:      -5.8      2.635      5.529
REMARK  7 active torsions:
REMARK  status: ('A' for Active; 'I' for Inactive)
REMARK    1  A    between atoms: C_2  and  C_3 
REMARK    2  A    between atoms: C_3  and  O_6 
REMARK    3  A    between atoms: C_3  and  C_4 
REMARK    4  A    between atoms: C_7  and  O_6 
REMARK    5  A    between atoms: C_9  and  C_10 
REMARK    6  A    between atoms: N_15  and  C_14 
REMARK    7  A    between atoms: N_20  and  C_19 
REMARK       I    between atoms: C_22  and  N_20 
ROOT
ATOM      1  C   LIG d   1       1.578  83.728 112.121  0.00  0.00     0.161 C 
ATOM      2  C   LIG d   1       0.531  82.793 112.176  0.00  0.00     0.016 C 
ATOM      3  C   LIG d   1      -0.635  82.975 112.955  0.00  0.00     0.038 C 
ATOM      4  C   LIG d   1      -0.904  84.182 113.617  0.00  0.00     0.028 C 
ATOM      5  C   LIG d   1       0.353  84.957 113.998  0.00  0.00    -0.047 C 
ATOM      6  C   LIG d   1       1.253  85.100 112.749  0.00  0.00     0.091 C 
ENDROOT
BRANCH   1   7
ATOM      7  O   LIG d   1       2.015  83.892 110.758  0.00  0.00    -0.368 OA
BRANCH   7   8
ATOM      8  C   LIG d   1       1.020  83.642 109.735  0.00  0.00     0.119 C 
BRANCH   8   9
ATOM      9  C   LIG d   1       1.707  82.849 108.606  0.00  0.00     0.028 C 
ATOM     10  C   LIG d   1       1.738  81.337 108.885  0.00  0.00     0.006 C 
ENDBRANCH   8   9
BRANCH   8  11
ATOM     11  C   LIG d   1       0.548  84.946 109.085  0.00  0.00     0.028 C 
ATOM     12  C   LIG d   1      -0.777  85.458 109.672  0.00  0.00     0.006 C 
ENDBRANCH   8  11
ENDBRANCH   7   8
ENDBRANCH   1   7
BRANCH   6  13
ATOM     13  N   LIG d   1       2.543  85.772 113.053  0.00  0.00    -0.311 N 
ATOM     14  C   LIG d   1       3.062  86.738 112.297  0.00  0.00     0.210 C 
ATOM     15  C   LIG d   1       4.411  87.282 112.780  0.00  0.00     0.109 C 
ATOM     16  O   LIG d   1       2.519  87.218 111.291  0.00  0.00    -0.276 OA
ATOM     17  H   LIG d   1       3.035  85.466 113.869  0.00  0.00     0.149 HD
ENDBRANCH   6  13
BRANCH   5  18
ATOM     18  N   LIG d   1      -0.074  86.254 114.555  0.00  0.00     0.381 N 
ATOM     19  H   LIG d   1       0.690  86.899 114.535  0.00  0.00    -0.090 HD
ATOM     20  H   LIG d   1      -0.350  86.122 115.512  0.00  0.00    -0.090 HD
ATOM     21  H   LIG d   1      -0.838  86.616 114.028  0.00  0.00    -0.090 HD
ENDBRANCH   5  18
BRANCH   3  22
ATOM     22  C   LIG d   1      -1.529  81.926 113.108  0.00  0.00     0.382 C 
ATOM     23  O   LIG d   1      -2.552  81.864 112.385  0.00  0.00    -0.241 OA
ATOM     24  O   LIG d   1      -1.349  81.067 113.991  0.00  0.00    -0.241 OA
ENDBRANCH   3  22
TORSDOF 7
ENDMDL
MODEL 4
REMARK VINA RESULT:      -5.7      1.293      1.901
REMARK  7 active torsions:
REMARK  status: ('A' for Active; 'I' for Inactive)
REMARK    1  A    between atoms: C_2  and  C_3 
REMARK    2  A    between atoms: C_3  and  O_6 
REMARK    3  A    between atoms: C_3  and  C_4 
REMARK    4  A    between atoms: C_7  and  O_6 
REMARK    5  A    between atoms: C_9  and  C_10 
REMARK    6  A    between atoms: N_15  and  C_14 
REMARK    7  A    between atoms: N_20  and  C_19 
REMARK       I    between atoms: C_22  and  N_20 
ROOT
ATOM      1  C   LIG d   1       1.921  81.731 111.914  0.00  0.00     0.161 C 
ATOM      2  C   LIG d   1       2.983  82.029 111.044  0.00  0.00     0.016 C 
ATOM      3  C   LIG d   1       2.967  81.726 109.663  0.00  0.00     0.038 C 
ATOM      4  C   LIG d   1       1.818  81.237 109.025  0.00  0.00     0.028 C 
ATOM      5  C   LIG d   1       0.898  80.451 109.953  0.00  0.00    -0.047 C 
ATOM      6  C   LIG d   1       0.615  81.299 111.215  0.00  0.00     0.091 C 
ENDROOT
BRANCH   1   7
ATOM      7  O   LIG d   1       1.675  82.851 112.787  0.00  0.00    -0.368 OA
BRANCH   7   8
ATOM      8  C   LIG d   1       0.924  83.951 112.216  0.00  0.00     0.119 C 
BRANCH   8   9
ATOM      9  C   LIG d   1       1.917  85.097 111.944  0.00  0.00     0.028 C 
ATOM     10  C   LIG d   1       1.708  85.739 110.562  0.00  0.00     0.006 C 
ENDBRANCH   8   9
BRANCH   8  11
ATOM     11  C   LIG d   1      -0.084  84.517 113.221  0.00  0.00     0.028 C 
ATOM     12  C   LIG d   1      -0.098  83.746 114.550  0.00  0.00     0.006 C 
ENDBRANCH   8  11
ENDBRANCH   7   8
ENDBRANCH   1   7
BRANCH   6  13
ATOM     13  N   LIG d   1      -0.210  80.570 112.214  0.00  0.00    -0.311 N 
ATOM     14  C   LIG d   1      -1.440  80.944 112.561  0.00  0.00     0.210 C 
ATOM     15  C   LIG d   1      -2.107  80.065 113.624  0.00  0.00     0.109 C 
ATOM     16  O   LIG d   1      -2.055  81.901 112.066  0.00  0.00    -0.276 OA
ATOM     17  H   LIG d   1       0.200  79.763 112.642  0.00  0.00     0.149 HD
ENDBRANCH   6  13
BRANCH   5  18
ATOM     18  N   LIG d   1      -0.323  80.120 109.194  0.00  0.00     0.381 N 
ATOM     19  H   LIG d   1      -0.324  80.610 108.323  0.00  0.00    -0.090 HD
ATOM     20  H   LIG d   1      -1.125  80.415 109.723  0.00  0.00    -0.090 HD
ATOM     21  H   LIG d   1      -0.367  79.138 109.031  0.00  0.00    -0.090 HD
ENDBRANCH   5  18
BRANCH   3  22
ATOM     22  C   LIG d   1       4.124  81.875 108.913  0.00  0.00     0.382 C 
ATOM     23  O   LIG d   1       4.997  82.704 109.266  0.00  0.00    -0.241 OA
ATOM     24  O   LIG d   1       4.285  81.223 107.864  0.00  0.00    -0.241 OA
ENDBRANCH   3  22
TORSDOF 7
ENDMDL
MODEL 5
REMARK VINA RESULT:      -5.5      2.388      5.735
REMARK  7 active torsions:
REMARK  status: ('A' for Active; 'I' for Inactive)
REMARK    1  A    between atoms: C_2  and  C_3 
REMARK    2  A    between atoms: C_3  and  O_6 
REMARK    3  A    between atoms: C_3  and  C_4 
REMARK    4  A    between atoms: C_7  and  O_6 
REMARK    5  A    between atoms: C_9  and  C_10 
REMARK    6  A    between atoms: N_15  and  C_14 
REMARK    7  A    between atoms: N_20  and  C_19 
REMARK       I    between atoms: C_22  and  N_20 
ROOT
ATOM      1  C   LIG d   1       1.312  81.466 112.039  0.00  0.00     0.161 C 
ATOM      2  C   LIG d   1      -0.004  81.009 112.222  0.00  0.00     0.016 C 
ATOM      3  C   LIG d   1      -1.048  81.822 112.721  0.00  0.00     0.038 C 
ATOM      4  C   LIG d   1      -0.880  83.199 112.931  0.00  0.00     0.028 C 
ATOM      5  C   LIG d   1       0.561  83.593 113.240  0.00  0.00    -0.047 C 
ATOM      6  C   LIG d   1       1.488  82.994 112.158  0.00  0.00     0.091 C 
ENDROOT
BRANCH   1   7
ATOM      7  O   LIG d   1       1.820  80.999 110.774  0.00  0.00    -0.368 OA
BRANCH   7   8
ATOM      8  C   LIG d   1       0.999  81.282 109.614  0.00  0.00     0.119 C 
BRANCH   8   9
ATOM      9  C   LIG d   1       0.829  79.964 108.834  0.00  0.00     0.028 C 
ATOM     10  C   LIG d   1       1.799  78.870 109.313  0.00  0.00     0.006 C 
ENDBRANCH   8   9
BRANCH   8  11
ATOM     11  C   LIG d   1       1.708  82.236 108.648  0.00  0.00     0.028 C 
ATOM     12  C   LIG d   1       3.235  82.231 108.820  0.00  0.00     0.006 C 
ENDBRANCH   8  11
ENDBRANCH   7   8
ENDBRANCH   1   7
BRANCH   6  13
ATOM     13  N   LIG d   1       2.924  83.261 112.431  0.00  0.00    -0.311 N 
ATOM     14  C   LIG d   1       3.602  84.263 111.874  0.00  0.00     0.210 C 
ATOM     15  C   LIG d   1       5.078  84.348 112.277  0.00  0.00     0.109 C 
ATOM     16  O   LIG d   1       3.114  85.110 111.111  0.00  0.00    -0.276 OA
ATOM     17  H   LIG d   1       3.391  82.641 113.064  0.00  0.00     0.149 HD
ENDBRANCH   6  13
BRANCH   5  18
ATOM     18  N   LIG d   1       0.617  85.066 113.299  0.00  0.00     0.381 N 
ATOM     19  H   LIG d   1       0.108  85.392 114.096  0.00  0.00    -0.090 HD
ATOM     20  H   LIG d   1       0.185  85.441 112.473  0.00  0.00    -0.090 HD
ATOM     21  H   LIG d   1       1.565  85.369 113.354  0.00  0.00    -0.090 HD
ENDBRANCH   5  18
BRANCH   3  22
ATOM     22  C   LIG d   1      -2.266  81.249 113.053  0.00  0.00     0.382 C 
ATOM     23  O   LIG d   1      -3.318  81.642 112.493  0.00  0.00    -0.241 OA
ATOM     24  O   LIG d   1      -2.333  80.375 113.939  0.00  0.00    -0.241 OA
ENDBRANCH   3  22
TORSDOF 7
ENDMDL
MODEL 6
REMARK VINA RESULT:      -5.5      1.952      5.033
REMARK  7 active torsions:
REMARK  status: ('A' for Active; 'I' for Inactive)
REMARK    1  A    between atoms: C_2  and  C_3 
REMARK    2  A    between atoms: C_3  and  O_6 
REMARK    3  A    between atoms: C_3  and  C_4 
REMARK    4  A    between atoms: C_7  and  O_6 
REMARK    5  A    between atoms: C_9  and  C_10 
REMARK    6  A    between atoms: N_15  and  C_14 
REMARK    7  A    between atoms: N_20  and  C_19 
REMARK       I    between atoms: C_22  and  N_20 
ROOT
ATOM      1  C   LIG d   1       0.441  82.888 111.918  0.00  0.00     0.161 C 
ATOM      2  C   LIG d   1      -0.771  82.654 112.588  0.00  0.00     0.016 C 
ATOM      3  C   LIG d   1      -1.455  81.418 112.550  0.00  0.00     0.038 C 
ATOM      4  C   LIG d   1      -0.893  80.277 111.959  0.00  0.00     0.028 C 
ATOM      5  C   LIG d   1       0.092  80.598 110.840  0.00  0.00    -0.047 C 
ATOM      6  C   LIG d   1       1.126  81.623 111.360  0.00  0.00     0.091 C 
ENDROOT
BRANCH   1   7
ATOM      7  O   LIG d   1       1.345  83.608 112.780  0.00  0.00    -0.368 OA
BRANCH   7   8
ATOM      8  C   LIG d   1       1.376  85.046 112.611  0.00  0.00     0.119 C 
BRANCH   8   9
ATOM      9  C   LIG d   1       2.750  85.413 112.017  0.00  0.00     0.028 C 
ATOM     10  C   LIG d   1       3.879  84.515 112.551  0.00  0.00     0.006 C 
ENDBRANCH   8   9
BRANCH   8  11
ATOM     11  C   LIG d   1       1.313  85.767 113.961  0.00  0.00     0.028 C 
ATOM     12  C   LIG d   1      -0.114  85.845 114.529  0.00  0.00     0.006 C 
ENDBRANCH   8  11
ENDBRANCH   7   8
ENDBRANCH   1   7
BRANCH   6  13
ATOM     13  N   LIG d   1       2.077  82.055 110.303  0.00  0.00    -0.311 N 
ATOM     14  C   LIG d   1       3.360  81.700 110.282  0.00  0.00     0.210 C 
ATOM     15  C   LIG d   1       4.170  82.271 109.114  0.00  0.00     0.109 C 
ATOM     16  O   LIG d   1       3.897  80.939 111.101  0.00  0.00    -0.276 OA
ATOM     17  H   LIG d   1       1.718  82.648 109.581  0.00  0.00     0.149 HD
ENDBRANCH   6  13
BRANCH   5  18
ATOM     18  N   LIG d   1       0.705  79.327 110.408  0.00  0.00     0.381 N 
ATOM     19  H   LIG d   1       0.790  79.314 109.411  0.00  0.00    -0.090 HD
ATOM     20  H   LIG d   1       0.107  78.568 110.683  0.00  0.00    -0.090 HD
ATOM     21  H   LIG d   1       1.603  79.222 110.827  0.00  0.00    -0.090 HD
ENDBRANCH   5  18
BRANCH   3  22
ATOM     22  C   LIG d   1      -2.736  81.325 113.074  0.00  0.00     0.382 C 
ATOM     23  O   LIG d   1      -3.493  80.391 112.716  0.00  0.00    -0.241 OA
ATOM     24  O   LIG d   1      -3.159  82.188 113.866  0.00  0.00    -0.241 OA
ENDBRANCH   3  22
TORSDOF 7
ENDMDL
MODEL 7
REMARK VINA RESULT:      -5.5      2.322      4.527
REMARK  7 active torsions:
REMARK  status: ('A' for Active; 'I' for Inactive)
REMARK    1  A    between atoms: C_2  and  C_3 
REMARK    2  A    between atoms: C_3  and  O_6 
REMARK    3  A    between atoms: C_3  and  C_4 
REMARK    4  A    between atoms: C_7  and  O_6 
REMARK    5  A    between atoms: C_9  and  C_10 
REMARK    6  A    between atoms: N_15  and  C_14 
REMARK    7  A    between atoms: N_20  and  C_19 
REMARK       I    between atoms: C_22  and  N_20 
ROOT
ATOM      1  C   LIG d   1       2.895  82.787 111.718  0.00  0.00     0.161 C 
ATOM      2  C   LIG d   1       3.094  84.141 112.032  0.00  0.00     0.016 C 
ATOM      3  C   LIG d   1       2.680  85.203 111.195  0.00  0.00     0.038 C 
ATOM      4  C   LIG d   1       1.897  84.984 110.051  0.00  0.00     0.028 C 
ATOM      5  C   LIG d   1       2.105  83.607 109.430  0.00  0.00    -0.047 C 
ATOM      6  C   LIG d   1       1.945  82.531 110.529  0.00  0.00     0.091 C 
ENDROOT
BRANCH   1   7
ATOM      7  O   LIG d   1       2.437  82.077 112.886  0.00  0.00    -0.368 OA
BRANCH   7   8
ATOM      8  C   LIG d   1       1.036  82.234 113.219  0.00  0.00     0.119 C 
BRANCH   8   9
ATOM      9  C   LIG d   1       0.961  82.999 114.555  0.00  0.00     0.028 C 
ATOM     10  C   LIG d   1       0.119  84.282 114.450  0.00  0.00     0.006 C 
ENDBRANCH   8   9
BRANCH   8  11
ATOM     11  C   LIG d   1       0.372  80.881 113.490  0.00  0.00     0.028 C 
ATOM     12  C   LIG d   1      -1.008  80.751 112.827  0.00  0.00     0.006 C 
ENDBRANCH   8  11
ENDBRANCH   7   8
ENDBRANCH   1   7
BRANCH   6  13
ATOM     13  N   LIG d   1       2.216  81.160 110.024  0.00  0.00    -0.311 N 
ATOM     14  C   LIG d   1       1.260  80.329 109.610  0.00  0.00     0.210 C 
ATOM     15  C   LIG d   1       1.754  78.955 109.147  0.00  0.00     0.109 C 
ATOM     16  O   LIG d   1       0.054  80.611 109.553  0.00  0.00    -0.276 OA
ATOM     17  H   LIG d   1       3.171  80.860 110.006  0.00  0.00     0.149 HD
ENDBRANCH   6  13
BRANCH   5  18
ATOM     18  N   LIG d   1       1.131  83.461 108.332  0.00  0.00     0.381 N 
ATOM     19  H   LIG d   1       0.655  82.585 108.415  0.00  0.00    -0.090 HD
ATOM     20  H   LIG d   1       1.624  83.471 107.457  0.00  0.00    -0.090 HD
ATOM     21  H   LIG d   1       0.473  84.209 108.359  0.00  0.00    -0.090 HD
ENDBRANCH   5  18
BRANCH   3  22
ATOM     22  C   LIG d   1       3.083  86.499 111.479  0.00  0.00     0.382 C 
ATOM     23  O   LIG d   1       2.324  87.463 111.216  0.00  0.00    -0.241 OA
ATOM     24  O   LIG d   1       4.213  86.720 111.953  0.00  0.00    -0.241 OA
ENDBRANCH   3  22
TORSDOF 7
ENDMDL
MODEL 8
REMARK VINA RESULT:      -5.3      1.758      4.851
REMARK  7 active torsions:
REMARK  status: ('A' for Active; 'I' for Inactive)
REMARK    1  A    between atoms: C_2  and  C_3 
REMARK    2  A    between atoms: C_3  and  O_6 
REMARK    3  A    between atoms: C_3  and  C_4 
REMARK    4  A    between atoms: C_7  and  O_6 
REMARK    5  A    between atoms: C_9  and  C_10 
REMARK    6  A    between atoms: N_15  and  C_14 
REMARK    7  A    between atoms: N_20  and  C_19 
REMARK       I    between atoms: C_22  and  N_20 
ROOT
ATOM      1  C   LIG d   1       1.989  82.522 111.671  0.00  0.00     0.161 C 
ATOM      2  C   LIG d   1       0.766  82.747 112.324  0.00  0.00     0.016 C 
ATOM      3  C   LIG d   1      -0.316  81.837 112.285  0.00  0.00     0.038 C 
ATOM      4  C   LIG d   1      -0.192  80.563 111.711  0.00  0.00     0.028 C 
ATOM      5  C   LIG d   1       0.855  80.496 110.605  0.00  0.00    -0.047 C 
ATOM      6  C   LIG d   1       2.181  81.089 111.133  0.00  0.00     0.091 C 
ENDROOT
BRANCH   1   7
ATOM      7  O   LIG d   1       3.080  82.882 112.541  0.00  0.00    -0.368 OA
BRANCH   7   8
ATOM      8  C   LIG d   1       3.287  84.300 112.753  0.00  0.00     0.119 C 
BRANCH   8   9
ATOM      9  C   LIG d   1       3.551  84.940 111.376  0.00  0.00     0.028 C 
ATOM     10  C   LIG d   1       2.425  85.896 110.948  0.00  0.00     0.006 C 
ENDBRANCH   8   9
BRANCH   8  11
ATOM     11  C   LIG d   1       4.554  84.563 113.572  0.00  0.00     0.028 C 
ATOM     12  C   LIG d   1       5.001  86.033 113.523  0.00  0.00     0.006 C 
ENDBRANCH   8  11
ENDBRANCH   7   8
ENDBRANCH   1   7
BRANCH   6  13
ATOM     13  N   LIG d   1       3.236  81.139 110.087  0.00  0.00    -0.311 N 
ATOM     14  C   LIG d   1       3.146  81.889 108.990  0.00  0.00     0.210 C 
ATOM     15  C   LIG d   1       4.336  81.778 108.032  0.00  0.00     0.109 C 
ATOM     16  O   LIG d   1       2.209  82.661 108.736  0.00  0.00    -0.276 OA
ATOM     17  H   LIG d   1       4.046  80.567 110.228  0.00  0.00     0.149 HD
ENDBRANCH   6  13
BRANCH   5  18
ATOM     18  N   LIG d   1       0.977  79.085 110.192  0.00  0.00     0.381 N 
ATOM     19  H   LIG d   1       0.272  78.537 110.643  0.00  0.00    -0.090 HD
ATOM     20  H   LIG d   1       1.876  78.739 110.477  0.00  0.00    -0.090 HD
ATOM     21  H   LIG d   1       0.883  79.010 109.203  0.00  0.00    -0.090 HD
ENDBRANCH   5  18
BRANCH   3  22
ATOM     22  C   LIG d   1      -1.551  82.215 112.790  0.00  0.00     0.382 C 
ATOM     23  O   LIG d   1      -2.602  81.753 112.286  0.00  0.00    -0.241 OA
ATOM     24  O   LIG d   1      -1.627  83.046 113.715  0.00  0.00    -0.241 OA
ENDBRANCH   3  22
TORSDOF 7
ENDMDL
MODEL 9
REMARK VINA RESULT:      -5.3      2.521      4.227
REMARK  7 active torsions:
REMARK  status: ('A' for Active; 'I' for Inactive)
REMARK    1  A    between atoms: C_2  and  C_3 
REMARK    2  A    between atoms: C_3  and  O_6 
REMARK    3  A    between atoms: C_3  and  C_4 
REMARK    4  A    between atoms: C_7  and  O_6 
REMARK    5  A    between atoms: C_9  and  C_10 
REMARK    6  A    between atoms: N_15  and  C_14 
REMARK    7  A    between atoms: N_20  and  C_19 
REMARK       I    between atoms: C_22  and  N_20 
ROOT
ATOM      1  C   LIG d   1       2.608  82.571 111.950  0.00  0.00     0.161 C 
ATOM      2  C   LIG d   1       3.154  83.758 112.466  0.00  0.00     0.016 C 
ATOM      3  C   LIG d   1       4.172  84.493 111.816  0.00  0.00     0.038 C 
ATOM      4  C   LIG d   1       4.611  84.169 110.523  0.00  0.00     0.028 C 
ATOM      5  C   LIG d   1       4.448  82.692 110.181  0.00  0.00    -0.047 C 
ATOM      6  C   LIG d   1       2.996  82.262 110.488  0.00  0.00     0.091 C 
ENDROOT
BRANCH   1   7
ATOM      7  O   LIG d   1       1.174  82.589 112.095  0.00  0.00    -0.368 OA
BRANCH   7   8
ATOM      8  C   LIG d   1       0.525  83.861 111.854  0.00  0.00     0.119 C 
BRANCH   8   9
ATOM      9  C   LIG d   1      -0.543  84.051 112.948  0.00  0.00     0.028 C 
ATOM     10  C   LIG d   1      -0.517  85.464 113.554  0.00  0.00     0.006 C 
ENDBRANCH   8   9
BRANCH   8  11
ATOM     11  C   LIG d   1      -0.247  83.850 110.531  0.00  0.00     0.028 C 
ATOM     12  C   LIG d   1       0.361  84.790 109.478  0.00  0.00     0.006 C 
ENDBRANCH   8  11
ENDBRANCH   7   8
ENDBRANCH   1   7
BRANCH   6  13
ATOM     13  N   LIG d   1       2.774  80.811 110.261  0.00  0.00    -0.311 N 
ATOM     14  C   LIG d   1       1.821  80.331 109.464  0.00  0.00     0.210 C 
ATOM     15  C   LIG d   1       1.752  78.802 109.386  0.00  0.00     0.109 C 
ATOM     16  O   LIG d   1       1.048  81.026 108.788  0.00  0.00    -0.276 OA
ATOM     17  H   LIG d   1       3.377  80.176 110.746  0.00  0.00     0.149 HD
ENDBRANCH   6  13
BRANCH   5  18
ATOM     18  N   LIG d   1       4.814  82.520 108.762  0.00  0.00     0.381 N 
ATOM     19  H   LIG d   1       4.410  83.255 108.217  0.00  0.00    -0.090 HD
ATOM     20  H   LIG d   1       4.445  81.645 108.435  0.00  0.00    -0.090 HD
ATOM     21  H   LIG d   1       5.805  82.529 108.662  0.00  0.00    -0.090 HD
ENDBRANCH   5  18
BRANCH   3  22
ATOM     22  C   LIG d   1       4.791  85.543 112.477  0.00  0.00     0.382 C 
ATOM     23  O   LIG d   1       5.111  86.580 111.847  0.00  0.00    -0.241 OA
ATOM     24  O   LIG d   1       5.073  85.449 113.687  0.00  0.00    -0.241 OA
ENDBRANCH   3  22
TORSDOF 7
ENDMDL
