MODEL 1
REMARK VINA RESULT:      -6.3      0.000      0.000
REMARK  7 active torsions:
REMARK  status: ('A' for Active; 'I' for Inactive)
REMARK    1  A    between atoms: C_2  and  C_3 
REMARK    2  A    between atoms: C_3  and  O_6 
REMARK    3  A    between atoms: C_3  and  C_4 
REMARK    4  A    between atoms: C_7  and  O_6 
REMARK    5  A    between atoms: C_9  and  C_10 
REMARK    6  A    between atoms: N_15  and  C_14 
REMARK    7  A    between atoms: N_20  and  C_19 
REMARK       I    between atoms: C_22  and  N_20 
ROOT
ATOM      1  C   LIG d   1       0.062  83.056 110.903  0.00  0.00     0.161 C 
ATOM      2  C   LIG d   1      -1.065  82.698 111.663  0.00  0.00     0.016 C 
ATOM      3  C   LIG d   1      -1.545  81.373 111.766  0.00  0.00     0.038 C 
ATOM      4  C   LIG d   1      -0.838  80.284 111.234  0.00  0.00     0.028 C 
ATOM      5  C   LIG d   1       0.029  80.653 110.034  0.00  0.00    -0.047 C 
ATOM      6  C   LIG d   1       0.911  81.867 110.406  0.00  0.00     0.091 C 
ENDROOT
BRANCH   1   7
ATOM      7  O   LIG d   1       0.880  83.980 111.647  0.00  0.00    -0.368 OA
BRANCH   7   8
ATOM      8  C   LIG d   1       0.951  85.330 111.127  0.00  0.00     0.119 C 
BRANCH   8   9
ATOM      9  C   LIG d   1      -0.103  85.452 110.010  0.00  0.00     0.028 C 
ATOM     10  C   LIG d   1      -1.193  86.485 110.342  0.00  0.00     0.006 C 
ENDBRANCH   8   9
BRANCH   8  11
ATOM     11  C   LIG d   1       2.297  85.595 110.445  0.00  0.00     0.028 C 
ATOM     12  C   LIG d   1       3.477  84.943 111.183  0.00  0.00     0.006 C 
ENDBRANCH   8  11
ENDBRANCH   7   8
ENDBRANCH   1   7
BRANCH   6  13
ATOM     13  N   LIG d   1       1.729  82.345 109.261  0.00  0.00    -0.311 N 
ATOM     14  C   LIG d   1       2.974  81.934 109.028  0.00  0.00     0.210 C 
ATOM     15  C   LIG d   1       3.645  82.568 107.805  0.00  0.00     0.109 C 
ATOM     16  O   LIG d   1       3.575  81.082 109.699  0.00  0.00    -0.276 OA
ATOM     17  H   LIG d   1       1.307  83.015 108.648  0.00  0.00     0.149 HD
ENDBRANCH   6  13
BRANCH   5  18
ATOM     18  N   LIG d   1       0.813  79.459 109.668  0.00  0.00     0.381 N 
ATOM     19  H   LIG d   1       0.217  78.780 109.238  0.00  0.00    -0.090 HD
ATOM     20  H   LIG d   1       1.200  79.055 110.503  0.00  0.00    -0.090 HD
ATOM     21  H   LIG d   1       1.547  79.711 109.042  0.00  0.00    -0.090 HD
ENDBRANCH   5  18
BRANCH   3  22
ATOM     22  C   LIG d   1      -2.768  81.130 112.373  0.00  0.00     0.382 C 
ATOM     23  O   LIG d   1      -3.230  79.964 112.409  0.00  0.00    -0.241 OA
ATOM     24  O   LIG d   1      -3.435  82.069 112.847  0.00  0.00    -0.241 OA
ENDBRANCH   3  22
TORSDOF 7
ENDMDL
MODEL 2
REMARK VINA RESULT:      -6.2      1.621      4.960
REMARK  7 active torsions:
REMARK  status: ('A' for Active; 'I' for Inactive)
REMARK    1  A    between atoms: C_2  and  C_3 
REMARK    2  A    between atoms: C_3  and  O_6 
REMARK    3  A    between atoms: C_3  and  C_4 
REMARK    4  A    between atoms: C_7  and  O_6 
REMARK    5  A    between atoms: C_9  and  C_10 
REMARK    6  A    between atoms: N_15  and  C_14 
REMARK    7  A    between atoms: N_20  and  C_19 
REMARK       I    between atoms: C_22  and  N_20 
ROOT
ATOM      1  C   LIG d   1       1.528  83.428 111.282  0.00  0.00     0.161 C 
ATOM      2  C   LIG d   1       2.549  83.351 110.321  0.00  0.00     0.016 C 
ATOM      3  C   LIG d   1       2.684  82.274 109.414  0.00  0.00     0.038 C 
ATOM      4  C   LIG d   1       1.712  81.269 109.307  0.00  0.00     0.028 C 
ATOM      5  C   LIG d   1       0.932  81.040 110.597  0.00  0.00    -0.047 C 
ATOM      6  C   LIG d   1       0.394  82.397 111.106  0.00  0.00     0.091 C 
ENDROOT
BRANCH   1   7
ATOM      7  O   LIG d   1       0.988  84.765 111.315  0.00  0.00    -0.368 OA
BRANCH   7   8
ATOM      8  C   LIG d   1       1.423  85.654 110.257  0.00  0.00     0.119 C 
BRANCH   8   9
ATOM      9  C   LIG d   1       1.860  86.977 110.914  0.00  0.00     0.028 C 
ATOM     10  C   LIG d   1       3.242  86.873 111.581  0.00  0.00     0.006 C 
ENDBRANCH   8   9
BRANCH   8  11
ATOM     11  C   LIG d   1       0.263  86.026 109.329  0.00  0.00     0.028 C 
ATOM     12  C   LIG d   1      -1.078  86.148 110.071  0.00  0.00     0.006 C 
ENDBRANCH   8  11
ENDBRANCH   7   8
ENDBRANCH   1   7
BRANCH   6  13
ATOM     13  N   LIG d   1      -0.310  82.275 112.409  0.00  0.00    -0.311 N 
ATOM     14  C   LIG d   1      -1.620  82.062 112.518  0.00  0.00     0.210 C 
ATOM     15  C   LIG d   1      -2.147  81.989 113.955  0.00  0.00     0.109 C 
ATOM     16  O   LIG d   1      -2.391  81.896 111.561  0.00  0.00    -0.276 OA
ATOM     17  H   LIG d   1       0.245  82.366 113.237  0.00  0.00     0.149 HD
ENDBRANCH   6  13
BRANCH   5  18
ATOM     18  N   LIG d   1      -0.137  80.067 110.305  0.00  0.00     0.381 N 
ATOM     19  H   LIG d   1      -0.991  80.362 110.735  0.00  0.00    -0.090 HD
ATOM     20  H   LIG d   1       0.119  79.176 110.692  0.00  0.00    -0.090 HD
ATOM     21  H   LIG d   1      -0.264  79.985 109.320  0.00  0.00    -0.090 HD
ENDBRANCH   5  18
BRANCH   3  22
ATOM     22  C   LIG d   1       3.823  82.175 108.630  0.00  0.00     0.382 C 
ATOM     23  O   LIG d   1       4.059  81.117 107.998  0.00  0.00    -0.241 OA
ATOM     24  O   LIG d   1       4.641  83.113 108.582  0.00  0.00    -0.241 OA
ENDBRANCH   3  22
TORSDOF 7
ENDMDL
MODEL 3
REMARK VINA RESULT:      -5.3      2.152      4.300
REMARK  7 active torsions:
REMARK  status: ('A' for Active; 'I' for Inactive)
REMARK    1  A    between atoms: C_2  and  C_3 
REMARK    2  A    between atoms: C_3  and  O_6 
REMARK    3  A    between atoms: C_3  and  C_4 
REMARK    4  A    between atoms: C_7  and  O_6 
REMARK    5  A    between atoms: C_9  and  C_10 
REMARK    6  A    between atoms: N_15  and  C_14 
REMARK    7  A    between atoms: N_20  and  C_19 
REMARK       I    between atoms: C_22  and  N_20 
ROOT
ATOM      1  C   LIG d   1       1.361  82.862 111.759  0.00  0.00     0.161 C 
ATOM      2  C   LIG d   1       0.556  83.438 112.756  0.00  0.00     0.016 C 
ATOM      3  C   LIG d   1       0.027  84.746 112.669  0.00  0.00     0.038 C 
ATOM      4  C   LIG d   1       0.142  85.517 111.503  0.00  0.00     0.028 C 
ATOM      5  C   LIG d   1       1.372  85.173 110.669  0.00  0.00    -0.047 C 
ATOM      6  C   LIG d   1       1.406  83.646 110.430  0.00  0.00     0.091 C 
ENDROOT
BRANCH   1   7
ATOM      7  O   LIG d   1       0.949  81.501 111.523  0.00  0.00    -0.368 OA
BRANCH   7   8
ATOM      8  C   LIG d   1      -0.262  81.327 110.747  0.00  0.00     0.119 C 
BRANCH   8   9
ATOM      9  C   LIG d   1      -1.211  80.428 111.563  0.00  0.00     0.028 C 
ATOM     10  C   LIG d   1      -2.340  81.225 112.237  0.00  0.00     0.006 C 
ENDBRANCH   8   9
BRANCH   8  11
ATOM     11  C   LIG d   1       0.012  80.557 109.452  0.00  0.00     0.028 C 
ATOM     12  C   LIG d   1       1.384  79.864 109.450  0.00  0.00     0.006 C 
ENDBRANCH   8  11
ENDBRANCH   7   8
ENDBRANCH   1   7
BRANCH   6  13
ATOM     13  N   LIG d   1       2.622  83.215 109.694  0.00  0.00    -0.311 N 
ATOM     14  C   LIG d   1       2.651  83.022 108.376  0.00  0.00     0.210 C 
ATOM     15  C   LIG d   1       4.001  82.558 107.820  0.00  0.00     0.109 C 
ATOM     16  O   LIG d   1       1.696  83.222 107.611  0.00  0.00    -0.276 OA
ATOM     17  H   LIG d   1       3.451  83.059 110.233  0.00  0.00     0.149 HD
ENDBRANCH   6  13
BRANCH   5  18
ATOM     18  N   LIG d   1       1.294  85.952 109.418  0.00  0.00     0.381 N 
ATOM     19  H   LIG d   1       2.207  86.268 109.159  0.00  0.00    -0.090 HD
ATOM     20  H   LIG d   1       0.713  86.757 109.573  0.00  0.00    -0.090 HD
ATOM     21  H   LIG d   1       0.910  85.391 108.691  0.00  0.00    -0.090 HD
ENDBRANCH   5  18
BRANCH   3  22
ATOM     22  C   LIG d   1      -0.594  85.311 113.773  0.00  0.00     0.382 C 
ATOM     23  O   LIG d   1      -1.749  84.946 114.098  0.00  0.00    -0.241 OA
ATOM     24  O   LIG d   1      -0.030  86.212 114.422  0.00  0.00    -0.241 OA
ENDBRANCH   3  22
TORSDOF 7
ENDMDL
MODEL 4
REMARK VINA RESULT:      -4.7      2.519      5.126
REMARK  7 active torsions:
REMARK  status: ('A' for Active; 'I' for Inactive)
REMARK    1  A    between atoms: C_2  and  C_3 
REMARK    2  A    between atoms: C_3  and  O_6 
REMARK    3  A    between atoms: C_3  and  C_4 
REMARK    4  A    between atoms: C_7  and  O_6 
REMARK    5  A    between atoms: C_9  and  C_10 
REMARK    6  A    between atoms: N_15  and  C_14 
REMARK    7  A    between atoms: N_20  and  C_19 
REMARK       I    between atoms: C_22  and  N_20 
ROOT
ATOM      1  C   LIG d   1       2.589  83.050 111.718  0.00  0.00     0.161 C 
ATOM      2  C   LIG d   1       2.766  84.416 111.994  0.00  0.00     0.016 C 
ATOM      3  C   LIG d   1       2.684  85.426 111.008  0.00  0.00     0.038 C 
ATOM      4  C   LIG d   1       2.268  85.151 109.697  0.00  0.00     0.028 C 
ATOM      5  C   LIG d   1       2.570  83.723 109.253  0.00  0.00    -0.047 C 
ATOM      6  C   LIG d   1       2.025  82.742 110.315  0.00  0.00     0.091 C 
ENDROOT
BRANCH   1   7
ATOM      7  O   LIG d   1       1.762  82.449 112.734  0.00  0.00    -0.368 OA
BRANCH   7   8
ATOM      8  C   LIG d   1       0.671  83.263 113.231  0.00  0.00     0.119 C 
BRANCH   8   9
ATOM      9  C   LIG d   1       0.184  82.629 114.548  0.00  0.00     0.028 C 
ATOM     10  C   LIG d   1      -1.090  81.789 114.359  0.00  0.00     0.006 C 
ENDBRANCH   8   9
BRANCH   8  11
ATOM     11  C   LIG d   1      -0.535  83.215 112.288  0.00  0.00     0.028 C 
ATOM     12  C   LIG d   1      -0.847  84.579 111.651  0.00  0.00     0.006 C 
ENDBRANCH   8  11
ENDBRANCH   7   8
ENDBRANCH   1   7
BRANCH   6  13
ATOM     13  N   LIG d   1       2.353  81.327 110.000  0.00  0.00    -0.311 N 
ATOM     14  C   LIG d   1       1.519  80.505 109.363  0.00  0.00     0.210 C 
ATOM     15  C   LIG d   1       2.046  79.082 109.157  0.00  0.00     0.109 C 
ATOM     16  O   LIG d   1       0.407  80.830 108.921  0.00  0.00    -0.276 OA
ATOM     17  H   LIG d   1       3.248  80.989 110.295  0.00  0.00     0.149 HD
ENDBRANCH   6  13
BRANCH   5  18
ATOM     18  N   LIG d   1       1.962  83.532 107.922  0.00  0.00     0.381 N 
ATOM     19  H   LIG d   1       0.965  83.543 108.001  0.00  0.00    -0.090 HD
ATOM     20  H   LIG d   1       2.241  82.636 107.564  0.00  0.00    -0.090 HD
ATOM     21  H   LIG d   1       2.262  84.254 107.304  0.00  0.00    -0.090 HD
ENDBRANCH   5  18
BRANCH   3  22
ATOM     22  C   LIG d   1       3.060  86.724 111.320  0.00  0.00     0.382 C 
ATOM     23  O   LIG d   1       2.223  87.655 111.240  0.00  0.00    -0.241 OA
ATOM     24  O   LIG d   1       4.236  86.982 111.639  0.00  0.00    -0.241 OA
ENDBRANCH   3  22
TORSDOF 7
ENDMDL
MODEL 5
REMARK VINA RESULT:      -4.6      2.310      5.257
REMARK  7 active torsions:
REMARK  status: ('A' for Active; 'I' for Inactive)
REMARK    1  A    between atoms: C_2  and  C_3 
REMARK    2  A    between atoms: C_3  and  O_6 
REMARK    3  A    between atoms: C_3  and  C_4 
REMARK    4  A    between atoms: C_7  and  O_6 
REMARK    5  A    between atoms: C_9  and  C_10 
REMARK    6  A    between atoms: N_15  and  C_14 
REMARK    7  A    between atoms: N_20  and  C_19 
REMARK       I    between atoms: C_22  and  N_20 
ROOT
ATOM      1  C   LIG d   1       2.378  83.317 112.427  0.00  0.00     0.161 C 
ATOM      2  C   LIG d   1       2.865  84.526 112.950  0.00  0.00     0.016 C 
ATOM      3  C   LIG d   1       3.648  85.437 112.205  0.00  0.00     0.038 C 
ATOM      4  C   LIG d   1       3.873  85.271 110.830  0.00  0.00     0.028 C 
ATOM      5  C   LIG d   1       3.827  83.814 110.381  0.00  0.00    -0.047 C 
ATOM      6  C   LIG d   1       2.519  83.171 110.897  0.00  0.00     0.091 C 
ENDROOT
BRANCH   1   7
ATOM      7  O   LIG d   1       1.005  83.130 112.823  0.00  0.00    -0.368 OA
BRANCH   7   8
ATOM      8  C   LIG d   1       0.002  83.569 111.874  0.00  0.00     0.119 C 
BRANCH   8   9
ATOM      9  C   LIG d   1      -0.476  84.966 112.317  0.00  0.00     0.028 C 
ATOM     10  C   LIG d   1      -0.172  86.050 111.269  0.00  0.00     0.006 C 
ENDBRANCH   8   9
BRANCH   8  11
ATOM     11  C   LIG d   1      -1.243  82.679 111.927  0.00  0.00     0.028 C 
ATOM     12  C   LIG d   1      -0.915  81.185 111.774  0.00  0.00     0.006 C 
ENDBRANCH   8  11
ENDBRANCH   7   8
ENDBRANCH   1   7
BRANCH   6  13
ATOM     13  N   LIG d   1       2.434  81.723 110.574  0.00  0.00    -0.311 N 
ATOM     14  C   LIG d   1       1.836  81.250 109.481  0.00  0.00     0.210 C 
ATOM     15  C   LIG d   1       1.843  79.723 109.350  0.00  0.00     0.109 C 
ATOM     16  O   LIG d   1       1.329  81.951 108.593  0.00  0.00    -0.276 OA
ATOM     17  H   LIG d   1       2.847  81.085 111.225  0.00  0.00     0.149 HD
ENDBRANCH   6  13
BRANCH   5  18
ATOM     18  N   LIG d   1       3.939  83.797 108.911  0.00  0.00     0.381 N 
ATOM     19  H   LIG d   1       4.864  84.062 108.638  0.00  0.00    -0.090 HD
ATOM     20  H   LIG d   1       3.294  84.466 108.528  0.00  0.00    -0.090 HD
ATOM     21  H   LIG d   1       3.730  82.887 108.563  0.00  0.00    -0.090 HD
ENDBRANCH   5  18
BRANCH   3  22
ATOM     22  C   LIG d   1       4.250  86.510 112.845  0.00  0.00     0.382 C 
ATOM     23  O   LIG d   1       3.855  86.863 113.982  0.00  0.00    -0.241 OA
ATOM     24  O   LIG d   1       5.154  87.156 112.282  0.00  0.00    -0.241 OA
ENDBRANCH   3  22
TORSDOF 7
ENDMDL
MODEL 6
REMARK VINA RESULT:      -4.1      2.174      4.775
REMARK  7 active torsions:
REMARK  status: ('A' for Active; 'I' for Inactive)
REMARK    1  A    between atoms: C_2  and  C_3 
REMARK    2  A    between atoms: C_3  and  O_6 
REMARK    3  A    between atoms: C_3  and  C_4 
REMARK    4  A    between atoms: C_7  and  O_6 
REMARK    5  A    between atoms: C_9  and  C_10 
REMARK    6  A    between atoms: N_15  and  C_14 
REMARK    7  A    between atoms: N_20  and  C_19 
REMARK       I    between atoms: C_22  and  N_20 
ROOT
ATOM      1  C   LIG d   1       1.882  82.734 111.646  0.00  0.00     0.161 C 
ATOM      2  C   LIG d   1       1.538  83.850 112.426  0.00  0.00     0.016 C 
ATOM      3  C   LIG d   1       1.173  85.101 111.877  0.00  0.00     0.038 C 
ATOM      4  C   LIG d   1       0.980  85.278 110.499  0.00  0.00     0.028 C 
ATOM      5  C   LIG d   1       1.804  84.320 109.644  0.00  0.00    -0.047 C 
ATOM      6  C   LIG d   1       1.569  82.875 110.142  0.00  0.00     0.091 C 
ENDROOT
BRANCH   1   7
ATOM      7  O   LIG d   1       1.252  81.552 112.180  0.00  0.00    -0.368 OA
BRANCH   7   8
ATOM      8  C   LIG d   1       0.020  81.762 112.912  0.00  0.00     0.119 C 
BRANCH   8   9
ATOM      9  C   LIG d   1       0.033  80.809 114.123  0.00  0.00     0.028 C 
ATOM     10  C   LIG d   1      -1.382  80.390 114.555  0.00  0.00     0.006 C 
ENDBRANCH   8   9
BRANCH   8  11
ATOM     11  C   LIG d   1      -1.199  81.348 112.083  0.00  0.00     0.028 C 
ATOM     12  C   LIG d   1      -0.843  80.379 110.944  0.00  0.00     0.006 C 
ENDBRANCH   8  11
ENDBRANCH   7   8
ENDBRANCH   1   7
BRANCH   6  13
ATOM     13  N   LIG d   1       2.403  81.883 109.414  0.00  0.00    -0.311 N 
ATOM     14  C   LIG d   1       3.734  81.910 109.405  0.00  0.00     0.210 C 
ATOM     15  C   LIG d   1       4.398  80.806 108.576  0.00  0.00     0.109 C 
ATOM     16  O   LIG d   1       4.430  82.725 110.031  0.00  0.00    -0.276 OA
ATOM     17  H   LIG d   1       1.921  81.169 108.905  0.00  0.00     0.149 HD
ENDBRANCH   6  13
BRANCH   5  18
ATOM     18  N   LIG d   1       1.403  84.520 108.239  0.00  0.00     0.381 N 
ATOM     19  H   LIG d   1       1.206  83.636 107.814  0.00  0.00    -0.090 HD
ATOM     20  H   LIG d   1       2.165  84.946 107.741  0.00  0.00    -0.090 HD
ATOM     21  H   LIG d   1       0.598  85.105 108.194  0.00  0.00    -0.090 HD
ENDBRANCH   5  18
BRANCH   3  22
ATOM     22  C   LIG d   1       1.037  86.203 112.708  0.00  0.00     0.382 C 
ATOM     23  O   LIG d   1       1.735  87.226 112.512  0.00  0.00    -0.241 OA
ATOM     24  O   LIG d   1       0.255  86.170 113.678  0.00  0.00    -0.241 OA
ENDBRANCH   3  22
TORSDOF 7
ENDMDL
MODEL 7
REMARK VINA RESULT:      -4.0     28.719     30.070
REMARK  7 active torsions:
REMARK  status: ('A' for Active; 'I' for Inactive)
REMARK    1  A    between atoms: C_2  and  C_3 
REMARK    2  A    between atoms: C_3  and  O_6 
REMARK    3  A    between atoms: C_3  and  C_4 
REMARK    4  A    between atoms: C_7  and  O_6 
REMARK    5  A    between atoms: C_9  and  C_10 
REMARK    6  A    between atoms: N_15  and  C_14 
REMARK    7  A    between atoms: N_20  and  C_19 
REMARK       I    between atoms: C_22  and  N_20 
ROOT
ATOM      1  C   LIG d   1     -26.538  70.290 109.823  0.00  0.00     0.161 C 
ATOM      2  C   LIG d   1     -26.350  71.682 109.868  0.00  0.00     0.016 C 
ATOM      3  C   LIG d   1     -27.196  72.603 109.208  0.00  0.00     0.038 C 
ATOM      4  C   LIG d   1     -28.383  72.200 108.578  0.00  0.00     0.028 C 
ATOM      5  C   LIG d   1     -28.345  70.760 108.078  0.00  0.00    -0.047 C 
ATOM      6  C   LIG d   1     -27.891  69.839 109.233  0.00  0.00     0.091 C 
ENDROOT
BRANCH   1   7
ATOM      7  O   LIG d   1     -26.352  69.729 111.137  0.00  0.00    -0.368 OA
BRANCH   7   8
ATOM      8  C   LIG d   1     -25.024  69.234 111.437  0.00  0.00     0.119 C 
BRANCH   8   9
ATOM      9  C   LIG d   1     -24.999  67.734 111.084  0.00  0.00     0.028 C 
ATOM     10  C   LIG d   1     -23.837  67.372 110.144  0.00  0.00     0.006 C 
ENDBRANCH   8   9
BRANCH   8  11
ATOM     11  C   LIG d   1     -24.730  69.302 112.938  0.00  0.00     0.028 C 
ATOM     12  C   LIG d   1     -25.718  70.200 113.699  0.00  0.00     0.006 C 
ENDBRANCH   8  11
ENDBRANCH   7   8
ENDBRANCH   1   7
BRANCH   6  13
ATOM     13  N   LIG d   1     -27.746  68.423 108.806  0.00  0.00    -0.311 N 
ATOM     14  C   LIG d   1     -26.821  68.010 107.941  0.00  0.00     0.210 C 
ATOM     15  C   LIG d   1     -26.858  66.512 107.622  0.00  0.00     0.109 C 
ATOM     16  O   LIG d   1     -25.953  68.736 107.433  0.00  0.00    -0.276 OA
ATOM     17  H   LIG d   1     -28.389  67.761 109.193  0.00  0.00     0.149 HD
ENDBRANCH   6  13
BRANCH   5  18
ATOM     18  N   LIG d   1     -29.689  70.430 107.569  0.00  0.00     0.381 N 
ATOM     19  H   LIG d   1     -29.923  69.489 107.816  0.00  0.00    -0.090 HD
ATOM     20  H   LIG d   1     -29.684  70.500 106.566  0.00  0.00    -0.090 HD
ATOM     21  H   LIG d   1     -30.362  71.058 107.949  0.00  0.00    -0.090 HD
ENDBRANCH   5  18
BRANCH   3  22
ATOM     22  C   LIG d   1     -26.835  73.940 109.140  0.00  0.00     0.382 C 
ATOM     23  O   LIG d   1     -25.915  74.379 109.871  0.00  0.00    -0.241 OA
ATOM     24  O   LIG d   1     -27.449  74.722 108.389  0.00  0.00    -0.241 OA
ENDBRANCH   3  22
TORSDOF 7
ENDMDL
MODEL 8
REMARK VINA RESULT:      -4.0     28.295     29.649
REMARK  7 active torsions:
REMARK  status: ('A' for Active; 'I' for Inactive)
REMARK    1  A    between atoms: C_2  and  C_3 
REMARK    2  A    between atoms: C_3  and  O_6 
REMARK    3  A    between atoms: C_3  and  C_4 
REMARK    4  A    between atoms: C_7  and  O_6 
REMARK    5  A    between atoms: C_9  and  C_10 
REMARK    6  A    between atoms: N_15  and  C_14 
REMARK    7  A    between atoms: N_20  and  C_19 
REMARK       I    between atoms: C_22  and  N_20 
ROOT
ATOM      1  C   LIG d   1     -26.472  69.591 111.125  0.00  0.00     0.161 C 
ATOM      2  C   LIG d   1     -27.092  70.537 111.959  0.00  0.00     0.016 C 
ATOM      3  C   LIG d   1     -26.643  70.835 113.266  0.00  0.00     0.038 C 
ATOM      4  C   LIG d   1     -25.444  70.314 113.775  0.00  0.00     0.028 C 
ATOM      5  C   LIG d   1     -25.058  68.972 113.162  0.00  0.00    -0.047 C 
ATOM      6  C   LIG d   1     -25.098  69.094 111.621  0.00  0.00     0.091 C 
ENDROOT
BRANCH   1   7
ATOM      7  O   LIG d   1     -26.362  70.117 109.788  0.00  0.00    -0.368 OA
BRANCH   7   8
ATOM      8  C   LIG d   1     -27.245  69.533 108.799  0.00  0.00     0.119 C 
BRANCH   8   9
ATOM      9  C   LIG d   1     -26.370  68.745 107.805  0.00  0.00     0.028 C 
ATOM     10  C   LIG d   1     -26.683  67.239 107.813  0.00  0.00     0.006 C 
ENDBRANCH   8   9
BRANCH   8  11
ATOM     11  C   LIG d   1     -27.936  70.613 107.962  0.00  0.00     0.028 C 
ATOM     12  C   LIG d   1     -27.825  72.013 108.587  0.00  0.00     0.006 C 
ENDBRANCH   8  11
ENDBRANCH   7   8
ENDBRANCH   1   7
BRANCH   6  13
ATOM     13  N   LIG d   1     -24.815  67.802 110.943  0.00  0.00    -0.311 N 
ATOM     14  C   LIG d   1     -23.596  67.426 110.561  0.00  0.00     0.210 C 
ATOM     15  C   LIG d   1     -23.529  66.065 109.861  0.00  0.00     0.109 C 
ATOM     16  O   LIG d   1     -22.560  68.076 110.764  0.00  0.00    -0.276 OA
ATOM     17  H   LIG d   1     -25.595  67.199 110.767  0.00  0.00     0.149 HD
ENDBRANCH   6  13
BRANCH   5  18
ATOM     18  N   LIG d   1     -23.724  68.613 113.679  0.00  0.00     0.381 N 
ATOM     19  H   LIG d   1     -23.800  68.311 114.630  0.00  0.00    -0.090 HD
ATOM     20  H   LIG d   1     -23.135  69.426 113.652  0.00  0.00    -0.090 HD
ATOM     21  H   LIG d   1     -23.327  67.887 113.123  0.00  0.00    -0.090 HD
ENDBRANCH   5  18
BRANCH   3  22
ATOM     22  C   LIG d   1     -27.417  71.634 114.093  0.00  0.00     0.382 C 
ATOM     23  O   LIG d   1     -26.947  72.701 114.554  0.00  0.00    -0.241 OA
ATOM     24  O   LIG d   1     -28.565  71.278 114.420  0.00  0.00    -0.241 OA
ENDBRANCH   3  22
TORSDOF 7
ENDMDL
MODEL 9
REMARK VINA RESULT:      -4.0     19.681     21.598
REMARK  7 active torsions:
REMARK  status: ('A' for Active; 'I' for Inactive)
REMARK    1  A    between atoms: C_2  and  C_3 
REMARK    2  A    between atoms: C_3  and  O_6 
REMARK    3  A    between atoms: C_3  and  C_4 
REMARK    4  A    between atoms: C_7  and  O_6 
REMARK    5  A    between atoms: C_9  and  C_10 
REMARK    6  A    between atoms: N_15  and  C_14 
REMARK    7  A    between atoms: N_20  and  C_19 
REMARK       I    between atoms: C_22  and  N_20 
ROOT
ATOM      1  C   LIG d   1       9.226  63.957 110.295  0.00  0.00     0.161 C 
ATOM      2  C   LIG d   1       8.760  62.876 111.062  0.00  0.00     0.016 C 
ATOM      3  C   LIG d   1       8.894  61.526 110.665  0.00  0.00     0.038 C 
ATOM      4  C   LIG d   1       9.643  61.155 109.538  0.00  0.00     0.028 C 
ATOM      5  C   LIG d   1       9.700  62.238 108.465  0.00  0.00    -0.047 C 
ATOM      6  C   LIG d   1      10.144  63.567 109.118  0.00  0.00     0.091 C 
ENDROOT
BRANCH   1   7
ATOM      7  O   LIG d   1       9.886  64.913 111.149  0.00  0.00    -0.368 OA
BRANCH   7   8
ATOM      8  C   LIG d   1      10.518  64.377 112.337  0.00  0.00     0.119 C 
BRANCH   8   9
ATOM      9  C   LIG d   1      10.308  65.396 113.473  0.00  0.00     0.028 C 
ATOM     10  C   LIG d   1       9.026  66.225 113.289  0.00  0.00     0.006 C 
ENDBRANCH   8   9
BRANCH   8  11
ATOM     11  C   LIG d   1      12.035  64.271 112.162  0.00  0.00     0.028 C 
ATOM     12  C   LIG d   1      12.606  65.360 111.240  0.00  0.00     0.006 C 
ENDBRANCH   8  11
ENDBRANCH   7   8
ENDBRANCH   1   7
BRANCH   6  13
ATOM     13  N   LIG d   1      10.145  64.699 108.154  0.00  0.00    -0.311 N 
ATOM     14  C   LIG d   1      11.233  65.109 107.506  0.00  0.00     0.210 C 
ATOM     15  C   LIG d   1      11.019  66.305 106.574  0.00  0.00     0.109 C 
ATOM     16  O   LIG d   1      12.350  64.575 107.590  0.00  0.00    -0.276 OA
ATOM     17  H   LIG d   1       9.274  65.169 108.002  0.00  0.00     0.149 HD
ENDBRANCH   6  13
BRANCH   5  18
ATOM     18  N   LIG d   1      10.623  61.774 107.413  0.00  0.00     0.381 N 
ATOM     19  H   LIG d   1      10.677  60.775 107.426  0.00  0.00    -0.090 HD
ATOM     20  H   LIG d   1      11.540  62.142 107.598  0.00  0.00    -0.090 HD
ATOM     21  H   LIG d   1      10.307  62.085 106.520  0.00  0.00    -0.090 HD
ENDBRANCH   5  18
BRANCH   3  22
ATOM     22  C   LIG d   1       8.240  60.532 111.377  0.00  0.00     0.382 C 
ATOM     23  O   LIG d   1       8.892  59.573 111.856  0.00  0.00    -0.241 OA
ATOM     24  O   LIG d   1       7.002  60.559 111.508  0.00  0.00    -0.241 OA
ENDBRANCH   3  22
TORSDOF 7
ENDMDL
