MODEL 1
REMARK VINA RESULT:      -6.3      0.000      0.000
REMARK  7 active torsions:
REMARK  status: ('A' for Active; 'I' for Inactive)
REMARK    1  A    between atoms: C_2  and  C_3 
REMARK    2  A    between atoms: C_3  and  O_6 
REMARK    3  A    between atoms: C_3  and  C_4 
REMARK    4  A    between atoms: C_7  and  O_6 
REMARK    5  A    between atoms: C_9  and  C_10 
REMARK    6  A    between atoms: N_15  and  C_14 
REMARK    7  A    between atoms: N_20  and  C_19 
REMARK       I    between atoms: C_22  and  N_20 
ROOT
ATOM      1  C   LIG d   1       1.890  83.243 111.462  0.00  0.00     0.161 C 
ATOM      2  C   LIG d   1       2.797  83.099 110.399  0.00  0.00     0.016 C 
ATOM      3  C   LIG d   1       2.757  82.023 109.482  0.00  0.00     0.038 C 
ATOM      4  C   LIG d   1       1.706  81.093 109.476  0.00  0.00     0.028 C 
ATOM      5  C   LIG d   1       1.050  80.911 110.840  0.00  0.00    -0.047 C 
ATOM      6  C   LIG d   1       0.670  82.299 111.404  0.00  0.00     0.091 C 
ENDROOT
BRANCH   1   7
ATOM      7  O   LIG d   1       1.457  84.615 111.552  0.00  0.00    -0.368 OA
BRANCH   7   8
ATOM      8  C   LIG d   1       1.614  85.413 110.353  0.00  0.00     0.119 C 
BRANCH   8   9
ATOM      9  C   LIG d   1       2.138  86.797 110.783  0.00  0.00     0.028 C 
ATOM     10  C   LIG d   1       3.349  86.699 111.726  0.00  0.00     0.006 C 
ENDBRANCH   8   9
BRANCH   8  11
ATOM     11  C   LIG d   1       0.263  85.681 109.682  0.00  0.00     0.028 C 
ATOM     12  C   LIG d   1      -0.814  86.143 110.676  0.00  0.00     0.006 C 
ENDBRANCH   8  11
ENDBRANCH   7   8
ENDBRANCH   1   7
BRANCH   6  13
ATOM     13  N   LIG d   1       0.099  82.218 112.773  0.00  0.00    -0.311 N 
ATOM     14  C   LIG d   1      -1.132  82.625 113.080  0.00  0.00     0.210 C 
ATOM     15  C   LIG d   1      -1.515  82.471 114.555  0.00  0.00     0.109 C 
ATOM     16  O   LIG d   1      -1.953  83.070 112.264  0.00  0.00    -0.276 OA
ATOM     17  H   LIG d   1       0.686  81.840 113.491  0.00  0.00     0.149 HD
ENDBRANCH   6  13
BRANCH   5  18
ATOM     18  N   LIG d   1      -0.113  80.022 110.660  0.00  0.00     0.381 N 
ATOM     19  H   LIG d   1       0.198  79.081 110.522  0.00  0.00    -0.090 HD
ATOM     20  H   LIG d   1      -0.619  80.310 109.842  0.00  0.00    -0.090 HD
ATOM     21  H   LIG d   1      -0.705  80.069 111.460  0.00  0.00    -0.090 HD
ENDBRANCH   5  18
BRANCH   3  22
ATOM     22  C   LIG d   1       3.797  81.847 108.583  0.00  0.00     0.382 C 
ATOM     23  O   LIG d   1       4.099  82.767 107.785  0.00  0.00    -0.241 OA
ATOM     24  O   LIG d   1       4.410  80.764 108.530  0.00  0.00    -0.241 OA
ENDBRANCH   3  22
TORSDOF 7
ENDMDL
MODEL 2
REMARK VINA RESULT:      -5.9      1.502      2.368
REMARK  7 active torsions:
REMARK  status: ('A' for Active; 'I' for Inactive)
REMARK    1  A    between atoms: C_2  and  C_3 
REMARK    2  A    between atoms: C_3  and  O_6 
REMARK    3  A    between atoms: C_3  and  C_4 
REMARK    4  A    between atoms: C_7  and  O_6 
REMARK    5  A    between atoms: C_9  and  C_10 
REMARK    6  A    between atoms: N_15  and  C_14 
REMARK    7  A    between atoms: N_20  and  C_19 
REMARK       I    between atoms: C_22  and  N_20 
ROOT
ATOM      1  C   LIG d   1       1.902  82.652 111.283  0.00  0.00     0.161 C 
ATOM      2  C   LIG d   1       2.546  81.774 110.395  0.00  0.00     0.016 C 
ATOM      3  C   LIG d   1       2.016  80.518 110.020  0.00  0.00     0.038 C 
ATOM      4  C   LIG d   1       0.724  80.117 110.393  0.00  0.00     0.028 C 
ATOM      5  C   LIG d   1       0.247  80.749 111.697  0.00  0.00    -0.047 C 
ATOM      6  C   LIG d   1       0.441  82.281 111.613  0.00  0.00     0.091 C 
ENDROOT
BRANCH   1   7
ATOM      7  O   LIG d   1       1.975  83.999 110.776  0.00  0.00    -0.368 OA
BRANCH   7   8
ATOM      8  C   LIG d   1       2.677  84.955 111.608  0.00  0.00     0.119 C 
BRANCH   8   9
ATOM      9  C   LIG d   1       1.941  86.303 111.486  0.00  0.00     0.028 C 
ATOM     10  C   LIG d   1       0.986  86.344 110.281  0.00  0.00     0.006 C 
ENDBRANCH   8   9
BRANCH   8  11
ATOM     11  C   LIG d   1       4.092  85.218 111.082  0.00  0.00     0.028 C 
ATOM     12  C   LIG d   1       4.704  86.512 111.639  0.00  0.00     0.006 C 
ENDBRANCH   8  11
ENDBRANCH   7   8
ENDBRANCH   1   7
BRANCH   6  13
ATOM     13  N   LIG d   1       0.077  82.968 112.879  0.00  0.00    -0.311 N 
ATOM     14  C   LIG d   1      -0.769  83.995 112.938  0.00  0.00     0.210 C 
ATOM     15  C   LIG d   1      -0.990  84.571 114.341  0.00  0.00     0.109 C 
ATOM     16  O   LIG d   1      -1.382  84.464 111.967  0.00  0.00    -0.276 OA
ATOM     17  H   LIG d   1       0.505  82.633 113.719  0.00  0.00     0.149 HD
ENDBRANCH   6  13
BRANCH   5  18
ATOM     18  N   LIG d   1      -1.161  80.355 111.894  0.00  0.00     0.381 N 
ATOM     19  H   LIG d   1      -1.741  81.169 111.914  0.00  0.00    -0.090 HD
ATOM     20  H   LIG d   1      -1.246  79.885 112.778  0.00  0.00    -0.090 HD
ATOM     21  H   LIG d   1      -1.451  79.749 111.158  0.00  0.00    -0.090 HD
ENDBRANCH   5  18
BRANCH   3  22
ATOM     22  C   LIG d   1       2.797  79.630 109.296  0.00  0.00     0.382 C 
ATOM     23  O   LIG d   1       2.260  78.672 108.691  0.00  0.00    -0.241 OA
ATOM     24  O   LIG d   1       4.037  79.751 109.277  0.00  0.00    -0.241 OA
ENDBRANCH   3  22
TORSDOF 7
ENDMDL
MODEL 3
REMARK VINA RESULT:      -5.9      1.577      4.985
REMARK  7 active torsions:
REMARK  status: ('A' for Active; 'I' for Inactive)
REMARK    1  A    between atoms: C_2  and  C_3 
REMARK    2  A    between atoms: C_3  and  O_6 
REMARK    3  A    between atoms: C_3  and  C_4 
REMARK    4  A    between atoms: C_7  and  O_6 
REMARK    5  A    between atoms: C_9  and  C_10 
REMARK    6  A    between atoms: N_15  and  C_14 
REMARK    7  A    between atoms: N_20  and  C_19 
REMARK       I    between atoms: C_22  and  N_20 
ROOT
ATOM      1  C   LIG d   1       0.312  83.234 111.518  0.00  0.00     0.161 C 
ATOM      2  C   LIG d   1      -0.740  82.963 112.409  0.00  0.00     0.016 C 
ATOM      3  C   LIG d   1      -1.240  81.663 112.649  0.00  0.00     0.038 C 
ATOM      4  C   LIG d   1      -0.617  80.520 112.126  0.00  0.00     0.028 C 
ATOM      5  C   LIG d   1       0.133  80.782 110.824  0.00  0.00    -0.047 C 
ATOM      6  C   LIG d   1       1.077  81.989 111.023  0.00  0.00     0.091 C 
ENDROOT
BRANCH   1   7
ATOM      7  O   LIG d   1       1.224  84.179 112.113  0.00  0.00    -0.368 OA
BRANCH   7   8
ATOM      8  C   LIG d   1       1.281  85.487 111.493  0.00  0.00     0.119 C 
BRANCH   8   9
ATOM      9  C   LIG d   1       0.193  85.530 110.403  0.00  0.00     0.028 C 
ATOM     10  C   LIG d   1       0.779  85.733 108.996  0.00  0.00     0.006 C 
ENDBRANCH   8   9
BRANCH   8  11
ATOM     11  C   LIG d   1       2.605  85.696 110.753  0.00  0.00     0.028 C 
ATOM     12  C   LIG d   1       3.794  85.022 111.456  0.00  0.00     0.006 C 
ENDBRANCH   8  11
ENDBRANCH   7   8
ENDBRANCH   1   7
BRANCH   6  13
ATOM     13  N   LIG d   1       1.787  82.366 109.773  0.00  0.00    -0.311 N 
ATOM     14  C   LIG d   1       3.033  81.987 109.494  0.00  0.00     0.210 C 
ATOM     15  C   LIG d   1       3.583  82.501 108.160  0.00  0.00     0.109 C 
ATOM     16  O   LIG d   1       3.724  81.246 110.211  0.00  0.00    -0.276 OA
ATOM     17  H   LIG d   1       1.289  82.940 109.120  0.00  0.00     0.149 HD
ENDBRANCH   6  13
BRANCH   5  18
ATOM     18  N   LIG d   1       0.847  79.542 110.464  0.00  0.00     0.381 N 
ATOM     19  H   LIG d   1       0.253  78.959 109.909  0.00  0.00    -0.090 HD
ATOM     20  H   LIG d   1       1.080  79.045 111.305  0.00  0.00    -0.090 HD
ATOM     21  H   LIG d   1       1.677  79.762 109.958  0.00  0.00    -0.090 HD
ENDBRANCH   5  18
BRANCH   3  22
ATOM     22  C   LIG d   1      -2.401  81.499 113.390  0.00  0.00     0.382 C 
ATOM     23  O   LIG d   1      -2.365  80.887 114.485  0.00  0.00    -0.241 OA
ATOM     24  O   LIG d   1      -3.491  81.917 112.957  0.00  0.00    -0.241 OA
ENDBRANCH   3  22
TORSDOF 7
ENDMDL
MODEL 4
REMARK VINA RESULT:      -5.7      2.535      4.839
REMARK  7 active torsions:
REMARK  status: ('A' for Active; 'I' for Inactive)
REMARK    1  A    between atoms: C_2  and  C_3 
REMARK    2  A    between atoms: C_3  and  O_6 
REMARK    3  A    between atoms: C_3  and  C_4 
REMARK    4  A    between atoms: C_7  and  O_6 
REMARK    5  A    between atoms: C_9  and  C_10 
REMARK    6  A    between atoms: N_15  and  C_14 
REMARK    7  A    between atoms: N_20  and  C_19 
REMARK       I    between atoms: C_22  and  N_20 
ROOT
ATOM      1  C   LIG d   1       2.424  83.661 111.634  0.00  0.00     0.161 C 
ATOM      2  C   LIG d   1       1.693  82.464 111.556  0.00  0.00     0.016 C 
ATOM      3  C   LIG d   1       0.415  82.293 112.136  0.00  0.00     0.038 C 
ATOM      4  C   LIG d   1      -0.289  83.363 112.708  0.00  0.00     0.028 C 
ATOM      5  C   LIG d   1       0.617  84.461 113.255  0.00  0.00    -0.047 C 
ATOM      6  C   LIG d   1       1.625  84.873 112.158  0.00  0.00     0.091 C 
ENDROOT
BRANCH   1   7
ATOM      7  O   LIG d   1       3.007  83.962 110.351  0.00  0.00    -0.368 OA
BRANCH   7   8
ATOM      8  C   LIG d   1       2.708  83.032 109.281  0.00  0.00     0.119 C 
BRANCH   8   9
ATOM      9  C   LIG d   1       4.048  82.606 108.651  0.00  0.00     0.028 C 
ATOM     10  C   LIG d   1       4.276  81.087 108.730  0.00  0.00     0.006 C 
ENDBRANCH   8   9
BRANCH   8  11
ATOM     11  C   LIG d   1       1.928  83.714 108.153  0.00  0.00     0.028 C 
ATOM     12  C   LIG d   1       1.189  84.978 108.619  0.00  0.00     0.006 C 
ENDBRANCH   8  11
ENDBRANCH   7   8
ENDBRANCH   1   7
BRANCH   6  13
ATOM     13  N   LIG d   1       2.604  85.883 112.638  0.00  0.00    -0.311 N 
ATOM     14  C   LIG d   1       2.774  87.071 112.061  0.00  0.00     0.210 C 
ATOM     15  C   LIG d   1       3.849  87.954 112.702  0.00  0.00     0.109 C 
ATOM     16  O   LIG d   1       2.114  87.491 111.098  0.00  0.00    -0.276 OA
ATOM     17  H   LIG d   1       3.159  85.638 113.434  0.00  0.00     0.149 HD
ENDBRANCH   6  13
BRANCH   5  18
ATOM     18  N   LIG d   1      -0.246  85.573 113.695  0.00  0.00     0.381 N 
ATOM     19  H   LIG d   1      -0.786  85.289 114.488  0.00  0.00    -0.090 HD
ATOM     20  H   LIG d   1      -0.878  85.808 112.951  0.00  0.00    -0.090 HD
ATOM     21  H   LIG d   1       0.312  86.365 113.930  0.00  0.00    -0.090 HD
ENDBRANCH   5  18
BRANCH   3  22
ATOM     22  C   LIG d   1      -0.155  81.030 112.182  0.00  0.00     0.382 C 
ATOM     23  O   LIG d   1      -0.419  80.422 111.117  0.00  0.00    -0.241 OA
ATOM     24  O   LIG d   1      -0.450  80.510 113.275  0.00  0.00    -0.241 OA
ENDBRANCH   3  22
TORSDOF 7
ENDMDL
MODEL 5
REMARK VINA RESULT:      -5.6      2.614      5.671
REMARK  7 active torsions:
REMARK  status: ('A' for Active; 'I' for Inactive)
REMARK    1  A    between atoms: C_2  and  C_3 
REMARK    2  A    between atoms: C_3  and  O_6 
REMARK    3  A    between atoms: C_3  and  C_4 
REMARK    4  A    between atoms: C_7  and  O_6 
REMARK    5  A    between atoms: C_9  and  C_10 
REMARK    6  A    between atoms: N_15  and  C_14 
REMARK    7  A    between atoms: N_20  and  C_19 
REMARK       I    between atoms: C_22  and  N_20 
ROOT
ATOM      1  C   LIG d   1       0.796  83.549 111.700  0.00  0.00     0.161 C 
ATOM      2  C   LIG d   1      -0.295  82.711 111.987  0.00  0.00     0.016 C 
ATOM      3  C   LIG d   1      -1.206  82.954 113.041  0.00  0.00     0.038 C 
ATOM      4  C   LIG d   1      -1.176  84.140 113.789  0.00  0.00     0.028 C 
ATOM      5  C   LIG d   1       0.210  84.773 113.865  0.00  0.00    -0.047 C 
ATOM      6  C   LIG d   1       0.780  84.906 112.434  0.00  0.00     0.091 C 
ENDROOT
BRANCH   1   7
ATOM      7  O   LIG d   1       0.894  83.751 110.276  0.00  0.00    -0.368 OA
BRANCH   7   8
ATOM      8  C   LIG d   1       2.025  83.126 109.620  0.00  0.00     0.119 C 
BRANCH   8   9
ATOM      9  C   LIG d   1       1.523  81.815 108.983  0.00  0.00     0.028 C 
ATOM     10  C   LIG d   1       2.026  80.569 109.731  0.00  0.00     0.006 C 
ENDBRANCH   8   9
BRANCH   8  11
ATOM     11  C   LIG d   1       3.092  82.701 110.634  0.00  0.00     0.028 C 
ATOM     12  C   LIG d   1       4.442  83.400 110.405  0.00  0.00     0.006 C 
ENDBRANCH   8  11
ENDBRANCH   7   8
ENDBRANCH   1   7
BRANCH   6  13
ATOM     13  N   LIG d   1       2.167  85.439 112.424  0.00  0.00    -0.311 N 
ATOM     14  C   LIG d   1       2.522  86.546 111.774  0.00  0.00     0.210 C 
ATOM     15  C   LIG d   1       4.007  86.908 111.878  0.00  0.00     0.109 C 
ATOM     16  O   LIG d   1       1.743  87.280 111.149  0.00  0.00    -0.276 OA
ATOM     17  H   LIG d   1       2.858  84.923 112.933  0.00  0.00     0.149 HD
ENDBRANCH   6  13
BRANCH   5  18
ATOM     18  N   LIG d   1       0.070  86.069 114.555  0.00  0.00     0.381 N 
ATOM     19  H   LIG d   1      -0.255  85.922 115.489  0.00  0.00    -0.090 HD
ATOM     20  H   LIG d   1      -0.611  86.625 114.068  0.00  0.00    -0.090 HD
ATOM     21  H   LIG d   1       0.946  86.543 114.570  0.00  0.00    -0.090 HD
ENDBRANCH   5  18
BRANCH   3  22
ATOM     22  C   LIG d   1      -2.137  81.984 113.381  0.00  0.00     0.382 C 
ATOM     23  O   LIG d   1      -3.264  81.977 112.831  0.00  0.00    -0.241 OA
ATOM     24  O   LIG d   1      -1.879  81.143 114.263  0.00  0.00    -0.241 OA
ENDBRANCH   3  22
TORSDOF 7
ENDMDL
MODEL 6
REMARK VINA RESULT:      -5.3      1.831      2.590
REMARK  7 active torsions:
REMARK  status: ('A' for Active; 'I' for Inactive)
REMARK    1  A    between atoms: C_2  and  C_3 
REMARK    2  A    between atoms: C_3  and  O_6 
REMARK    3  A    between atoms: C_3  and  C_4 
REMARK    4  A    between atoms: C_7  and  O_6 
REMARK    5  A    between atoms: C_9  and  C_10 
REMARK    6  A    between atoms: N_15  and  C_14 
REMARK    7  A    between atoms: N_20  and  C_19 
REMARK       I    between atoms: C_22  and  N_20 
ROOT
ATOM      1  C   LIG d   1       0.823  82.630 111.052  0.00  0.00     0.161 C 
ATOM      2  C   LIG d   1       2.099  83.118 110.722  0.00  0.00     0.016 C 
ATOM      3  C   LIG d   1       3.095  82.332 110.098  0.00  0.00     0.038 C 
ATOM      4  C   LIG d   1       2.830  81.040 109.622  0.00  0.00     0.028 C 
ATOM      5  C   LIG d   1       1.715  80.331 110.384  0.00  0.00    -0.047 C 
ATOM      6  C   LIG d   1       0.478  81.256 110.441  0.00  0.00     0.091 C 
ENDROOT
BRANCH   1   7
ATOM      7  O   LIG d   1      -0.179  83.603 110.697  0.00  0.00    -0.368 OA
BRANCH   7   8
ATOM      8  C   LIG d   1      -0.829  84.280 111.800  0.00  0.00     0.119 C 
BRANCH   8   9
ATOM      9  C   LIG d   1      -0.842  85.787 111.476  0.00  0.00     0.028 C 
ATOM     10  C   LIG d   1      -0.255  86.093 110.088  0.00  0.00     0.006 C 
ENDBRANCH   8   9
BRANCH   8  11
ATOM     11  C   LIG d   1      -0.016  84.150 113.092  0.00  0.00     0.028 C 
ATOM     12  C   LIG d   1      -0.896  83.901 114.327  0.00  0.00     0.006 C 
ENDBRANCH   8  11
ENDBRANCH   7   8
ENDBRANCH   1   7
BRANCH   6  13
ATOM     13  N   LIG d   1      -0.630  80.673 111.241  0.00  0.00    -0.311 N 
ATOM     14  C   LIG d   1      -0.555  80.464 112.554  0.00  0.00     0.210 C 
ATOM     15  C   LIG d   1      -1.803  79.835 113.181  0.00  0.00     0.109 C 
ATOM     16  O   LIG d   1       0.415  80.769 113.265  0.00  0.00    -0.276 OA
ATOM     17  H   LIG d   1      -1.466  80.425 110.749  0.00  0.00     0.149 HD
ENDBRANCH   6  13
BRANCH   5  18
ATOM     18  N   LIG d   1       1.449  79.052 109.698  0.00  0.00     0.381 N 
ATOM     19  H   LIG d   1       1.480  79.187 108.707  0.00  0.00    -0.090 HD
ATOM     20  H   LIG d   1       0.528  78.736 109.944  0.00  0.00    -0.090 HD
ATOM     21  H   LIG d   1       2.125  78.372 109.970  0.00  0.00    -0.090 HD
ENDBRANCH   5  18
BRANCH   3  22
ATOM     22  C   LIG d   1       4.386  82.825 109.981  0.00  0.00     0.382 C 
ATOM     23  O   LIG d   1       4.918  83.425 110.946  0.00  0.00    -0.241 OA
ATOM     24  O   LIG d   1       5.009  82.716 108.908  0.00  0.00    -0.241 OA
ENDBRANCH   3  22
TORSDOF 7
ENDMDL
MODEL 7
REMARK VINA RESULT:      -5.0      2.708      5.284
REMARK  7 active torsions:
REMARK  status: ('A' for Active; 'I' for Inactive)
REMARK    1  A    between atoms: C_2  and  C_3 
REMARK    2  A    between atoms: C_3  and  O_6 
REMARK    3  A    between atoms: C_3  and  C_4 
REMARK    4  A    between atoms: C_7  and  O_6 
REMARK    5  A    between atoms: C_9  and  C_10 
REMARK    6  A    between atoms: N_15  and  C_14 
REMARK    7  A    between atoms: N_20  and  C_19 
REMARK       I    between atoms: C_22  and  N_20 
ROOT
ATOM      1  C   LIG d   1       1.009  83.242 111.905  0.00  0.00     0.161 C 
ATOM      2  C   LIG d   1      -0.104  82.397 112.051  0.00  0.00     0.016 C 
ATOM      3  C   LIG d   1      -1.175  82.667 112.933  0.00  0.00     0.038 C 
ATOM      4  C   LIG d   1      -1.279  83.883 113.623  0.00  0.00     0.028 C 
ATOM      5  C   LIG d   1       0.069  84.544 113.892  0.00  0.00    -0.047 C 
ATOM      6  C   LIG d   1       0.860  84.628 112.567  0.00  0.00     0.091 C 
ENDROOT
BRANCH   1   7
ATOM      7  O   LIG d   1       1.333  83.387 110.508  0.00  0.00    -0.368 OA
BRANCH   7   8
ATOM      8  C   LIG d   1       2.143  82.333 109.929  0.00  0.00     0.119 C 
BRANCH   8   9
ATOM      9  C   LIG d   1       3.439  82.237 110.758  0.00  0.00     0.028 C 
ATOM     10  C   LIG d   1       4.484  83.284 110.336  0.00  0.00     0.006 C 
ENDBRANCH   8   9
BRANCH   8  11
ATOM     11  C   LIG d   1       2.594  82.693 108.511  0.00  0.00     0.028 C 
ATOM     12  C   LIG d   1       1.692  83.745 107.847  0.00  0.00     0.006 C 
ENDBRANCH   8  11
ENDBRANCH   7   8
ENDBRANCH   1   7
BRANCH   6  13
ATOM     13  N   LIG d   1       2.224  85.186 112.756  0.00  0.00    -0.311 N 
ATOM     14  C   LIG d   1       3.148  84.617 113.529  0.00  0.00     0.210 C 
ATOM     15  C   LIG d   1       4.482  85.367 113.600  0.00  0.00     0.109 C 
ATOM     16  O   LIG d   1       3.000  83.546 114.136  0.00  0.00    -0.276 OA
ATOM     17  H   LIG d   1       2.440  86.037 112.274  0.00  0.00     0.149 HD
ENDBRANCH   6  13
BRANCH   5  18
ATOM     18  N   LIG d   1      -0.195  85.866 114.493  0.00  0.00     0.381 N 
ATOM     19  H   LIG d   1      -1.182  86.014 114.566  0.00  0.00    -0.090 HD
ATOM     20  H   LIG d   1       0.187  86.577 113.894  0.00  0.00    -0.090 HD
ATOM     21  H   LIG d   1       0.224  85.920 115.395  0.00  0.00    -0.090 HD
ENDBRANCH   5  18
BRANCH   3  22
ATOM     22  C   LIG d   1      -2.138  81.695 113.162  0.00  0.00     0.382 C 
ATOM     23  O   LIG d   1      -1.795  80.552 113.549  0.00  0.00    -0.241 OA
ATOM     24  O   LIG d   1      -3.341  81.934 112.945  0.00  0.00    -0.241 OA
ENDBRANCH   3  22
TORSDOF 7
ENDMDL
MODEL 8
REMARK VINA RESULT:      -3.9     28.811     31.090
REMARK  7 active torsions:
REMARK  status: ('A' for Active; 'I' for Inactive)
REMARK    1  A    between atoms: C_2  and  C_3 
REMARK    2  A    between atoms: C_3  and  O_6 
REMARK    3  A    between atoms: C_3  and  C_4 
REMARK    4  A    between atoms: C_7  and  O_6 
REMARK    5  A    between atoms: C_9  and  C_10 
REMARK    6  A    between atoms: N_15  and  C_14 
REMARK    7  A    between atoms: N_20  and  C_19 
REMARK       I    between atoms: C_22  and  N_20 
ROOT
ATOM      1  C   LIG d   1     -26.115  67.568 110.059  0.00  0.00     0.161 C 
ATOM      2  C   LIG d   1     -25.363  68.132 111.103  0.00  0.00     0.016 C 
ATOM      3  C   LIG d   1     -23.955  68.029 111.190  0.00  0.00     0.038 C 
ATOM      4  C   LIG d   1     -23.186  67.482 110.153  0.00  0.00     0.028 C 
ATOM      5  C   LIG d   1     -23.940  66.453 109.318  0.00  0.00    -0.047 C 
ATOM      6  C   LIG d   1     -25.284  67.064 108.861  0.00  0.00     0.091 C 
ENDROOT
BRANCH   1   7
ATOM      7  O   LIG d   1     -27.115  68.508 109.615  0.00  0.00    -0.368 OA
BRANCH   7   8
ATOM      8  C   LIG d   1     -26.640  69.602 108.792  0.00  0.00     0.119 C 
BRANCH   8   9
ATOM      9  C   LIG d   1     -27.066  70.915 109.477  0.00  0.00     0.028 C 
ATOM     10  C   LIG d   1     -26.819  72.146 108.590  0.00  0.00     0.006 C 
ENDBRANCH   8   9
BRANCH   8  11
ATOM     11  C   LIG d   1     -27.334  69.613 107.427  0.00  0.00     0.028 C 
ATOM     12  C   LIG d   1     -28.608  68.755 107.399  0.00  0.00     0.006 C 
ENDBRANCH   8  11
ENDBRANCH   7   8
ENDBRANCH   1   7
BRANCH   6  13
ATOM     13  N   LIG d   1     -26.122  66.094 108.109  0.00  0.00    -0.311 N 
ATOM     14  C   LIG d   1     -26.151  66.027 106.779  0.00  0.00     0.210 C 
ATOM     15  C   LIG d   1     -27.098  64.968 106.206  0.00  0.00     0.109 C 
ATOM     16  O   LIG d   1     -25.459  66.722 106.021  0.00  0.00    -0.276 OA
ATOM     17  H   LIG d   1     -26.691  65.470 108.647  0.00  0.00     0.149 HD
ENDBRANCH   6  13
BRANCH   5  18
ATOM     18  N   LIG d   1     -23.068  66.067 108.192  0.00  0.00     0.381 N 
ATOM     19  H   LIG d   1     -22.917  65.078 108.203  0.00  0.00    -0.090 HD
ATOM     20  H   LIG d   1     -22.179  66.523 108.298  0.00  0.00    -0.090 HD
ATOM     21  H   LIG d   1     -23.486  66.337 107.329  0.00  0.00    -0.090 HD
ENDBRANCH   5  18
BRANCH   3  22
ATOM     22  C   LIG d   1     -23.306  68.442 112.344  0.00  0.00     0.382 C 
ATOM     23  O   LIG d   1     -23.965  68.661 113.389  0.00  0.00    -0.241 OA
ATOM     24  O   LIG d   1     -22.077  68.641 112.341  0.00  0.00    -0.241 OA
ENDBRANCH   3  22
TORSDOF 7
ENDMDL
MODEL 9
REMARK VINA RESULT:      -3.9     29.257     30.409
REMARK  7 active torsions:
REMARK  status: ('A' for Active; 'I' for Inactive)
REMARK    1  A    between atoms: C_2  and  C_3 
REMARK    2  A    between atoms: C_3  and  O_6 
REMARK    3  A    between atoms: C_3  and  C_4 
REMARK    4  A    between atoms: C_7  and  O_6 
REMARK    5  A    between atoms: C_9  and  C_10 
REMARK    6  A    between atoms: N_15  and  C_14 
REMARK    7  A    between atoms: N_20  and  C_19 
REMARK       I    between atoms: C_22  and  N_20 
ROOT
ATOM      1  C   LIG d   1     -22.958  65.152 108.020  0.00  0.00     0.161 C 
ATOM      2  C   LIG d   1     -21.681  64.636 107.744  0.00  0.00     0.016 C 
ATOM      3  C   LIG d   1     -21.118  64.603 106.447  0.00  0.00     0.038 C 
ATOM      4  C   LIG d   1     -21.738  65.226 105.354  0.00  0.00     0.028 C 
ATOM      5  C   LIG d   1     -23.254  65.314 105.487  0.00  0.00    -0.047 C 
ATOM      6  C   LIG d   1     -23.603  65.937 106.858  0.00  0.00     0.091 C 
ENDROOT
BRANCH   1   7
ATOM      7  O   LIG d   1     -22.910  65.966 109.209  0.00  0.00    -0.368 OA
BRANCH   7   8
ATOM      8  C   LIG d   1     -23.544  65.410 110.387  0.00  0.00     0.119 C 
BRANCH   8   9
ATOM      9  C   LIG d   1     -24.782  66.274 110.697  0.00  0.00     0.028 C 
ATOM     10  C   LIG d   1     -24.578  67.750 110.314  0.00  0.00     0.006 C 
ENDBRANCH   8   9
BRANCH   8  11
ATOM     11  C   LIG d   1     -22.642  65.538 111.618  0.00  0.00     0.028 C 
ATOM     12  C   LIG d   1     -21.356  64.704 111.503  0.00  0.00     0.006 C 
ENDBRANCH   8  11
ENDBRANCH   7   8
ENDBRANCH   1   7
BRANCH   6  13
ATOM     13  N   LIG d   1     -25.068  65.982 107.105  0.00  0.00    -0.311 N 
ATOM     14  C   LIG d   1     -25.821  67.051 106.851  0.00  0.00     0.210 C 
ATOM     15  C   LIG d   1     -27.305  66.893 107.197  0.00  0.00     0.109 C 
ATOM     16  O   LIG d   1     -25.407  68.103 106.342  0.00  0.00    -0.276 OA
ATOM     17  H   LIG d   1     -25.491  65.160 107.488  0.00  0.00     0.149 HD
ENDBRANCH   6  13
BRANCH   5  18
ATOM     18  N   LIG d   1     -23.756  66.106 104.348  0.00  0.00     0.381 N 
ATOM     19  H   LIG d   1     -24.600  66.577 104.609  0.00  0.00    -0.090 HD
ATOM     20  H   LIG d   1     -23.964  65.485 103.587  0.00  0.00    -0.090 HD
ATOM     21  H   LIG d   1     -23.070  66.771 104.066  0.00  0.00    -0.090 HD
ENDBRANCH   5  18
BRANCH   3  22
ATOM     22  C   LIG d   1     -19.940  63.905 106.227  0.00  0.00     0.382 C 
ATOM     23  O   LIG d   1     -19.061  63.862 107.121  0.00  0.00    -0.241 OA
ATOM     24  O   LIG d   1     -19.727  63.356 105.130  0.00  0.00    -0.241 OA
ENDBRANCH   3  22
TORSDOF 7
ENDMDL
