MODEL 1
REMARK VINA RESULT:      -6.6      0.000      0.000
REMARK  7 active torsions:
REMARK  status: ('A' for Active; 'I' for Inactive)
REMARK    1  A    between atoms: C_2  and  C_3 
REMARK    2  A    between atoms: C_3  and  O_6 
REMARK    3  A    between atoms: C_3  and  C_4 
REMARK    4  A    between atoms: C_7  and  O_6 
REMARK    5  A    between atoms: C_9  and  C_10 
REMARK    6  A    between atoms: N_15  and  C_14 
REMARK    7  A    between atoms: N_20  and  C_19 
REMARK       I    between atoms: C_22  and  N_20 
ROOT
ATOM      1  C   LIG d   1       0.475  82.927 111.447  0.00  0.00     0.161 C 
ATOM      2  C   LIG d   1      -0.618  82.779 112.318  0.00  0.00     0.016 C 
ATOM      3  C   LIG d   1      -1.168  81.525 112.670  0.00  0.00     0.038 C 
ATOM      4  C   LIG d   1      -0.563  80.317 112.292  0.00  0.00     0.028 C 
ATOM      5  C   LIG d   1       0.242  80.421 111.001  0.00  0.00    -0.047 C 
ATOM      6  C   LIG d   1       1.217  81.616 111.112  0.00  0.00     0.091 C 
ENDROOT
BRANCH   1   7
ATOM      7  O   LIG d   1       1.394  83.902 111.978  0.00  0.00    -0.368 OA
BRANCH   7   8
ATOM      8  C   LIG d   1       1.430  85.181 111.298  0.00  0.00     0.119 C 
BRANCH   8   9
ATOM      9  C   LIG d   1       0.560  85.056 110.032  0.00  0.00     0.028 C 
ATOM     10  C   LIG d   1      -0.683  85.960 110.082  0.00  0.00     0.006 C 
ENDBRANCH   8   9
BRANCH   8  11
ATOM     11  C   LIG d   1       2.839  85.504 110.792  0.00  0.00     0.028 C 
ATOM     12  C   LIG d   1       3.942  84.959 111.713  0.00  0.00     0.006 C 
ENDBRANCH   8  11
ENDBRANCH   7   8
ENDBRANCH   1   7
BRANCH   6  13
ATOM     13  N   LIG d   1       1.984  81.840 109.860  0.00  0.00    -0.311 N 
ATOM     14  C   LIG d   1       3.315  81.826 109.802  0.00  0.00     0.210 C 
ATOM     15  C   LIG d   1       3.905  82.100 108.415  0.00  0.00     0.109 C 
ATOM     16  O   LIG d   1       4.061  81.580 110.761  0.00  0.00    -0.276 OA
ATOM     17  H   LIG d   1       1.456  82.017 109.027  0.00  0.00     0.149 HD
ENDBRANCH   6  13
BRANCH   5  18
ATOM     18  N   LIG d   1       0.929  79.132 110.799  0.00  0.00     0.381 N 
ATOM     19  H   LIG d   1       1.716  79.067 111.412  0.00  0.00    -0.090 HD
ATOM     20  H   LIG d   1       1.262  79.086 109.852  0.00  0.00    -0.090 HD
ATOM     21  H   LIG d   1       0.299  78.379 110.974  0.00  0.00    -0.090 HD
ENDBRANCH   5  18
BRANCH   3  22
ATOM     22  C   LIG d   1      -2.360  81.472 113.377  0.00  0.00     0.382 C 
ATOM     23  O   LIG d   1      -3.407  81.948 112.877  0.00  0.00    -0.241 OA
ATOM     24  O   LIG d   1      -2.392  80.994 114.526  0.00  0.00    -0.241 OA
ENDBRANCH   3  22
TORSDOF 7
ENDMDL
MODEL 2
REMARK VINA RESULT:      -6.2      1.865      4.920
REMARK  7 active torsions:
REMARK  status: ('A' for Active; 'I' for Inactive)
REMARK    1  A    between atoms: C_2  and  C_3 
REMARK    2  A    between atoms: C_3  and  O_6 
REMARK    3  A    between atoms: C_3  and  C_4 
REMARK    4  A    between atoms: C_7  and  O_6 
REMARK    5  A    between atoms: C_9  and  C_10 
REMARK    6  A    between atoms: N_15  and  C_14 
REMARK    7  A    between atoms: N_20  and  C_19 
REMARK       I    between atoms: C_22  and  N_20 
ROOT
ATOM      1  C   LIG d   1       1.622  83.237 111.215  0.00  0.00     0.161 C 
ATOM      2  C   LIG d   1       2.836  83.178 110.510  0.00  0.00     0.016 C 
ATOM      3  C   LIG d   1       3.062  82.304 109.422  0.00  0.00     0.038 C 
ATOM      4  C   LIG d   1       2.032  81.531 108.865  0.00  0.00     0.028 C 
ATOM      5  C   LIG d   1       0.930  81.184 109.860  0.00  0.00    -0.047 C 
ATOM      6  C   LIG d   1       0.452  82.481 110.552  0.00  0.00     0.091 C 
ENDROOT
BRANCH   1   7
ATOM      7  O   LIG d   1       1.261  84.612 111.452  0.00  0.00    -0.368 OA
BRANCH   7   8
ATOM      8  C   LIG d   1       1.702  85.567 110.457  0.00  0.00     0.119 C 
BRANCH   8   9
ATOM      9  C   LIG d   1       1.964  86.902 111.181  0.00  0.00     0.028 C 
ATOM     10  C   LIG d   1       2.686  86.709 112.525  0.00  0.00     0.006 C 
ENDBRANCH   8   9
BRANCH   8  11
ATOM     11  C   LIG d   1       0.595  85.867 109.443  0.00  0.00     0.028 C 
ATOM     12  C   LIG d   1      -0.800  85.936 110.086  0.00  0.00     0.006 C 
ENDBRANCH   8  11
ENDBRANCH   7   8
ENDBRANCH   1   7
BRANCH   6  13
ATOM     13  N   LIG d   1      -0.568  82.220 111.602  0.00  0.00    -0.311 N 
ATOM     14  C   LIG d   1      -0.377  81.379 112.617  0.00  0.00     0.210 C 
ATOM     15  C   LIG d   1      -1.564  81.242 113.575  0.00  0.00     0.109 C 
ATOM     16  O   LIG d   1       0.675  80.758 112.832  0.00  0.00    -0.276 OA
ATOM     17  H   LIG d   1      -1.439  82.707 111.522  0.00  0.00     0.149 HD
ENDBRANCH   6  13
BRANCH   5  18
ATOM     18  N   LIG d   1      -0.142  80.497 109.116  0.00  0.00     0.381 N 
ATOM     19  H   LIG d   1      -0.160  79.528 109.364  0.00  0.00    -0.090 HD
ATOM     20  H   LIG d   1       0.049  80.566 108.132  0.00  0.00    -0.090 HD
ATOM     21  H   LIG d   1      -1.022  80.916 109.320  0.00  0.00    -0.090 HD
ENDBRANCH   5  18
BRANCH   3  22
ATOM     22  C   LIG d   1       4.341  82.168 108.904  0.00  0.00     0.382 C 
ATOM     23  O   LIG d   1       4.687  81.091 108.362  0.00  0.00    -0.241 OA
ATOM     24  O   LIG d   1       5.168  83.093 109.012  0.00  0.00    -0.241 OA
ENDBRANCH   3  22
TORSDOF 7
ENDMDL
MODEL 3
REMARK VINA RESULT:      -6.0      2.347      4.093
REMARK  7 active torsions:
REMARK  status: ('A' for Active; 'I' for Inactive)
REMARK    1  A    between atoms: C_2  and  C_3 
REMARK    2  A    between atoms: C_3  and  O_6 
REMARK    3  A    between atoms: C_3  and  C_4 
REMARK    4  A    between atoms: C_7  and  O_6 
REMARK    5  A    between atoms: C_9  and  C_10 
REMARK    6  A    between atoms: N_15  and  C_14 
REMARK    7  A    between atoms: N_20  and  C_19 
REMARK       I    between atoms: C_22  and  N_20 
ROOT
ATOM      1  C   LIG d   1       2.642  82.145 112.086  0.00  0.00     0.161 C 
ATOM      2  C   LIG d   1       1.735  81.088 112.264  0.00  0.00     0.016 C 
ATOM      3  C   LIG d   1       0.332  81.263 112.296  0.00  0.00     0.038 C 
ATOM      4  C   LIG d   1      -0.268  82.495 111.998  0.00  0.00     0.028 C 
ATOM      5  C   LIG d   1       0.622  83.694 112.311  0.00  0.00    -0.047 C 
ATOM      6  C   LIG d   1       2.002  83.480 111.649  0.00  0.00     0.091 C 
ENDROOT
BRANCH   1   7
ATOM      7  O   LIG d   1       3.671  81.755 111.156  0.00  0.00    -0.368 OA
BRANCH   7   8
ATOM      8  C   LIG d   1       3.219  81.331 109.847  0.00  0.00     0.119 C 
BRANCH   8   9
ATOM      9  C   LIG d   1       3.701  79.882 109.637  0.00  0.00     0.028 C 
ATOM     10  C   LIG d   1       2.537  78.880 109.567  0.00  0.00     0.006 C 
ENDBRANCH   8   9
BRANCH   8  11
ATOM     11  C   LIG d   1       3.888  82.145 108.735  0.00  0.00     0.028 C 
ATOM     12  C   LIG d   1       4.944  83.127 109.269  0.00  0.00     0.006 C 
ENDBRANCH   8  11
ENDBRANCH   7   8
ENDBRANCH   1   7
BRANCH   6  13
ATOM     13  N   LIG d   1       2.962  84.567 111.976  0.00  0.00    -0.311 N 
ATOM     14  C   LIG d   1       3.076  85.684 111.259  0.00  0.00     0.210 C 
ATOM     15  C   LIG d   1       4.141  86.666 111.757  0.00  0.00     0.109 C 
ATOM     16  O   LIG d   1       2.374  85.969 110.277  0.00  0.00    -0.276 OA
ATOM     17  H   LIG d   1       3.549  84.432 112.775  0.00  0.00     0.149 HD
ENDBRANCH   6  13
BRANCH   5  18
ATOM     18  N   LIG d   1      -0.071  84.902 111.825  0.00  0.00     0.381 N 
ATOM     19  H   LIG d   1      -0.574  85.329 112.577  0.00  0.00    -0.090 HD
ATOM     20  H   LIG d   1      -0.731  84.636 111.116  0.00  0.00    -0.090 HD
ATOM     21  H   LIG d   1       0.590  85.546 111.450  0.00  0.00    -0.090 HD
ENDBRANCH   5  18
BRANCH   3  22
ATOM     22  C   LIG d   1      -0.484  80.205 112.667  0.00  0.00     0.382 C 
ATOM     23  O   LIG d   1      -1.339  79.761 111.863  0.00  0.00    -0.241 OA
ATOM     24  O   LIG d   1      -0.407  79.719 113.811  0.00  0.00    -0.241 OA
ENDBRANCH   3  22
TORSDOF 7
ENDMDL
MODEL 4
REMARK VINA RESULT:      -5.9      2.388      4.954
REMARK  7 active torsions:
REMARK  status: ('A' for Active; 'I' for Inactive)
REMARK    1  A    between atoms: C_2  and  C_3 
REMARK    2  A    between atoms: C_3  and  O_6 
REMARK    3  A    between atoms: C_3  and  C_4 
REMARK    4  A    between atoms: C_7  and  O_6 
REMARK    5  A    between atoms: C_9  and  C_10 
REMARK    6  A    between atoms: N_15  and  C_14 
REMARK    7  A    between atoms: N_20  and  C_19 
REMARK       I    between atoms: C_22  and  N_20 
ROOT
ATOM      1  C   LIG d   1       0.389  82.535 111.341  0.00  0.00     0.161 C 
ATOM      2  C   LIG d   1       0.019  83.859 111.630  0.00  0.00     0.016 C 
ATOM      3  C   LIG d   1       0.158  84.924 110.711  0.00  0.00     0.038 C 
ATOM      4  C   LIG d   1       0.539  84.708 109.378  0.00  0.00     0.028 C 
ATOM      5  C   LIG d   1       1.403  83.466 109.188  0.00  0.00    -0.047 C 
ATOM      6  C   LIG d   1       0.702  82.261 109.855  0.00  0.00     0.091 C 
ENDROOT
BRANCH   1   7
ATOM      7  O   LIG d   1      -0.627  81.629 111.814  0.00  0.00    -0.368 OA
BRANCH   7   8
ATOM      8  C   LIG d   1      -0.469  81.146 113.171  0.00  0.00     0.119 C 
BRANCH   8   9
ATOM      9  C   LIG d   1       1.000  80.712 113.339  0.00  0.00     0.028 C 
ATOM     10  C   LIG d   1       1.672  81.373 114.554  0.00  0.00     0.006 C 
ENDBRANCH   8   9
BRANCH   8  11
ATOM     11  C   LIG d   1      -1.296  79.880 113.412  0.00  0.00     0.028 C 
ATOM     12  C   LIG d   1      -1.812  79.248 112.109  0.00  0.00     0.006 C 
ENDBRANCH   8  11
ENDBRANCH   7   8
ENDBRANCH   1   7
BRANCH   6  13
ATOM     13  N   LIG d   1       1.520  81.022 109.788  0.00  0.00    -0.311 N 
ATOM     14  C   LIG d   1       1.083  79.882 109.255  0.00  0.00     0.210 C 
ATOM     15  C   LIG d   1       2.080  78.720 109.307  0.00  0.00     0.109 C 
ATOM     16  O   LIG d   1      -0.023  79.733 108.715  0.00  0.00    -0.276 OA
ATOM     17  H   LIG d   1       2.443  81.063 110.176  0.00  0.00     0.149 HD
ENDBRANCH   6  13
BRANCH   5  18
ATOM     18  N   LIG d   1       1.611  83.285 107.739  0.00  0.00     0.381 N 
ATOM     19  H   LIG d   1       2.589  83.316 107.531  0.00  0.00    -0.090 HD
ATOM     20  H   LIG d   1       1.161  84.039 107.249  0.00  0.00    -0.090 HD
ATOM     21  H   LIG d   1       1.228  82.414 107.446  0.00  0.00    -0.090 HD
ENDBRANCH   5  18
BRANCH   3  22
ATOM     22  C   LIG d   1      -0.047  86.228 111.135  0.00  0.00     0.382 C 
ATOM     23  O   LIG d   1      -1.174  86.761 111.000  0.00  0.00    -0.241 OA
ATOM     24  O   LIG d   1       0.894  86.894 111.609  0.00  0.00    -0.241 OA
ENDBRANCH   3  22
TORSDOF 7
ENDMDL
MODEL 5
REMARK VINA RESULT:      -5.7      2.318      5.405
REMARK  7 active torsions:
REMARK  status: ('A' for Active; 'I' for Inactive)
REMARK    1  A    between atoms: C_2  and  C_3 
REMARK    2  A    between atoms: C_3  and  O_6 
REMARK    3  A    between atoms: C_3  and  C_4 
REMARK    4  A    between atoms: C_7  and  O_6 
REMARK    5  A    between atoms: C_9  and  C_10 
REMARK    6  A    between atoms: N_15  and  C_14 
REMARK    7  A    between atoms: N_20  and  C_19 
REMARK       I    between atoms: C_22  and  N_20 
ROOT
ATOM      1  C   LIG d   1       0.786  83.323 110.407  0.00  0.00     0.161 C 
ATOM      2  C   LIG d   1       1.652  84.422 110.288  0.00  0.00     0.016 C 
ATOM      3  C   LIG d   1       2.302  85.024 111.390  0.00  0.00     0.038 C 
ATOM      4  C   LIG d   1       2.247  84.468 112.677  0.00  0.00     0.028 C 
ATOM      5  C   LIG d   1       0.982  83.656 112.933  0.00  0.00    -0.047 C 
ATOM      6  C   LIG d   1       0.801  82.634 111.787  0.00  0.00     0.091 C 
ENDROOT
BRANCH   1   7
ATOM      7  O   LIG d   1       1.065  82.366 109.366  0.00  0.00    -0.368 OA
BRANCH   7   8
ATOM      8  C   LIG d   1       2.149  81.440 109.626  0.00  0.00     0.119 C 
BRANCH   8   9
ATOM      9  C   LIG d   1       3.198  81.631 108.514  0.00  0.00     0.028 C 
ATOM     10  C   LIG d   1       4.415  82.444 108.988  0.00  0.00     0.006 C 
ENDBRANCH   8   9
BRANCH   8  11
ATOM     11  C   LIG d   1       1.683  79.986 109.498  0.00  0.00     0.028 C 
ATOM     12  C   LIG d   1       2.842  78.980 109.580  0.00  0.00     0.006 C 
ENDBRANCH   8  11
ENDBRANCH   7   8
ENDBRANCH   1   7
BRANCH   6  13
ATOM     13  N   LIG d   1      -0.459  81.855 111.916  0.00  0.00    -0.311 N 
ATOM     14  C   LIG d   1      -0.546  80.707 112.584  0.00  0.00     0.210 C 
ATOM     15  C   LIG d   1      -1.933  80.057 112.576  0.00  0.00     0.109 C 
ATOM     16  O   LIG d   1       0.386  80.180 113.211  0.00  0.00    -0.276 OA
ATOM     17  H   LIG d   1      -1.272  82.226 111.464  0.00  0.00     0.149 HD
ENDBRANCH   6  13
BRANCH   5  18
ATOM     18  N   LIG d   1       1.119  83.022 114.257  0.00  0.00     0.381 N 
ATOM     19  H   LIG d   1       1.873  83.447 114.759  0.00  0.00    -0.090 HD
ATOM     20  H   LIG d   1       1.333  82.048 114.131  0.00  0.00    -0.090 HD
ATOM     21  H   LIG d   1       0.271  83.120 114.772  0.00  0.00    -0.090 HD
ENDBRANCH   5  18
BRANCH   3  22
ATOM     22  C   LIG d   1       2.984  86.218 111.217  0.00  0.00     0.382 C 
ATOM     23  O   LIG d   1       2.348  87.282 111.026  0.00  0.00    -0.241 OA
ATOM     24  O   LIG d   1       4.230  86.238 111.205  0.00  0.00    -0.241 OA
ENDBRANCH   3  22
TORSDOF 7
ENDMDL
MODEL 6
REMARK VINA RESULT:      -5.4     23.621     26.600
REMARK  7 active torsions:
REMARK  status: ('A' for Active; 'I' for Inactive)
REMARK    1  A    between atoms: C_2  and  C_3 
REMARK    2  A    between atoms: C_3  and  O_6 
REMARK    3  A    between atoms: C_3  and  C_4 
REMARK    4  A    between atoms: C_7  and  O_6 
REMARK    5  A    between atoms: C_9  and  C_10 
REMARK    6  A    between atoms: N_15  and  C_14 
REMARK    7  A    between atoms: N_20  and  C_19 
REMARK       I    between atoms: C_22  and  N_20 
ROOT
ATOM      1  C   LIG d   1     -25.612  85.799 113.665  0.00  0.00     0.161 C 
ATOM      2  C   LIG d   1     -24.470  86.617 113.650  0.00  0.00     0.016 C 
ATOM      3  C   LIG d   1     -23.164  86.127 113.419  0.00  0.00     0.038 C 
ATOM      4  C   LIG d   1     -22.928  84.799 113.035  0.00  0.00     0.028 C 
ATOM      5  C   LIG d   1     -23.993  83.826 113.531  0.00  0.00    -0.047 C 
ATOM      6  C   LIG d   1     -25.387  84.366 113.138  0.00  0.00     0.091 C 
ENDROOT
BRANCH   1   7
ATOM      7  O   LIG d   1     -26.680  86.438 112.939  0.00  0.00    -0.368 OA
BRANCH   7   8
ATOM      8  C   LIG d   1     -26.283  87.276 111.826  0.00  0.00     0.119 C 
BRANCH   8   9
ATOM      9  C   LIG d   1     -27.123  88.566 111.895  0.00  0.00     0.028 C 
ATOM     10  C   LIG d   1     -26.675  89.615 110.863  0.00  0.00     0.006 C 
ENDBRANCH   8   9
BRANCH   8  11
ATOM     11  C   LIG d   1     -26.642  86.630 110.485  0.00  0.00     0.028 C 
ATOM     12  C   LIG d   1     -28.100  86.148 110.427  0.00  0.00     0.006 C 
ENDBRANCH   8  11
ENDBRANCH   7   8
ENDBRANCH   1   7
BRANCH   6  13
ATOM     13  N   LIG d   1     -26.491  83.517 113.658  0.00  0.00    -0.311 N 
ATOM     14  C   LIG d   1     -27.054  82.536 112.956  0.00  0.00     0.210 C 
ATOM     15  C   LIG d   1     -28.189  81.798 113.673  0.00  0.00     0.109 C 
ATOM     16  O   LIG d   1     -26.701  82.186 111.820  0.00  0.00    -0.276 OA
ATOM     17  H   LIG d   1     -26.818  83.712 114.584  0.00  0.00     0.149 HD
ENDBRANCH   6  13
BRANCH   5  18
ATOM     18  N   LIG d   1     -23.698  82.505 112.944  0.00  0.00     0.381 N 
ATOM     19  H   LIG d   1     -24.060  82.460 112.013  0.00  0.00    -0.090 HD
ATOM     20  H   LIG d   1     -24.151  81.797 113.494  0.00  0.00    -0.090 HD
ATOM     21  H   LIG d   1     -22.714  82.349 112.934  0.00  0.00    -0.090 HD
ENDBRANCH   5  18
BRANCH   3  22
ATOM     22  C   LIG d   1     -22.073  86.961 113.611  0.00  0.00     0.382 C 
ATOM     23  O   LIG d   1     -22.141  87.902 114.438  0.00  0.00    -0.241 OA
ATOM     24  O   LIG d   1     -21.037  86.811 112.936  0.00  0.00    -0.241 OA
ENDBRANCH   3  22
TORSDOF 7
ENDMDL
MODEL 7
REMARK VINA RESULT:      -5.3      1.853      2.146
REMARK  7 active torsions:
REMARK  status: ('A' for Active; 'I' for Inactive)
REMARK    1  A    between atoms: C_2  and  C_3 
REMARK    2  A    between atoms: C_3  and  O_6 
REMARK    3  A    between atoms: C_3  and  C_4 
REMARK    4  A    between atoms: C_7  and  O_6 
REMARK    5  A    between atoms: C_9  and  C_10 
REMARK    6  A    between atoms: N_15  and  C_14 
REMARK    7  A    between atoms: N_20  and  C_19 
REMARK       I    between atoms: C_22  and  N_20 
ROOT
ATOM      1  C   LIG d   1       0.865  82.776 110.792  0.00  0.00     0.161 C 
ATOM      2  C   LIG d   1       0.618  82.229 112.062  0.00  0.00     0.016 C 
ATOM      3  C   LIG d   1       0.467  80.842 112.296  0.00  0.00     0.038 C 
ATOM      4  C   LIG d   1       0.705  79.891 111.293  0.00  0.00     0.028 C 
ATOM      5  C   LIG d   1       0.462  80.422 109.885  0.00  0.00    -0.047 C 
ATOM      6  C   LIG d   1       1.239  81.746 109.706  0.00  0.00     0.091 C 
ENDROOT
BRANCH   1   7
ATOM      7  O   LIG d   1       1.881  83.793 110.889  0.00  0.00    -0.368 OA
BRANCH   7   8
ATOM      8  C   LIG d   1       1.594  84.899 111.779  0.00  0.00     0.119 C 
BRANCH   8   9
ATOM      9  C   LIG d   1       0.611  85.837 111.051  0.00  0.00     0.028 C 
ATOM     10  C   LIG d   1       0.858  85.881 109.534  0.00  0.00     0.006 C 
ENDBRANCH   8   9
BRANCH   8  11
ATOM     11  C   LIG d   1       2.844  85.745 112.039  0.00  0.00     0.028 C 
ATOM     12  C   LIG d   1       2.512  87.167 112.520  0.00  0.00     0.006 C 
ENDBRANCH   8  11
ENDBRANCH   7   8
ENDBRANCH   1   7
BRANCH   6  13
ATOM     13  N   LIG d   1       0.988  82.376 108.383  0.00  0.00    -0.311 N 
ATOM     14  C   LIG d   1       1.960  82.797 107.576  0.00  0.00     0.210 C 
ATOM     15  C   LIG d   1       1.482  83.436 106.268  0.00  0.00     0.109 C 
ATOM     16  O   LIG d   1       3.172  82.673 107.804  0.00  0.00    -0.276 OA
ATOM     17  H   LIG d   1       0.033  82.487 108.105  0.00  0.00     0.149 HD
ENDBRANCH   6  13
BRANCH   5  18
ATOM     18  N   LIG d   1       0.879  79.373 108.935  0.00  0.00     0.381 N 
ATOM     19  H   LIG d   1       1.839  79.505 108.686  0.00  0.00    -0.090 HD
ATOM     20  H   LIG d   1       0.324  79.450 108.101  0.00  0.00    -0.090 HD
ATOM     21  H   LIG d   1       0.756  78.473 109.344  0.00  0.00    -0.090 HD
ENDBRANCH   5  18
BRANCH   3  22
ATOM     22  C   LIG d   1       0.034  80.398 113.537  0.00  0.00     0.382 C 
ATOM     23  O   LIG d   1      -1.079  79.830 113.646  0.00  0.00    -0.241 OA
ATOM     24  O   LIG d   1       0.724  80.597 114.555  0.00  0.00    -0.241 OA
ENDBRANCH   3  22
TORSDOF 7
ENDMDL
MODEL 8
REMARK VINA RESULT:      -5.2      2.403      4.416
REMARK  7 active torsions:
REMARK  status: ('A' for Active; 'I' for Inactive)
REMARK    1  A    between atoms: C_2  and  C_3 
REMARK    2  A    between atoms: C_3  and  O_6 
REMARK    3  A    between atoms: C_3  and  C_4 
REMARK    4  A    between atoms: C_7  and  O_6 
REMARK    5  A    between atoms: C_9  and  C_10 
REMARK    6  A    between atoms: N_15  and  C_14 
REMARK    7  A    between atoms: N_20  and  C_19 
REMARK       I    between atoms: C_22  and  N_20 
ROOT
ATOM      1  C   LIG d   1       2.641  83.411 112.105  0.00  0.00     0.161 C 
ATOM      2  C   LIG d   1       1.518  82.665 112.500  0.00  0.00     0.016 C 
ATOM      3  C   LIG d   1       0.186  83.094 112.293  0.00  0.00     0.038 C 
ATOM      4  C   LIG d   1      -0.116  84.235 111.536  0.00  0.00     0.028 C 
ATOM      5  C   LIG d   1       0.992  85.283 111.553  0.00  0.00    -0.047 C 
ATOM      6  C   LIG d   1       2.330  84.606 111.179  0.00  0.00     0.091 C 
ENDROOT
BRANCH   1   7
ATOM      7  O   LIG d   1       3.614  82.542 111.492  0.00  0.00    -0.368 OA
BRANCH   7   8
ATOM      8  C   LIG d   1       3.132  81.710 110.408  0.00  0.00     0.119 C 
BRANCH   8   9
ATOM      9  C   LIG d   1       3.270  80.242 110.855  0.00  0.00     0.028 C 
ATOM     10  C   LIG d   1       2.871  79.251 109.749  0.00  0.00     0.006 C 
ENDBRANCH   8   9
BRANCH   8  11
ATOM     11  C   LIG d   1       4.020  81.841 109.168  0.00  0.00     0.028 C 
ATOM     12  C   LIG d   1       4.918  83.089 109.207  0.00  0.00     0.006 C 
ENDBRANCH   8  11
ENDBRANCH   7   8
ENDBRANCH   1   7
BRANCH   6  13
ATOM     13  N   LIG d   1       3.481  85.543 111.253  0.00  0.00    -0.311 N 
ATOM     14  C   LIG d   1       3.799  86.228 112.350  0.00  0.00     0.210 C 
ATOM     15  C   LIG d   1       5.010  87.154 112.205  0.00  0.00     0.109 C 
ATOM     16  O   LIG d   1       3.213  86.132 113.439  0.00  0.00    -0.276 OA
ATOM     17  H   LIG d   1       4.029  85.658 110.423  0.00  0.00     0.149 HD
ENDBRANCH   6  13
BRANCH   5  18
ATOM     18  N   LIG d   1       0.605  86.355 110.616  0.00  0.00     0.381 N 
ATOM     19  H   LIG d   1       0.717  86.038 109.673  0.00  0.00    -0.090 HD
ATOM     20  H   LIG d   1       1.211  87.144 110.757  0.00  0.00    -0.090 HD
ATOM     21  H   LIG d   1      -0.342  86.621 110.774  0.00  0.00    -0.090 HD
ENDBRANCH   5  18
BRANCH   3  22
ATOM     22  C   LIG d   1      -0.859  82.398 112.882  0.00  0.00     0.382 C 
ATOM     23  O   LIG d   1      -0.689  81.827 113.986  0.00  0.00    -0.241 OA
ATOM     24  O   LIG d   1      -1.956  82.296 112.301  0.00  0.00    -0.241 OA
ENDBRANCH   3  22
TORSDOF 7
ENDMDL
MODEL 9
REMARK VINA RESULT:      -5.2      2.672      5.548
REMARK  7 active torsions:
REMARK  status: ('A' for Active; 'I' for Inactive)
REMARK    1  A    between atoms: C_2  and  C_3 
REMARK    2  A    between atoms: C_3  and  O_6 
REMARK    3  A    between atoms: C_3  and  C_4 
REMARK    4  A    between atoms: C_7  and  O_6 
REMARK    5  A    between atoms: C_9  and  C_10 
REMARK    6  A    between atoms: N_15  and  C_14 
REMARK    7  A    between atoms: N_20  and  C_19 
REMARK       I    between atoms: C_22  and  N_20 
ROOT
ATOM      1  C   LIG d   1       2.250  83.792 110.730  0.00  0.00     0.161 C 
ATOM      2  C   LIG d   1       2.950  85.011 110.743  0.00  0.00     0.016 C 
ATOM      3  C   LIG d   1       3.181  85.762 111.918  0.00  0.00     0.038 C 
ATOM      4  C   LIG d   1       2.859  85.267 113.191  0.00  0.00     0.028 C 
ATOM      5  C   LIG d   1       1.701  84.274 113.178  0.00  0.00    -0.047 C 
ATOM      6  C   LIG d   1       1.988  83.182 112.123  0.00  0.00     0.091 C 
ENDROOT
BRANCH   1   7
ATOM      7  O   LIG d   1       2.937  82.844 109.889  0.00  0.00    -0.368 OA
BRANCH   7   8
ATOM      8  C   LIG d   1       2.215  82.393 108.717  0.00  0.00     0.119 C 
BRANCH   8   9
ATOM      9  C   LIG d   1       3.258  81.915 107.687  0.00  0.00     0.028 C 
ATOM     10  C   LIG d   1       4.499  81.297 108.352  0.00  0.00     0.006 C 
ENDBRANCH   8   9
BRANCH   8  11
ATOM     11  C   LIG d   1       1.476  83.549 108.038  0.00  0.00     0.028 C 
ATOM     12  C   LIG d   1       1.374  83.379 106.514  0.00  0.00     0.006 C 
ENDBRANCH   8  11
ENDBRANCH   7   8
ENDBRANCH   1   7
BRANCH   6  13
ATOM     13  N   LIG d   1       0.866  82.217 111.986  0.00  0.00    -0.311 N 
ATOM     14  C   LIG d   1       1.042  80.909 111.808  0.00  0.00     0.210 C 
ATOM     15  C   LIG d   1      -0.249  80.096 111.671  0.00  0.00     0.109 C 
ATOM     16  O   LIG d   1       2.144  80.340 111.782  0.00  0.00    -0.276 OA
ATOM     17  H   LIG d   1      -0.063  82.588 112.027  0.00  0.00     0.149 HD
ENDBRANCH   6  13
BRANCH   5  18
ATOM     18  N   LIG d   1       1.562  83.735 114.545  0.00  0.00     0.381 N 
ATOM     19  H   LIG d   1       2.387  83.228 114.794  0.00  0.00    -0.090 HD
ATOM     20  H   LIG d   1       0.783  83.100 114.566  0.00  0.00    -0.090 HD
ATOM     21  H   LIG d   1       1.411  84.479 115.191  0.00  0.00    -0.090 HD
ENDBRANCH   5  18
BRANCH   3  22
ATOM     22  C   LIG d   1       3.707  87.042 111.823  0.00  0.00     0.382 C 
ATOM     23  O   LIG d   1       4.950  87.211 111.827  0.00  0.00    -0.241 OA
ATOM     24  O   LIG d   1       2.953  88.032 111.779  0.00  0.00    -0.241 OA
ENDBRANCH   3  22
TORSDOF 7
ENDMDL
