MODEL 1
REMARK VINA RESULT:      -6.7      0.000      0.000
REMARK  7 active torsions:
REMARK  status: ('A' for Active; 'I' for Inactive)
REMARK    1  A    between atoms: C_2  and  C_3 
REMARK    2  A    between atoms: C_3  and  O_6 
REMARK    3  A    between atoms: C_3  and  C_4 
REMARK    4  A    between atoms: C_7  and  O_6 
REMARK    5  A    between atoms: C_9  and  C_10 
REMARK    6  A    between atoms: N_15  and  C_14 
REMARK    7  A    between atoms: N_20  and  C_19 
REMARK       I    between atoms: C_22  and  N_20 
ROOT
ATOM      1  C   LIG d   1       0.495  82.886 111.489  0.00  0.00     0.161 C 
ATOM      2  C   LIG d   1      -0.726  82.543 112.093  0.00  0.00     0.016 C 
ATOM      3  C   LIG d   1      -1.248  81.229 112.101  0.00  0.00     0.038 C 
ATOM      4  C   LIG d   1      -0.506  80.134 111.635  0.00  0.00     0.028 C 
ATOM      5  C   LIG d   1       0.513  80.505 110.563  0.00  0.00    -0.047 C 
ATOM      6  C   LIG d   1       1.371  81.686 111.073  0.00  0.00     0.091 C 
ENDROOT
BRANCH   1   7
ATOM      7  O   LIG d   1       1.236  83.771 112.353  0.00  0.00    -0.368 OA
BRANCH   7   8
ATOM      8  C   LIG d   1       1.088  85.188 112.092  0.00  0.00     0.119 C 
BRANCH   8   9
ATOM      9  C   LIG d   1       0.815  85.355 110.584  0.00  0.00     0.028 C 
ATOM     10  C   LIG d   1      -0.456  86.174 110.306  0.00  0.00     0.006 C 
ENDBRANCH   8   9
BRANCH   8  11
ATOM     11  C   LIG d   1       2.396  85.942 112.353  0.00  0.00     0.028 C 
ATOM     12  C   LIG d   1       3.348  85.919 111.147  0.00  0.00     0.006 C 
ENDBRANCH   8  11
ENDBRANCH   7   8
ENDBRANCH   1   7
BRANCH   6  13
ATOM     13  N   LIG d   1       2.337  82.167 110.052  0.00  0.00    -0.311 N 
ATOM     14  C   LIG d   1       3.625  82.389 110.309  0.00  0.00     0.210 C 
ATOM     15  C   LIG d   1       4.443  82.902 109.119  0.00  0.00     0.109 C 
ATOM     16  O   LIG d   1       4.175  82.180 111.401  0.00  0.00    -0.276 OA
ATOM     17  H   LIG d   1       1.983  82.332 109.130  0.00  0.00     0.149 HD
ENDBRANCH   6  13
BRANCH   5  18
ATOM     18  N   LIG d   1       1.309  79.298 110.267  0.00  0.00     0.381 N 
ATOM     19  H   LIG d   1       1.647  78.898 111.120  0.00  0.00    -0.090 HD
ATOM     20  H   LIG d   1       2.099  79.560 109.705  0.00  0.00    -0.090 HD
ATOM     21  H   LIG d   1       0.750  78.633 109.779  0.00  0.00    -0.090 HD
ENDBRANCH   5  18
BRANCH   3  22
ATOM     22  C   LIG d   1      -2.543  81.007 112.545  0.00  0.00     0.382 C 
ATOM     23  O   LIG d   1      -2.978  79.835 112.647  0.00  0.00    -0.241 OA
ATOM     24  O   LIG d   1      -3.296  81.965 112.802  0.00  0.00    -0.241 OA
ENDBRANCH   3  22
TORSDOF 7
ENDMDL
MODEL 2
REMARK VINA RESULT:      -6.4      1.874      4.749
REMARK  7 active torsions:
REMARK  status: ('A' for Active; 'I' for Inactive)
REMARK    1  A    between atoms: C_2  and  C_3 
REMARK    2  A    between atoms: C_3  and  O_6 
REMARK    3  A    between atoms: C_3  and  C_4 
REMARK    4  A    between atoms: C_7  and  O_6 
REMARK    5  A    between atoms: C_9  and  C_10 
REMARK    6  A    between atoms: N_15  and  C_14 
REMARK    7  A    between atoms: N_20  and  C_19 
REMARK       I    between atoms: C_22  and  N_20 
ROOT
ATOM      1  C   LIG d   1       1.103  82.534 111.797  0.00  0.00     0.161 C 
ATOM      2  C   LIG d   1       2.075  82.114 110.873  0.00  0.00     0.016 C 
ATOM      3  C   LIG d   1       1.962  80.931 110.108  0.00  0.00     0.038 C 
ATOM      4  C   LIG d   1       0.790  80.160 110.103  0.00  0.00     0.028 C 
ATOM      5  C   LIG d   1      -0.012  80.270 111.396  0.00  0.00    -0.047 C 
ATOM      6  C   LIG d   1      -0.232  81.764 111.724  0.00  0.00     0.091 C 
ENDROOT
BRANCH   1   7
ATOM      7  O   LIG d   1       0.873  83.950 111.655  0.00  0.00    -0.368 OA
BRANCH   7   8
ATOM      8  C   LIG d   1       1.418  84.568 110.464  0.00  0.00     0.119 C 
BRANCH   8   9
ATOM      9  C   LIG d   1       2.253  85.783 110.913  0.00  0.00     0.028 C 
ATOM     10  C   LIG d   1       3.766  85.519 110.826  0.00  0.00     0.006 C 
ENDBRANCH   8   9
BRANCH   8  11
ATOM     11  C   LIG d   1       0.309  85.143 109.578  0.00  0.00     0.028 C 
ATOM     12  C   LIG d   1      -0.576  86.160 110.316  0.00  0.00     0.006 C 
ENDBRANCH   8  11
ENDBRANCH   7   8
ENDBRANCH   1   7
BRANCH   6  13
ATOM     13  N   LIG d   1      -0.936  81.962 113.018  0.00  0.00    -0.311 N 
ATOM     14  C   LIG d   1      -2.263  81.950 113.140  0.00  0.00     0.210 C 
ATOM     15  C   LIG d   1      -2.783  82.194 114.560  0.00  0.00     0.109 C 
ATOM     16  O   LIG d   1      -3.056  81.728 112.213  0.00  0.00    -0.276 OA
ATOM     17  H   LIG d   1      -0.368  82.117 113.827  0.00  0.00     0.149 HD
ENDBRANCH   6  13
BRANCH   5  18
ATOM     18  N   LIG d   1      -1.272  79.528 111.202  0.00  0.00     0.381 N 
ATOM     19  H   LIG d   1      -1.172  78.882 110.445  0.00  0.00    -0.090 HD
ATOM     20  H   LIG d   1      -2.000  80.180 110.968  0.00  0.00    -0.090 HD
ATOM     21  H   LIG d   1      -1.510  79.038 112.036  0.00  0.00    -0.090 HD
ENDBRANCH   5  18
BRANCH   3  22
ATOM     22  C   LIG d   1       3.046  80.487 109.365  0.00  0.00     0.382 C 
ATOM     23  O   LIG d   1       3.428  79.296 109.464  0.00  0.00    -0.241 OA
ATOM     24  O   LIG d   1       3.674  81.274 108.631  0.00  0.00    -0.241 OA
ENDBRANCH   3  22
TORSDOF 7
ENDMDL
MODEL 3
REMARK VINA RESULT:      -6.3      0.958      1.928
REMARK  7 active torsions:
REMARK  status: ('A' for Active; 'I' for Inactive)
REMARK    1  A    between atoms: C_2  and  C_3 
REMARK    2  A    between atoms: C_3  and  O_6 
REMARK    3  A    between atoms: C_3  and  C_4 
REMARK    4  A    between atoms: C_7  and  O_6 
REMARK    5  A    between atoms: C_9  and  C_10 
REMARK    6  A    between atoms: N_15  and  C_14 
REMARK    7  A    between atoms: N_20  and  C_19 
REMARK       I    between atoms: C_22  and  N_20 
ROOT
ATOM      1  C   LIG d   1       0.496  82.914 111.790  0.00  0.00     0.161 C 
ATOM      2  C   LIG d   1      -0.737  82.514 112.334  0.00  0.00     0.016 C 
ATOM      3  C   LIG d   1      -1.277  81.218 112.167  0.00  0.00     0.038 C 
ATOM      4  C   LIG d   1      -0.545  80.182 111.568  0.00  0.00     0.028 C 
ATOM      5  C   LIG d   1       0.491  80.674 110.563  0.00  0.00    -0.047 C 
ATOM      6  C   LIG d   1       1.359  81.765 111.229  0.00  0.00     0.091 C 
ENDROOT
BRANCH   1   7
ATOM      7  O   LIG d   1       1.239  83.668 112.769  0.00  0.00    -0.368 OA
BRANCH   7   8
ATOM      8  C   LIG d   1       1.018  85.100 112.773  0.00  0.00     0.119 C 
BRANCH   8   9
ATOM      9  C   LIG d   1       2.302  85.768 112.244  0.00  0.00     0.028 C 
ATOM     10  C   LIG d   1       3.574  85.179 112.877  0.00  0.00     0.006 C 
ENDBRANCH   8   9
BRANCH   8  11
ATOM     11  C   LIG d   1       0.842  85.632 114.198  0.00  0.00     0.028 C 
ATOM     12  C   LIG d   1      -0.488  85.199 114.836  0.00  0.00     0.006 C 
ENDBRANCH   8  11
ENDBRANCH   7   8
ENDBRANCH   1   7
BRANCH   6  13
ATOM     13  N   LIG d   1       2.343  82.360 110.288  0.00  0.00    -0.311 N 
ATOM     14  C   LIG d   1       3.655  82.378 110.514  0.00  0.00     0.210 C 
ATOM     15  C   LIG d   1       4.490  83.058 109.425  0.00  0.00     0.109 C 
ATOM     16  O   LIG d   1       4.210  81.867 111.499  0.00  0.00    -0.276 OA
ATOM     17  H   LIG d   1       1.982  82.769 109.449  0.00  0.00     0.149 HD
ENDBRANCH   6  13
BRANCH   5  18
ATOM     18  N   LIG d   1       1.272  79.504 110.120  0.00  0.00     0.381 N 
ATOM     19  H   LIG d   1       1.032  79.273 109.176  0.00  0.00    -0.090 HD
ATOM     20  H   LIG d   1       1.043  78.719 110.704  0.00  0.00    -0.090 HD
ATOM     21  H   LIG d   1       2.247  79.701 110.183  0.00  0.00    -0.090 HD
ENDBRANCH   5  18
BRANCH   3  22
ATOM     22  C   LIG d   1      -2.579  80.960 112.566  0.00  0.00     0.382 C 
ATOM     23  O   LIG d   1      -3.381  81.908 112.741  0.00  0.00    -0.241 OA
ATOM     24  O   LIG d   1      -2.949  79.793 112.797  0.00  0.00    -0.241 OA
ENDBRANCH   3  22
TORSDOF 7
ENDMDL
MODEL 4
REMARK VINA RESULT:      -5.8      2.350      5.793
REMARK  7 active torsions:
REMARK  status: ('A' for Active; 'I' for Inactive)
REMARK    1  A    between atoms: C_2  and  C_3 
REMARK    2  A    between atoms: C_3  and  O_6 
REMARK    3  A    between atoms: C_3  and  C_4 
REMARK    4  A    between atoms: C_7  and  O_6 
REMARK    5  A    between atoms: C_9  and  C_10 
REMARK    6  A    between atoms: N_15  and  C_14 
REMARK    7  A    between atoms: N_20  and  C_19 
REMARK       I    between atoms: C_22  and  N_20 
ROOT
ATOM      1  C   LIG d   1       0.819  83.900 110.656  0.00  0.00     0.161 C 
ATOM      2  C   LIG d   1       1.807  84.896 110.577  0.00  0.00     0.016 C 
ATOM      3  C   LIG d   1       2.327  85.567 111.707  0.00  0.00     0.038 C 
ATOM      4  C   LIG d   1       2.002  85.178 113.015  0.00  0.00     0.028 C 
ATOM      5  C   LIG d   1       0.632  84.518 113.128  0.00  0.00    -0.047 C 
ATOM      6  C   LIG d   1       0.533  83.384 112.082  0.00  0.00     0.091 C 
ENDROOT
BRANCH   1   7
ATOM      7  O   LIG d   1       1.162  82.802 109.786  0.00  0.00    -0.368 OA
BRANCH   7   8
ATOM      8  C   LIG d   1       2.459  82.196 110.006  0.00  0.00     0.119 C 
BRANCH   8   9
ATOM      9  C   LIG d   1       3.248  82.298 108.686  0.00  0.00     0.028 C 
ATOM     10  C   LIG d   1       4.617  82.972 108.871  0.00  0.00     0.006 C 
ENDBRANCH   8   9
BRANCH   8  11
ATOM     11  C   LIG d   1       2.333  80.696 110.288  0.00  0.00     0.028 C 
ATOM     12  C   LIG d   1       0.908  80.165 110.060  0.00  0.00     0.006 C 
ENDBRANCH   8  11
ENDBRANCH   7   8
ENDBRANCH   1   7
BRANCH   6  13
ATOM     13  N   LIG d   1      -0.807  82.741 112.067  0.00  0.00    -0.311 N 
ATOM     14  C   LIG d   1      -1.087  81.617 112.724  0.00  0.00     0.210 C 
ATOM     15  C   LIG d   1      -2.525  81.113 112.559  0.00  0.00     0.109 C 
ATOM     16  O   LIG d   1      -0.292  81.007 113.453  0.00  0.00    -0.276 OA
ATOM     17  H   LIG d   1      -1.521  83.187 111.525  0.00  0.00     0.149 HD
ENDBRANCH   6  13
BRANCH   5  18
ATOM     18  N   LIG d   1       0.480  84.040 114.515  0.00  0.00     0.381 N 
ATOM     19  H   LIG d   1       0.559  84.809 115.149  0.00  0.00    -0.090 HD
ATOM     20  H   LIG d   1       1.217  83.388 114.717  0.00  0.00    -0.090 HD
ATOM     21  H   LIG d   1      -0.405  83.597 114.628  0.00  0.00    -0.090 HD
ENDBRANCH   5  18
BRANCH   3  22
ATOM     22  C   LIG d   1       3.153  86.667 111.534  0.00  0.00     0.382 C 
ATOM     23  O   LIG d   1       4.321  86.512 111.103  0.00  0.00    -0.241 OA
ATOM     24  O   LIG d   1       2.760  87.808 111.844  0.00  0.00    -0.241 OA
ENDBRANCH   3  22
TORSDOF 7
ENDMDL
MODEL 5
REMARK VINA RESULT:      -5.7      2.308      5.289
REMARK  7 active torsions:
REMARK  status: ('A' for Active; 'I' for Inactive)
REMARK    1  A    between atoms: C_2  and  C_3 
REMARK    2  A    between atoms: C_3  and  O_6 
REMARK    3  A    between atoms: C_3  and  C_4 
REMARK    4  A    between atoms: C_7  and  O_6 
REMARK    5  A    between atoms: C_9  and  C_10 
REMARK    6  A    between atoms: N_15  and  C_14 
REMARK    7  A    between atoms: N_20  and  C_19 
REMARK       I    between atoms: C_22  and  N_20 
ROOT
ATOM      1  C   LIG d   1      -0.096  82.566 110.641  0.00  0.00     0.161 C 
ATOM      2  C   LIG d   1       0.061  83.934 110.362  0.00  0.00     0.016 C 
ATOM      3  C   LIG d   1       0.018  84.940 111.355  0.00  0.00     0.038 C 
ATOM      4  C   LIG d   1      -0.035  84.631 112.722  0.00  0.00     0.028 C 
ATOM      5  C   LIG d   1      -0.701  83.291 113.015  0.00  0.00    -0.047 C 
ATOM      6  C   LIG d   1      -0.043  82.201 112.139  0.00  0.00     0.091 C 
ENDROOT
BRANCH   1   7
ATOM      7  O   LIG d   1       0.880  81.802 109.904  0.00  0.00    -0.368 OA
BRANCH   7   8
ATOM      8  C   LIG d   1       2.267  82.152 110.132  0.00  0.00     0.119 C 
BRANCH   8   9
ATOM      9  C   LIG d   1       2.869  82.566 108.775  0.00  0.00     0.028 C 
ATOM     10  C   LIG d   1       4.356  82.944 108.883  0.00  0.00     0.006 C 
ENDBRANCH   8   9
BRANCH   8  11
ATOM     11  C   LIG d   1       3.082  80.936 110.583  0.00  0.00     0.028 C 
ATOM     12  C   LIG d   1       2.783  79.678 109.752  0.00  0.00     0.006 C 
ENDBRANCH   8  11
ENDBRANCH   7   8
ENDBRANCH   1   7
BRANCH   6  13
ATOM     13  N   LIG d   1      -0.693  80.874 112.302  0.00  0.00    -0.311 N 
ATOM     14  C   LIG d   1      -2.013  80.699 112.296  0.00  0.00     0.210 C 
ATOM     15  C   LIG d   1      -2.474  79.252 112.500  0.00  0.00     0.109 C 
ATOM     16  O   LIG d   1      -2.845  81.599 112.110  0.00  0.00    -0.276 OA
ATOM     17  H   LIG d   1      -0.091  80.084 112.427  0.00  0.00     0.149 HD
ENDBRANCH   6  13
BRANCH   5  18
ATOM     18  N   LIG d   1      -0.565  83.032 114.461  0.00  0.00     0.381 N 
ATOM     19  H   LIG d   1      -1.468  82.890 114.866  0.00  0.00    -0.090 HD
ATOM     20  H   LIG d   1      -0.145  83.834 114.897  0.00  0.00    -0.090 HD
ATOM     21  H   LIG d   1       0.004  82.228 114.611  0.00  0.00    -0.090 HD
ENDBRANCH   5  18
BRANCH   3  22
ATOM     22  C   LIG d   1      -0.013  86.274 110.980  0.00  0.00     0.382 C 
ATOM     23  O   LIG d   1       1.058  86.920 110.871  0.00  0.00    -0.241 OA
ATOM     24  O   LIG d   1      -1.100  86.853 110.792  0.00  0.00    -0.241 OA
ENDBRANCH   3  22
TORSDOF 7
ENDMDL
MODEL 6
REMARK VINA RESULT:      -5.6      2.498      5.888
REMARK  7 active torsions:
REMARK  status: ('A' for Active; 'I' for Inactive)
REMARK    1  A    between atoms: C_2  and  C_3 
REMARK    2  A    between atoms: C_3  and  O_6 
REMARK    3  A    between atoms: C_3  and  C_4 
REMARK    4  A    between atoms: C_7  and  O_6 
REMARK    5  A    between atoms: C_9  and  C_10 
REMARK    6  A    between atoms: N_15  and  C_14 
REMARK    7  A    between atoms: N_20  and  C_19 
REMARK       I    between atoms: C_22  and  N_20 
ROOT
ATOM      1  C   LIG d   1       1.317  83.783 111.024  0.00  0.00     0.161 C 
ATOM      2  C   LIG d   1       2.283  84.802 110.993  0.00  0.00     0.016 C 
ATOM      3  C   LIG d   1       2.440  85.758 112.023  0.00  0.00     0.038 C 
ATOM      4  C   LIG d   1       1.736  85.665 113.233  0.00  0.00     0.028 C 
ATOM      5  C   LIG d   1       0.395  84.952 113.101  0.00  0.00    -0.047 C 
ATOM      6  C   LIG d   1       0.614  83.600 112.386  0.00  0.00     0.091 C 
ENDROOT
BRANCH   1   7
ATOM      7  O   LIG d   1       1.904  82.540 110.591  0.00  0.00    -0.368 OA
BRANCH   7   8
ATOM      8  C   LIG d   1       1.894  82.294 109.163  0.00  0.00     0.119 C 
BRANCH   8   9
ATOM      9  C   LIG d   1       1.558  80.805 108.952  0.00  0.00     0.028 C 
ATOM     10  C   LIG d   1       0.779  80.206 110.135  0.00  0.00     0.006 C 
ENDBRANCH   8   9
BRANCH   8  11
ATOM     11  C   LIG d   1       3.287  82.485 108.556  0.00  0.00     0.028 C 
ATOM     12  C   LIG d   1       4.196  81.262 108.753  0.00  0.00     0.006 C 
ENDBRANCH   8  11
ENDBRANCH   7   8
ENDBRANCH   1   7
BRANCH   6  13
ATOM     13  N   LIG d   1      -0.660  82.875 112.140  0.00  0.00    -0.311 N 
ATOM     14  C   LIG d   1      -1.137  81.935 112.955  0.00  0.00     0.210 C 
ATOM     15  C   LIG d   1      -2.457  81.300 112.505  0.00  0.00     0.109 C 
ATOM     16  O   LIG d   1      -0.610  81.591 114.023  0.00  0.00    -0.276 OA
ATOM     17  H   LIG d   1      -1.168  83.114 111.312  0.00  0.00     0.149 HD
ENDBRANCH   6  13
BRANCH   5  18
ATOM     18  N   LIG d   1      -0.167  84.805 114.457  0.00  0.00     0.381 N 
ATOM     19  H   LIG d   1       0.325  84.088 114.951  0.00  0.00    -0.090 HD
ATOM     20  H   LIG d   1      -1.131  84.531 114.381  0.00  0.00    -0.090 HD
ATOM     21  H   LIG d   1      -0.097  85.667 114.951  0.00  0.00    -0.090 HD
ENDBRANCH   5  18
BRANCH   3  22
ATOM     22  C   LIG d   1       3.282  86.843 111.832  0.00  0.00     0.382 C 
ATOM     23  O   LIG d   1       4.320  86.717 111.138  0.00  0.00    -0.241 OA
ATOM     24  O   LIG d   1       3.039  87.935 112.380  0.00  0.00    -0.241 OA
ENDBRANCH   3  22
TORSDOF 7
ENDMDL
MODEL 7
REMARK VINA RESULT:      -5.5      2.147      2.810
REMARK  7 active torsions:
REMARK  status: ('A' for Active; 'I' for Inactive)
REMARK    1  A    between atoms: C_2  and  C_3 
REMARK    2  A    between atoms: C_3  and  O_6 
REMARK    3  A    between atoms: C_3  and  C_4 
REMARK    4  A    between atoms: C_7  and  O_6 
REMARK    5  A    between atoms: C_9  and  C_10 
REMARK    6  A    between atoms: N_15  and  C_14 
REMARK    7  A    between atoms: N_20  and  C_19 
REMARK       I    between atoms: C_22  and  N_20 
ROOT
ATOM      1  C   LIG d   1       0.404  82.688 111.361  0.00  0.00     0.161 C 
ATOM      2  C   LIG d   1      -0.389  83.496 112.192  0.00  0.00     0.016 C 
ATOM      3  C   LIG d   1      -0.163  83.642 113.580  0.00  0.00     0.038 C 
ATOM      4  C   LIG d   1       0.971  83.105 114.207  0.00  0.00     0.028 C 
ATOM      5  C   LIG d   1       1.521  81.866 113.507  0.00  0.00    -0.047 C 
ATOM      6  C   LIG d   1       1.711  82.182 112.006  0.00  0.00     0.091 C 
ENDROOT
BRANCH   1   7
ATOM      7  O   LIG d   1       0.688  83.383 110.131  0.00  0.00    -0.368 OA
BRANCH   7   8
ATOM      8  C   LIG d   1       1.150  84.750 110.263  0.00  0.00     0.119 C 
BRANCH   8   9
ATOM      9  C   LIG d   1       0.359  85.605 109.255  0.00  0.00     0.028 C 
ATOM     10  C   LIG d   1      -0.932  86.184 109.860  0.00  0.00     0.006 C 
ENDBRANCH   8   9
BRANCH   8  11
ATOM     11  C   LIG d   1       2.617  84.886 109.847  0.00  0.00     0.028 C 
ATOM     12  C   LIG d   1       3.493  85.506 110.947  0.00  0.00     0.006 C 
ENDBRANCH   8  11
ENDBRANCH   7   8
ENDBRANCH   1   7
BRANCH   6  13
ATOM     13  N   LIG d   1       2.166  80.998 111.231  0.00  0.00    -0.311 N 
ATOM     14  C   LIG d   1       3.274  80.987 110.493  0.00  0.00     0.210 C 
ATOM     15  C   LIG d   1       3.549  79.671 109.759  0.00  0.00     0.109 C 
ATOM     16  O   LIG d   1       4.073  81.931 110.402  0.00  0.00    -0.276 OA
ATOM     17  H   LIG d   1       1.593  80.178 111.273  0.00  0.00     0.149 HD
ENDBRANCH   6  13
BRANCH   5  18
ATOM     18  N   LIG d   1       2.777  81.493 114.183  0.00  0.00     0.381 N 
ATOM     19  H   LIG d   1       3.406  81.079 113.524  0.00  0.00    -0.090 HD
ATOM     20  H   LIG d   1       2.574  80.813 114.895  0.00  0.00    -0.090 HD
ATOM     21  H   LIG d   1       3.197  82.298 114.593  0.00  0.00    -0.090 HD
ENDBRANCH   5  18
BRANCH   3  22
ATOM     22  C   LIG d   1      -1.099  84.300 114.364  0.00  0.00     0.382 C 
ATOM     23  O   LIG d   1      -2.239  83.804 114.527  0.00  0.00    -0.241 OA
ATOM     24  O   LIG d   1      -0.832  85.405 114.873  0.00  0.00    -0.241 OA
ENDBRANCH   3  22
TORSDOF 7
ENDMDL
MODEL 8
REMARK VINA RESULT:      -5.2      2.469      3.811
REMARK  7 active torsions:
REMARK  status: ('A' for Active; 'I' for Inactive)
REMARK    1  A    between atoms: C_2  and  C_3 
REMARK    2  A    between atoms: C_3  and  O_6 
REMARK    3  A    between atoms: C_3  and  C_4 
REMARK    4  A    between atoms: C_7  and  O_6 
REMARK    5  A    between atoms: C_9  and  C_10 
REMARK    6  A    between atoms: N_15  and  C_14 
REMARK    7  A    between atoms: N_20  and  C_19 
REMARK       I    between atoms: C_22  and  N_20 
ROOT
ATOM      1  C   LIG d   1       1.327  83.221 112.178  0.00  0.00     0.161 C 
ATOM      2  C   LIG d   1       0.254  82.396 111.800  0.00  0.00     0.016 C 
ATOM      3  C   LIG d   1      -0.974  82.349 112.499  0.00  0.00     0.038 C 
ATOM      4  C   LIG d   1      -1.269  83.240 113.542  0.00  0.00     0.028 C 
ATOM      5  C   LIG d   1      -0.031  83.741 114.279  0.00  0.00    -0.047 C 
ATOM      6  C   LIG d   1       0.984  84.280 113.246  0.00  0.00     0.091 C 
ENDROOT
BRANCH   1   7
ATOM      7  O   LIG d   1       1.894  83.850 111.011  0.00  0.00    -0.368 OA
BRANCH   7   8
ATOM      8  C   LIG d   1       3.108  83.253 110.492  0.00  0.00     0.119 C 
BRANCH   8   9
ATOM      9  C   LIG d   1       4.285  84.150 110.922  0.00  0.00     0.028 C 
ATOM     10  C   LIG d   1       3.922  85.644 110.901  0.00  0.00     0.006 C 
ENDBRANCH   8   9
BRANCH   8  11
ATOM     11  C   LIG d   1       3.125  83.269 108.960  0.00  0.00     0.028 C 
ATOM     12  C   LIG d   1       4.306  82.483 108.370  0.00  0.00     0.006 C 
ENDBRANCH   8  11
ENDBRANCH   7   8
ENDBRANCH   1   7
BRANCH   6  13
ATOM     13  N   LIG d   1       2.259  84.713 113.876  0.00  0.00    -0.311 N 
ATOM     14  C   LIG d   1       3.129  83.867 114.425  0.00  0.00     0.210 C 
ATOM     15  C   LIG d   1       4.370  84.524 115.037  0.00  0.00     0.109 C 
ATOM     16  O   LIG d   1       3.006  82.633 114.434  0.00  0.00    -0.276 OA
ATOM     17  H   LIG d   1       2.453  85.695 113.884  0.00  0.00     0.149 HD
ENDBRANCH   6  13
BRANCH   5  18
ATOM     18  N   LIG d   1      -0.471  84.764 115.246  0.00  0.00     0.381 N 
ATOM     19  H   LIG d   1      -0.700  85.610 114.763  0.00  0.00    -0.090 HD
ATOM     20  H   LIG d   1       0.283  84.957 115.881  0.00  0.00    -0.090 HD
ATOM     21  H   LIG d   1      -1.265  84.436 115.751  0.00  0.00    -0.090 HD
ENDBRANCH   5  18
BRANCH   3  22
ATOM     22  C   LIG d   1      -1.908  81.374 112.182  0.00  0.00     0.382 C 
ATOM     23  O   LIG d   1      -1.527  80.252 111.771  0.00  0.00    -0.241 OA
ATOM     24  O   LIG d   1      -3.127  81.618 112.260  0.00  0.00    -0.241 OA
ENDBRANCH   3  22
TORSDOF 7
ENDMDL
MODEL 9
REMARK VINA RESULT:      -4.9      2.726      5.632
REMARK  7 active torsions:
REMARK  status: ('A' for Active; 'I' for Inactive)
REMARK    1  A    between atoms: C_2  and  C_3 
REMARK    2  A    between atoms: C_3  and  O_6 
REMARK    3  A    between atoms: C_3  and  C_4 
REMARK    4  A    between atoms: C_7  and  O_6 
REMARK    5  A    between atoms: C_9  and  C_10 
REMARK    6  A    between atoms: N_15  and  C_14 
REMARK    7  A    between atoms: N_20  and  C_19 
REMARK       I    between atoms: C_22  and  N_20 
ROOT
ATOM      1  C   LIG d   1       0.808  81.897 111.874  0.00  0.00     0.161 C 
ATOM      2  C   LIG d   1       1.458  81.044 110.966  0.00  0.00     0.016 C 
ATOM      3  C   LIG d   1       2.811  81.198 110.586  0.00  0.00     0.038 C 
ATOM      4  C   LIG d   1       3.654  82.131 111.208  0.00  0.00     0.028 C 
ATOM      5  C   LIG d   1       2.913  83.342 111.763  0.00  0.00    -0.047 C 
ATOM      6  C   LIG d   1       1.742  82.852 112.646  0.00  0.00     0.091 C 
ENDROOT
BRANCH   1   7
ATOM      7  O   LIG d   1       0.016  81.119 112.793  0.00  0.00    -0.368 OA
BRANCH   7   8
ATOM      8  C   LIG d   1      -1.348  81.565 112.994  0.00  0.00     0.119 C 
BRANCH   8   9
ATOM      9  C   LIG d   1      -1.591  81.643 114.514  0.00  0.00     0.028 C 
ATOM     10  C   LIG d   1      -0.393  81.123 115.327  0.00  0.00     0.006 C 
ENDBRANCH   8   9
BRANCH   8  11
ATOM     11  C   LIG d   1      -2.354  80.533 112.475  0.00  0.00     0.028 C 
ATOM     12  C   LIG d   1      -1.689  79.213 112.053  0.00  0.00     0.006 C 
ENDBRANCH   8  11
ENDBRANCH   7   8
ENDBRANCH   1   7
BRANCH   6  13
ATOM     13  N   LIG d   1       0.914  83.973 113.162  0.00  0.00    -0.311 N 
ATOM     14  C   LIG d   1       1.059  84.492 114.380  0.00  0.00     0.210 C 
ATOM     15  C   LIG d   1       0.088  85.628 114.719  0.00  0.00     0.109 C 
ATOM     16  O   LIG d   1       1.920  84.141 115.201  0.00  0.00    -0.276 OA
ATOM     17  H   LIG d   1       0.211  84.339 112.550  0.00  0.00     0.149 HD
ENDBRANCH   6  13
BRANCH   5  18
ATOM     18  N   LIG d   1       3.891  84.162 112.503  0.00  0.00     0.381 N 
ATOM     19  H   LIG d   1       4.116  84.980 111.972  0.00  0.00    -0.090 HD
ATOM     20  H   LIG d   1       4.732  83.628 112.631  0.00  0.00    -0.090 HD
ATOM     21  H   LIG d   1       3.516  84.425 113.388  0.00  0.00    -0.090 HD
ENDBRANCH   5  18
BRANCH   3  22
ATOM     22  C   LIG d   1       3.322  80.439 109.544  0.00  0.00     0.382 C 
ATOM     23  O   LIG d   1       3.924  80.999 108.597  0.00  0.00    -0.241 OA
ATOM     24  O   LIG d   1       3.151  79.205 109.518  0.00  0.00    -0.241 OA
ENDBRANCH   3  22
TORSDOF 7
ENDMDL
