MODEL 1
REMARK VINA RESULT:      -5.3      0.000      0.000
REMARK  7 active torsions:
REMARK  status: ('A' for Active; 'I' for Inactive)
REMARK    1  A    between atoms: C_2  and  C_3 
REMARK    2  A    between atoms: C_3  and  O_6 
REMARK    3  A    between atoms: C_3  and  C_4 
REMARK    4  A    between atoms: C_7  and  O_6 
REMARK    5  A    between atoms: C_9  and  C_10 
REMARK    6  A    between atoms: N_15  and  C_14 
REMARK    7  A    between atoms: N_20  and  C_19 
REMARK       I    between atoms: C_22  and  N_20 
ROOT
ATOM      1  C   LIG d   1      -6.164  78.268 117.051  0.00  0.00     0.161 C 
ATOM      2  C   LIG d   1      -7.528  78.351 117.377  0.00  0.00     0.016 C 
ATOM      3  C   LIG d   1      -8.123  79.496 117.955  0.00  0.00     0.038 C 
ATOM      4  C   LIG d   1      -7.418  80.700 118.108  0.00  0.00     0.028 C 
ATOM      5  C   LIG d   1      -5.913  80.505 118.260  0.00  0.00    -0.047 C 
ATOM      6  C   LIG d   1      -5.404  79.610 117.108  0.00  0.00     0.091 C 
ENDROOT
BRANCH   1   7
ATOM      7  O   LIG d   1      -6.008  77.658 115.755  0.00  0.00    -0.368 OA
BRANCH   7   8
ATOM      8  C   LIG d   1      -5.558  76.281 115.749  0.00  0.00     0.119 C 
BRANCH   8   9
ATOM      9  C   LIG d   1      -4.411  76.173 114.726  0.00  0.00     0.028 C 
ATOM     10  C   LIG d   1      -3.101  75.680 115.362  0.00  0.00     0.006 C 
ENDBRANCH   8   9
BRANCH   8  11
ATOM     11  C   LIG d   1      -6.651  75.340 115.234  0.00  0.00     0.028 C 
ATOM     12  C   LIG d   1      -6.492  73.902 115.752  0.00  0.00     0.006 C 
ENDBRANCH   8  11
ENDBRANCH   7   8
ENDBRANCH   1   7
BRANCH   6  13
ATOM     13  N   LIG d   1      -3.955  79.300 117.228  0.00  0.00    -0.311 N 
ATOM     14  C   LIG d   1      -3.105  79.362 116.205  0.00  0.00     0.210 C 
ATOM     15  C   LIG d   1      -1.659  78.984 116.542  0.00  0.00     0.109 C 
ATOM     16  O   LIG d   1      -3.404  79.726 115.058  0.00  0.00    -0.276 OA
ATOM     17  H   LIG d   1      -3.621  79.027 118.131  0.00  0.00     0.149 HD
ENDBRANCH   6  13
BRANCH   5  18
ATOM     18  N   LIG d   1      -5.290  81.842 118.272  0.00  0.00     0.381 N 
ATOM     19  H   LIG d   1      -4.565  81.872 118.960  0.00  0.00    -0.090 HD
ATOM     20  H   LIG d   1      -5.987  82.524 118.518  0.00  0.00    -0.090 HD
ATOM     21  H   LIG d   1      -4.914  82.051 117.373  0.00  0.00    -0.090 HD
ENDBRANCH   5  18
BRANCH   3  22
ATOM     22  C   LIG d   1      -9.426  79.432 118.424  0.00  0.00     0.382 C 
ATOM     23  O   LIG d   1     -10.200  78.539 118.003  0.00  0.00    -0.241 OA
ATOM     24  O   LIG d   1      -9.850  80.282 119.230  0.00  0.00    -0.241 OA
ENDBRANCH   3  22
TORSDOF 7
ENDMDL
MODEL 2
REMARK VINA RESULT:      -5.3     12.846     15.062
REMARK  7 active torsions:
REMARK  status: ('A' for Active; 'I' for Inactive)
REMARK    1  A    between atoms: C_2  and  C_3 
REMARK    2  A    between atoms: C_3  and  O_6 
REMARK    3  A    between atoms: C_3  and  C_4 
REMARK    4  A    between atoms: C_7  and  O_6 
REMARK    5  A    between atoms: C_9  and  C_10 
REMARK    6  A    between atoms: N_15  and  C_14 
REMARK    7  A    between atoms: N_20  and  C_19 
REMARK       I    between atoms: C_22  and  N_20 
ROOT
ATOM      1  C   LIG d   1      -5.090  92.636 118.049  0.00  0.00     0.161 C 
ATOM      2  C   LIG d   1      -5.468  91.709 117.063  0.00  0.00     0.016 C 
ATOM      3  C   LIG d   1      -6.398  91.999 116.039  0.00  0.00     0.038 C 
ATOM      4  C   LIG d   1      -6.903  93.292 115.840  0.00  0.00     0.028 C 
ATOM      5  C   LIG d   1      -6.939  94.131 117.113  0.00  0.00    -0.047 C 
ATOM      6  C   LIG d   1      -5.547  94.086 117.783  0.00  0.00     0.091 C 
ENDROOT
BRANCH   1   7
ATOM      7  O   LIG d   1      -3.663  92.588 118.245  0.00  0.00    -0.368 OA
BRANCH   7   8
ATOM      8  C   LIG d   1      -3.171  91.517 119.087  0.00  0.00     0.119 C 
BRANCH   8   9
ATOM      9  C   LIG d   1      -2.383  92.163 120.244  0.00  0.00     0.028 C 
ATOM     10  C   LIG d   1      -1.840  93.555 119.878  0.00  0.00     0.006 C 
ENDBRANCH   8   9
BRANCH   8  11
ATOM     11  C   LIG d   1      -2.155  90.645 118.343  0.00  0.00     0.028 C 
ATOM     12  C   LIG d   1      -2.709  89.255 117.992  0.00  0.00     0.006 C 
ENDBRANCH   8  11
ENDBRANCH   7   8
ENDBRANCH   1   7
BRANCH   6  13
ATOM     13  N   LIG d   1      -5.518  94.812 119.079  0.00  0.00    -0.311 N 
ATOM     14  C   LIG d   1      -4.673  95.808 119.343  0.00  0.00     0.210 C 
ATOM     15  C   LIG d   1      -4.797  96.406 120.748  0.00  0.00     0.109 C 
ATOM     16  O   LIG d   1      -3.854  96.273 118.536  0.00  0.00    -0.276 OA
ATOM     17  H   LIG d   1      -6.170  94.520 119.780  0.00  0.00     0.149 HD
ENDBRANCH   6  13
BRANCH   5  18
ATOM     18  N   LIG d   1      -7.355  95.495 116.736  0.00  0.00     0.381 N 
ATOM     19  H   LIG d   1      -6.567  96.007 116.393  0.00  0.00    -0.090 HD
ATOM     20  H   LIG d   1      -7.706  95.965 117.552  0.00  0.00    -0.090 HD
ATOM     21  H   LIG d   1      -8.064  95.454 116.037  0.00  0.00    -0.090 HD
ENDBRANCH   5  18
BRANCH   3  22
ATOM     22  C   LIG d   1      -6.862  90.978 115.223  0.00  0.00     0.382 C 
ATOM     23  O   LIG d   1      -6.208  89.912 115.120  0.00  0.00    -0.241 OA
ATOM     24  O   LIG d   1      -7.903  91.126 114.556  0.00  0.00    -0.241 OA
ENDBRANCH   3  22
TORSDOF 7
ENDMDL
MODEL 3
REMARK VINA RESULT:      -5.3     18.824     20.211
REMARK  7 active torsions:
REMARK  status: ('A' for Active; 'I' for Inactive)
REMARK    1  A    between atoms: C_2  and  C_3 
REMARK    2  A    between atoms: C_3  and  O_6 
REMARK    3  A    between atoms: C_3  and  C_4 
REMARK    4  A    between atoms: C_7  and  O_6 
REMARK    5  A    between atoms: C_9  and  C_10 
REMARK    6  A    between atoms: N_15  and  C_14 
REMARK    7  A    between atoms: N_20  and  C_19 
REMARK       I    between atoms: C_22  and  N_20 
ROOT
ATOM      1  C   LIG d   1      -1.974  59.693 119.781  0.00  0.00     0.161 C 
ATOM      2  C   LIG d   1      -1.201  59.641 118.610  0.00  0.00     0.016 C 
ATOM      3  C   LIG d   1       0.181  59.939 118.575  0.00  0.00     0.038 C 
ATOM      4  C   LIG d   1       0.920  60.163 119.746  0.00  0.00     0.028 C 
ATOM      5  C   LIG d   1       0.084  60.721 120.893  0.00  0.00    -0.047 C 
ATOM      6  C   LIG d   1      -1.162  59.827 121.087  0.00  0.00     0.091 C 
ENDROOT
BRANCH   1   7
ATOM      7  O   LIG d   1      -2.840  58.542 119.846  0.00  0.00    -0.368 OA
BRANCH   7   8
ATOM      8  C   LIG d   1      -4.256  58.800 119.675  0.00  0.00     0.119 C 
BRANCH   8   9
ATOM      9  C   LIG d   1      -4.678  58.189 118.325  0.00  0.00     0.028 C 
ATOM     10  C   LIG d   1      -4.033  56.816 118.075  0.00  0.00     0.006 C 
ENDBRANCH   8   9
BRANCH   8  11
ATOM     11  C   LIG d   1      -4.538  60.300 119.548  0.00  0.00     0.028 C 
ATOM     12  C   LIG d   1      -5.493  60.821 120.633  0.00  0.00     0.006 C 
ENDBRANCH   8  11
ENDBRANCH   7   8
ENDBRANCH   1   7
BRANCH   6  13
ATOM     13  N   LIG d   1      -2.078  60.350 122.134  0.00  0.00    -0.311 N 
ATOM     14  C   LIG d   1      -2.601  59.591 123.095  0.00  0.00     0.210 C 
ATOM     15  C   LIG d   1      -3.536  60.325 124.062  0.00  0.00     0.109 C 
ATOM     16  O   LIG d   1      -2.354  58.386 123.259  0.00  0.00    -0.276 OA
ATOM     17  H   LIG d   1      -2.307  61.323 122.095  0.00  0.00     0.149 HD
ENDBRANCH   6  13
BRANCH   5  18
ATOM     18  N   LIG d   1       0.947  60.776 122.088  0.00  0.00     0.381 N 
ATOM     19  H   LIG d   1       0.971  59.878 122.530  0.00  0.00    -0.090 HD
ATOM     20  H   LIG d   1       0.560  61.437 122.738  0.00  0.00    -0.090 HD
ATOM     21  H   LIG d   1       1.869  61.052 121.831  0.00  0.00    -0.090 HD
ENDBRANCH   5  18
BRANCH   3  22
ATOM     22  C   LIG d   1       0.829  60.054 117.355  0.00  0.00     0.382 C 
ATOM     23  O   LIG d   1       2.067  60.258 117.319  0.00  0.00    -0.241 OA
ATOM     24  O   LIG d   1       0.185  60.000 116.290  0.00  0.00    -0.241 OA
ENDBRANCH   3  22
TORSDOF 7
ENDMDL
MODEL 4
REMARK VINA RESULT:      -5.3     19.243     20.856
REMARK  7 active torsions:
REMARK  status: ('A' for Active; 'I' for Inactive)
REMARK    1  A    between atoms: C_2  and  C_3 
REMARK    2  A    between atoms: C_3  and  O_6 
REMARK    3  A    between atoms: C_3  and  C_4 
REMARK    4  A    between atoms: C_7  and  O_6 
REMARK    5  A    between atoms: C_9  and  C_10 
REMARK    6  A    between atoms: N_15  and  C_14 
REMARK    7  A    between atoms: N_20  and  C_19 
REMARK       I    between atoms: C_22  and  N_20 
ROOT
ATOM      1  C   LIG d   1      -1.274  59.622 118.524  0.00  0.00     0.161 C 
ATOM      2  C   LIG d   1      -2.578  59.104 118.585  0.00  0.00     0.016 C 
ATOM      3  C   LIG d   1      -2.895  57.758 118.294  0.00  0.00     0.038 C 
ATOM      4  C   LIG d   1      -1.901  56.794 118.067  0.00  0.00     0.028 C 
ATOM      5  C   LIG d   1      -0.612  57.377 117.499  0.00  0.00    -0.047 C 
ATOM      6  C   LIG d   1      -0.162  58.561 118.386  0.00  0.00     0.091 C 
ENDROOT
BRANCH   1   7
ATOM      7  O   LIG d   1      -1.026  60.461 119.670  0.00  0.00    -0.368 OA
BRANCH   7   8
ATOM      8  C   LIG d   1      -1.283  59.863 120.964  0.00  0.00     0.119 C 
BRANCH   8   9
ATOM      9  C   LIG d   1      -2.269  60.782 121.711  0.00  0.00     0.028 C 
ATOM     10  C   LIG d   1      -3.648  60.129 121.906  0.00  0.00     0.006 C 
ENDBRANCH   8   9
BRANCH   8  11
ATOM     11  C   LIG d   1      -0.018  59.838 121.827  0.00  0.00     0.028 C 
ATOM     12  C   LIG d   1       0.827  61.113 121.682  0.00  0.00     0.006 C 
ENDBRANCH   8  11
ENDBRANCH   7   8
ENDBRANCH   1   7
BRANCH   6  13
ATOM     13  N   LIG d   1       1.046  59.242 117.853  0.00  0.00    -0.311 N 
ATOM     14  C   LIG d   1       2.205  59.296 118.507  0.00  0.00     0.210 C 
ATOM     15  C   LIG d   1       3.318  60.064 117.787  0.00  0.00     0.109 C 
ATOM     16  O   LIG d   1       2.427  58.753 119.600  0.00  0.00    -0.276 OA
ATOM     17  H   LIG d   1       0.964  59.682 116.958  0.00  0.00     0.149 HD
ENDBRANCH   6  13
BRANCH   5  18
ATOM     18  N   LIG d   1       0.382  56.288 117.441  0.00  0.00     0.381 N 
ATOM     19  H   LIG d   1       1.306  56.672 117.448  0.00  0.00    -0.090 HD
ATOM     20  H   LIG d   1       0.258  55.781 116.583  0.00  0.00    -0.090 HD
ATOM     21  H   LIG d   1       0.262  55.676 118.218  0.00  0.00    -0.090 HD
ENDBRANCH   5  18
BRANCH   3  22
ATOM     22  C   LIG d   1      -4.223  57.372 118.189  0.00  0.00     0.382 C 
ATOM     23  O   LIG d   1      -4.514  56.160 118.042  0.00  0.00    -0.241 OA
ATOM     24  O   LIG d   1      -5.131  58.224 118.195  0.00  0.00    -0.241 OA
ENDBRANCH   3  22
TORSDOF 7
ENDMDL
MODEL 5
REMARK VINA RESULT:      -5.3     12.410     14.786
REMARK  7 active torsions:
REMARK  status: ('A' for Active; 'I' for Inactive)
REMARK    1  A    between atoms: C_2  and  C_3 
REMARK    2  A    between atoms: C_3  and  O_6 
REMARK    3  A    between atoms: C_3  and  C_4 
REMARK    4  A    between atoms: C_7  and  O_6 
REMARK    5  A    between atoms: C_9  and  C_10 
REMARK    6  A    between atoms: N_15  and  C_14 
REMARK    7  A    between atoms: N_20  and  C_19 
REMARK       I    between atoms: C_22  and  N_20 
ROOT
ATOM      1  C   LIG d   1      -6.091  92.006 118.632  0.00  0.00     0.161 C 
ATOM      2  C   LIG d   1      -6.202  91.158 117.517  0.00  0.00     0.016 C 
ATOM      3  C   LIG d   1      -6.605  91.604 116.237  0.00  0.00     0.038 C 
ATOM      4  C   LIG d   1      -6.779  92.966 115.948  0.00  0.00     0.028 C 
ATOM      5  C   LIG d   1      -7.168  93.799 117.164  0.00  0.00    -0.047 C 
ATOM      6  C   LIG d   1      -6.169  93.513 118.309  0.00  0.00     0.091 C 
ENDROOT
BRANCH   1   7
ATOM      7  O   LIG d   1      -4.878  91.710 119.351  0.00  0.00    -0.368 OA
BRANCH   7   8
ATOM      8  C   LIG d   1      -3.722  91.377 118.543  0.00  0.00     0.119 C 
BRANCH   8   9
ATOM      9  C   LIG d   1      -3.111  90.085 119.119  0.00  0.00     0.028 C 
ATOM     10  C   LIG d   1      -2.668  89.105 118.020  0.00  0.00     0.006 C 
ENDBRANCH   8   9
BRANCH   8  11
ATOM     11  C   LIG d   1      -2.626  92.438 118.675  0.00  0.00     0.028 C 
ATOM     12  C   LIG d   1      -2.820  93.348 119.898  0.00  0.00     0.006 C 
ENDBRANCH   8  11
ENDBRANCH   7   8
ENDBRANCH   1   7
BRANCH   6  13
ATOM     13  N   LIG d   1      -6.526  94.224 119.564  0.00  0.00    -0.311 N 
ATOM     14  C   LIG d   1      -6.019  95.407 119.906  0.00  0.00     0.210 C 
ATOM     15  C   LIG d   1      -6.505  95.955 121.251  0.00  0.00     0.109 C 
ATOM     16  O   LIG d   1      -5.236  96.069 119.209  0.00  0.00    -0.276 OA
ATOM     17  H   LIG d   1      -7.179  93.772 120.174  0.00  0.00     0.149 HD
ENDBRANCH   6  13
BRANCH   5  18
ATOM     18  N   LIG d   1      -7.181  95.214 116.749  0.00  0.00     0.381 N 
ATOM     19  H   LIG d   1      -7.588  95.775 117.471  0.00  0.00    -0.090 HD
ATOM     20  H   LIG d   1      -7.746  95.306 115.923  0.00  0.00    -0.090 HD
ATOM     21  H   LIG d   1      -6.253  95.523 116.561  0.00  0.00    -0.090 HD
ENDBRANCH   5  18
BRANCH   3  22
ATOM     22  C   LIG d   1      -6.876  90.679 115.241  0.00  0.00     0.382 C 
ATOM     23  O   LIG d   1      -6.055  89.763 114.995  0.00  0.00    -0.241 OA
ATOM     24  O   LIG d   1      -7.912  90.774 114.556  0.00  0.00    -0.241 OA
ENDBRANCH   3  22
TORSDOF 7
ENDMDL
MODEL 6
REMARK VINA RESULT:      -5.2     18.718     20.746
REMARK  7 active torsions:
REMARK  status: ('A' for Active; 'I' for Inactive)
REMARK    1  A    between atoms: C_2  and  C_3 
REMARK    2  A    between atoms: C_3  and  O_6 
REMARK    3  A    between atoms: C_3  and  C_4 
REMARK    4  A    between atoms: C_7  and  O_6 
REMARK    5  A    between atoms: C_9  and  C_10 
REMARK    6  A    between atoms: N_15  and  C_14 
REMARK    7  A    between atoms: N_20  and  C_19 
REMARK       I    between atoms: C_22  and  N_20 
ROOT
ATOM      1  C   LIG d   1      -0.779  59.494 117.917  0.00  0.00     0.161 C 
ATOM      2  C   LIG d   1       0.615  59.431 117.751  0.00  0.00     0.016 C 
ATOM      3  C   LIG d   1       1.535  59.896 118.719  0.00  0.00     0.038 C 
ATOM      4  C   LIG d   1       1.123  60.320 119.991  0.00  0.00     0.028 C 
ATOM      5  C   LIG d   1      -0.298  60.872 120.014  0.00  0.00    -0.047 C 
ATOM      6  C   LIG d   1      -1.245  59.851 119.344  0.00  0.00     0.091 C 
ENDROOT
BRANCH   1   7
ATOM      7  O   LIG d   1      -1.378  58.255 117.489  0.00  0.00    -0.368 OA
BRANCH   7   8
ATOM      8  C   LIG d   1      -1.234  57.132 118.392  0.00  0.00     0.119 C 
BRANCH   8   9
ATOM      9  C   LIG d   1      -0.434  56.042 117.652  0.00  0.00     0.028 C 
ATOM     10  C   LIG d   1       0.925  55.760 118.314  0.00  0.00     0.006 C 
ENDBRANCH   8   9
BRANCH   8  11
ATOM     11  C   LIG d   1      -2.590  56.495 118.711  0.00  0.00     0.028 C 
ATOM     12  C   LIG d   1      -3.733  57.072 117.861  0.00  0.00     0.006 C 
ENDBRANCH   8  11
ENDBRANCH   7   8
ENDBRANCH   1   7
BRANCH   6  13
ATOM     13  N   LIG d   1      -2.642  60.350 119.249  0.00  0.00    -0.311 N 
ATOM     14  C   LIG d   1      -3.588  60.051 120.138  0.00  0.00     0.210 C 
ATOM     15  C   LIG d   1      -4.966  60.653 119.841  0.00  0.00     0.109 C 
ATOM     16  O   LIG d   1      -3.410  59.372 121.160  0.00  0.00    -0.276 OA
ATOM     17  H   LIG d   1      -2.866  60.933 118.467  0.00  0.00     0.149 HD
ENDBRANCH   6  13
BRANCH   5  18
ATOM     18  N   LIG d   1      -0.647  61.147 121.421  0.00  0.00     0.381 N 
ATOM     19  H   LIG d   1      -0.383  60.369 121.993  0.00  0.00    -0.090 HD
ATOM     20  H   LIG d   1      -1.641  61.268 121.492  0.00  0.00    -0.090 HD
ATOM     21  H   LIG d   1      -0.181  61.971 121.733  0.00  0.00    -0.090 HD
ENDBRANCH   5  18
BRANCH   3  22
ATOM     22  C   LIG d   1       2.883  59.977 118.402  0.00  0.00     0.382 C 
ATOM     23  O   LIG d   1       3.237  60.161 117.213  0.00  0.00    -0.241 OA
ATOM     24  O   LIG d   1       3.749  59.825 119.284  0.00  0.00    -0.241 OA
ENDBRANCH   3  22
TORSDOF 7
ENDMDL
MODEL 7
REMARK VINA RESULT:      -5.2     19.180     21.599
REMARK  7 active torsions:
REMARK  status: ('A' for Active; 'I' for Inactive)
REMARK    1  A    between atoms: C_2  and  C_3 
REMARK    2  A    between atoms: C_3  and  O_6 
REMARK    3  A    between atoms: C_3  and  C_4 
REMARK    4  A    between atoms: C_7  and  O_6 
REMARK    5  A    between atoms: C_9  and  C_10 
REMARK    6  A    between atoms: N_15  and  C_14 
REMARK    7  A    between atoms: N_20  and  C_19 
REMARK       I    between atoms: C_22  and  N_20 
ROOT
ATOM      1  C   LIG d   1      -1.508  58.916 120.093  0.00  0.00     0.161 C 
ATOM      2  C   LIG d   1      -1.033  59.547 118.931  0.00  0.00     0.016 C 
ATOM      3  C   LIG d   1      -0.078  58.966 118.065  0.00  0.00     0.038 C 
ATOM      4  C   LIG d   1       0.358  57.642 118.224  0.00  0.00     0.028 C 
ATOM      5  C   LIG d   1       0.288  57.150 119.665  0.00  0.00    -0.047 C 
ATOM      6  C   LIG d   1      -1.127  57.426 120.222  0.00  0.00     0.091 C 
ENDROOT
BRANCH   1   7
ATOM      7  O   LIG d   1      -2.937  59.078 120.188  0.00  0.00    -0.368 OA
BRANCH   7   8
ATOM      8  C   LIG d   1      -3.648  59.212 118.933  0.00  0.00     0.119 C 
BRANCH   8   9
ATOM      9  C   LIG d   1      -4.578  60.435 119.056  0.00  0.00     0.028 C 
ATOM     10  C   LIG d   1      -4.930  60.759 120.517  0.00  0.00     0.006 C 
ENDBRANCH   8   9
BRANCH   8  11
ATOM     11  C   LIG d   1      -4.577  58.019 118.688  0.00  0.00     0.028 C 
ATOM     12  C   LIG d   1      -3.879  56.861 117.958  0.00  0.00     0.006 C 
ENDBRANCH   8  11
ENDBRANCH   7   8
ENDBRANCH   1   7
BRANCH   6  13
ATOM     13  N   LIG d   1      -1.256  57.052 121.655  0.00  0.00    -0.311 N 
ATOM     14  C   LIG d   1      -2.017  56.047 122.084  0.00  0.00     0.210 C 
ATOM     15  C   LIG d   1      -2.023  55.843 123.602  0.00  0.00     0.109 C 
ATOM     16  O   LIG d   1      -2.662  55.284 121.349  0.00  0.00    -0.276 OA
ATOM     17  H   LIG d   1      -0.741  57.599 122.317  0.00  0.00     0.149 HD
ENDBRANCH   6  13
BRANCH   5  18
ATOM     18  N   LIG d   1       0.640  55.717 119.665  0.00  0.00     0.381 N 
ATOM     19  H   LIG d   1       0.536  55.343 120.587  0.00  0.00    -0.090 HD
ATOM     20  H   LIG d   1       1.601  55.618 119.390  0.00  0.00    -0.090 HD
ATOM     21  H   LIG d   1       0.053  55.223 119.030  0.00  0.00    -0.090 HD
ENDBRANCH   5  18
BRANCH   3  22
ATOM     22  C   LIG d   1       0.481  59.726 117.050  0.00  0.00     0.382 C 
ATOM     23  O   LIG d   1       1.550  60.351 117.250  0.00  0.00    -0.241 OA
ATOM     24  O   LIG d   1      -0.093  59.831 115.949  0.00  0.00    -0.241 OA
ENDBRANCH   3  22
TORSDOF 7
ENDMDL
MODEL 8
REMARK VINA RESULT:      -5.2     18.923     20.825
REMARK  7 active torsions:
REMARK  status: ('A' for Active; 'I' for Inactive)
REMARK    1  A    between atoms: C_2  and  C_3 
REMARK    2  A    between atoms: C_3  and  O_6 
REMARK    3  A    between atoms: C_3  and  C_4 
REMARK    4  A    between atoms: C_7  and  O_6 
REMARK    5  A    between atoms: C_9  and  C_10 
REMARK    6  A    between atoms: N_15  and  C_14 
REMARK    7  A    between atoms: N_20  and  C_19 
REMARK       I    between atoms: C_22  and  N_20 
ROOT
ATOM      1  C   LIG d   1      -0.708  59.319 118.737  0.00  0.00     0.161 C 
ATOM      2  C   LIG d   1      -0.556  60.249 119.779  0.00  0.00     0.016 C 
ATOM      3  C   LIG d   1       0.683  60.528 120.398  0.00  0.00     0.038 C 
ATOM      4  C   LIG d   1       1.890  60.003 119.913  0.00  0.00     0.028 C 
ATOM      5  C   LIG d   1       1.722  58.672 119.187  0.00  0.00    -0.047 C 
ATOM      6  C   LIG d   1       0.614  58.818 118.120  0.00  0.00     0.091 C 
ENDROOT
BRANCH   1   7
ATOM      7  O   LIG d   1      -1.563  59.866 117.714  0.00  0.00    -0.368 OA
BRANCH   7   8
ATOM      8  C   LIG d   1      -2.902  59.317 117.642  0.00  0.00     0.119 C 
BRANCH   8   9
ATOM      9  C   LIG d   1      -3.875  60.404 118.137  0.00  0.00     0.028 C 
ATOM     10  C   LIG d   1      -4.612  59.990 119.422  0.00  0.00     0.006 C 
ENDBRANCH   8   9
BRANCH   8  11
ATOM     11  C   LIG d   1      -3.077  58.144 118.611  0.00  0.00     0.028 C 
ATOM     12  C   LIG d   1      -3.562  56.863 117.914  0.00  0.00     0.006 C 
ENDBRANCH   8  11
ENDBRANCH   7   8
ENDBRANCH   1   7
BRANCH   6  13
ATOM     13  N   LIG d   1       0.328  57.538 117.421  0.00  0.00    -0.311 N 
ATOM     14  C   LIG d   1       0.289  56.358 118.038  0.00  0.00     0.210 C 
ATOM     15  C   LIG d   1      -0.003  55.161 117.128  0.00  0.00     0.109 C 
ATOM     16  O   LIG d   1       0.437  56.194 119.259  0.00  0.00    -0.276 OA
ATOM     17  H   LIG d   1       0.165  57.583 116.434  0.00  0.00     0.149 HD
ENDBRANCH   6  13
BRANCH   5  18
ATOM     18  N   LIG d   1       3.032  58.308 118.615  0.00  0.00     0.381 N 
ATOM     19  H   LIG d   1       3.607  59.123 118.540  0.00  0.00    -0.090 HD
ATOM     20  H   LIG d   1       2.892  57.935 117.693  0.00  0.00    -0.090 HD
ATOM     21  H   LIG d   1       3.480  57.629 119.191  0.00  0.00    -0.090 HD
ENDBRANCH   5  18
BRANCH   3  22
ATOM     22  C   LIG d   1       0.719  61.311 121.542  0.00  0.00     0.382 C 
ATOM     23  O   LIG d   1      -0.266  62.028 121.842  0.00  0.00    -0.241 OA
ATOM     24  O   LIG d   1       1.741  61.343 122.254  0.00  0.00    -0.241 OA
ENDBRANCH   3  22
TORSDOF 7
ENDMDL
MODEL 9
REMARK VINA RESULT:      -4.9     18.758     20.555
REMARK  7 active torsions:
REMARK  status: ('A' for Active; 'I' for Inactive)
REMARK    1  A    between atoms: C_2  and  C_3 
REMARK    2  A    between atoms: C_3  and  O_6 
REMARK    3  A    between atoms: C_3  and  C_4 
REMARK    4  A    between atoms: C_7  and  O_6 
REMARK    5  A    between atoms: C_9  and  C_10 
REMARK    6  A    between atoms: N_15  and  C_14 
REMARK    7  A    between atoms: N_20  and  C_19 
REMARK       I    between atoms: C_22  and  N_20 
ROOT
ATOM      1  C   LIG d   1      -2.628  59.165 118.436  0.00  0.00     0.161 C 
ATOM      2  C   LIG d   1      -3.534  59.938 119.180  0.00  0.00     0.016 C 
ATOM      3  C   LIG d   1      -4.066  59.530 120.425  0.00  0.00     0.038 C 
ATOM      4  C   LIG d   1      -3.608  58.381 121.086  0.00  0.00     0.028 C 
ATOM      5  C   LIG d   1      -3.067  57.313 120.140  0.00  0.00    -0.047 C 
ATOM      6  C   LIG d   1      -2.032  57.960 119.193  0.00  0.00     0.091 C 
ENDROOT
BRANCH   1   7
ATOM      7  O   LIG d   1      -1.575  60.006 117.923  0.00  0.00    -0.368 OA
BRANCH   7   8
ATOM      8  C   LIG d   1      -0.369  60.076 118.723  0.00  0.00     0.119 C 
BRANCH   8   9
ATOM      9  C   LIG d   1      -0.393  61.418 119.480  0.00  0.00     0.028 C 
ATOM     10  C   LIG d   1      -0.623  61.235 120.990  0.00  0.00     0.006 C 
ENDBRANCH   8   9
BRANCH   8  11
ATOM     11  C   LIG d   1       0.882  60.130 117.841  0.00  0.00     0.028 C 
ATOM     12  C   LIG d   1       2.103  59.468 118.498  0.00  0.00     0.006 C 
ENDBRANCH   8  11
ENDBRANCH   7   8
ENDBRANCH   1   7
BRANCH   6  13
ATOM     13  N   LIG d   1      -1.515  57.003 118.179  0.00  0.00    -0.311 N 
ATOM     14  C   LIG d   1      -0.366  56.343 118.313  0.00  0.00     0.210 C 
ATOM     15  C   LIG d   1      -0.010  55.421 117.143  0.00  0.00     0.109 C 
ATOM     16  O   LIG d   1       0.377  56.410 119.304  0.00  0.00    -0.276 OA
ATOM     17  H   LIG d   1      -2.070  56.865 117.358  0.00  0.00     0.149 HD
ENDBRANCH   6  13
BRANCH   5  18
ATOM     18  N   LIG d   1      -2.499  56.232 120.967  0.00  0.00     0.381 N 
ATOM     19  H   LIG d   1      -1.649  56.543 121.393  0.00  0.00    -0.090 HD
ATOM     20  H   LIG d   1      -2.287  55.448 120.376  0.00  0.00    -0.090 HD
ATOM     21  H   LIG d   1      -3.151  55.961 121.670  0.00  0.00    -0.090 HD
ENDBRANCH   5  18
BRANCH   3  22
ATOM     22  C   LIG d   1      -5.097  60.255 121.003  0.00  0.00     0.382 C 
ATOM     23  O   LIG d   1      -5.294  60.188 122.240  0.00  0.00    -0.241 OA
ATOM     24  O   LIG d   1      -5.861  60.941 120.297  0.00  0.00    -0.241 OA
ENDBRANCH   3  22
TORSDOF 7
ENDMDL
