MODEL 1
REMARK VINA RESULT:      -5.6      0.000      0.000
REMARK  7 active torsions:
REMARK  status: ('A' for Active; 'I' for Inactive)
REMARK    1  A    between atoms: C_2  and  C_3 
REMARK    2  A    between atoms: C_3  and  O_6 
REMARK    3  A    between atoms: C_3  and  C_4 
REMARK    4  A    between atoms: C_7  and  O_6 
REMARK    5  A    between atoms: C_9  and  C_10 
REMARK    6  A    between atoms: N_15  and  C_14 
REMARK    7  A    between atoms: N_20  and  C_19 
REMARK       I    between atoms: C_22  and  N_20 
ROOT
ATOM      1  C   LIG d   1      -5.197  93.928 118.129  0.00  0.00     0.161 C 
ATOM      2  C   LIG d   1      -5.582  95.165 118.674  0.00  0.00     0.016 C 
ATOM      3  C   LIG d   1      -6.801  95.809 118.358  0.00  0.00     0.038 C 
ATOM      4  C   LIG d   1      -7.791  95.183 117.586  0.00  0.00     0.028 C 
ATOM      5  C   LIG d   1      -7.237  94.155 116.607  0.00  0.00    -0.047 C 
ATOM      6  C   LIG d   1      -6.314  93.179 117.373  0.00  0.00     0.091 C 
ENDROOT
BRANCH   1   7
ATOM      7  O   LIG d   1      -4.643  93.091 119.163  0.00  0.00    -0.368 OA
BRANCH   7   8
ATOM      8  C   LIG d   1      -3.223  92.819 119.071  0.00  0.00     0.119 C 
BRANCH   8   9
ATOM      9  C   LIG d   1      -2.679  93.605 117.862  0.00  0.00     0.028 C 
ATOM     10  C   LIG d   1      -1.261  94.147 118.105  0.00  0.00     0.006 C 
ENDBRANCH   8   9
BRANCH   8  11
ATOM     11  C   LIG d   1      -2.958  91.345 118.748  0.00  0.00     0.028 C 
ATOM     12  C   LIG d   1      -3.983  90.400 119.395  0.00  0.00     0.006 C 
ENDBRANCH   8  11
ENDBRANCH   7   8
ENDBRANCH   1   7
BRANCH   6  13
ATOM     13  N   LIG d   1      -5.663  92.191 116.474  0.00  0.00    -0.311 N 
ATOM     14  C   LIG d   1      -6.101  90.943 116.317  0.00  0.00     0.210 C 
ATOM     15  C   LIG d   1      -5.272  90.082 115.358  0.00  0.00     0.109 C 
ATOM     16  O   LIG d   1      -7.115  90.476 116.857  0.00  0.00    -0.276 OA
ATOM     17  H   LIG d   1      -4.851  92.495 115.973  0.00  0.00     0.149 HD
ENDBRANCH   6  13
BRANCH   5  18
ATOM     18  N   LIG d   1      -8.385  93.483 115.968  0.00  0.00     0.381 N 
ATOM     19  H   LIG d   1      -9.213  94.029 116.101  0.00  0.00    -0.090 HD
ATOM     20  H   LIG d   1      -8.523  92.589 116.406  0.00  0.00    -0.090 HD
ATOM     21  H   LIG d   1      -8.211  93.362 114.995  0.00  0.00    -0.090 HD
ENDBRANCH   5  18
BRANCH   3  22
ATOM     22  C   LIG d   1      -7.020  97.110 118.783  0.00  0.00     0.382 C 
ATOM     23  O   LIG d   1      -7.535  97.946 118.002  0.00  0.00    -0.241 OA
ATOM     24  O   LIG d   1      -6.670  97.470 119.923  0.00  0.00    -0.241 OA
ENDBRANCH   3  22
TORSDOF 7
ENDMDL
MODEL 2
REMARK VINA RESULT:      -5.5      2.427      4.982
REMARK  7 active torsions:
REMARK  status: ('A' for Active; 'I' for Inactive)
REMARK    1  A    between atoms: C_2  and  C_3 
REMARK    2  A    between atoms: C_3  and  O_6 
REMARK    3  A    between atoms: C_3  and  C_4 
REMARK    4  A    between atoms: C_7  and  O_6 
REMARK    5  A    between atoms: C_9  and  C_10 
REMARK    6  A    between atoms: N_15  and  C_14 
REMARK    7  A    between atoms: N_20  and  C_19 
REMARK       I    between atoms: C_22  and  N_20 
ROOT
ATOM      1  C   LIG d   1      -4.615  92.271 118.102  0.00  0.00     0.161 C 
ATOM      2  C   LIG d   1      -5.110  91.267 117.253  0.00  0.00     0.016 C 
ATOM      3  C   LIG d   1      -6.188  91.465 116.360  0.00  0.00     0.038 C 
ATOM      4  C   LIG d   1      -6.751  92.732 116.146  0.00  0.00     0.028 C 
ATOM      5  C   LIG d   1      -6.621  93.663 117.347  0.00  0.00    -0.047 C 
ATOM      6  C   LIG d   1      -5.144  93.690 117.803  0.00  0.00     0.091 C 
ENDROOT
BRANCH   1   7
ATOM      7  O   LIG d   1      -3.174  92.260 118.085  0.00  0.00    -0.368 OA
BRANCH   7   8
ATOM      8  C   LIG d   1      -2.546  90.955 118.146  0.00  0.00     0.119 C 
BRANCH   8   9
ATOM      9  C   LIG d   1      -2.364  90.598 119.634  0.00  0.00     0.028 C 
ATOM     10  C   LIG d   1      -3.228  89.398 120.059  0.00  0.00     0.006 C 
ENDBRANCH   8   9
BRANCH   8  11
ATOM     11  C   LIG d   1      -1.131  90.991 117.561  0.00  0.00     0.028 C 
ATOM     12  C   LIG d   1      -0.049  90.662 118.601  0.00  0.00     0.006 C 
ENDBRANCH   8  11
ENDBRANCH   7   8
ENDBRANCH   1   7
BRANCH   6  13
ATOM     13  N   LIG d   1      -4.943  94.511 119.025  0.00  0.00    -0.311 N 
ATOM     14  C   LIG d   1      -3.893  95.309 119.207  0.00  0.00     0.210 C 
ATOM     15  C   LIG d   1      -3.870  96.053 120.546  0.00  0.00     0.109 C 
ATOM     16  O   LIG d   1      -2.994  95.497 118.373  0.00  0.00    -0.276 OA
ATOM     17  H   LIG d   1      -5.641  94.444 119.740  0.00  0.00     0.149 HD
ENDBRANCH   6  13
BRANCH   5  18
ATOM     18  N   LIG d   1      -7.124  94.988 116.940  0.00  0.00     0.381 N 
ATOM     19  H   LIG d   1      -8.087  94.918 116.676  0.00  0.00    -0.090 HD
ATOM     20  H   LIG d   1      -6.601  95.304 116.142  0.00  0.00    -0.090 HD
ATOM     21  H   LIG d   1      -7.024  95.636 117.690  0.00  0.00    -0.090 HD
ENDBRANCH   5  18
BRANCH   3  22
ATOM     22  C   LIG d   1      -6.741  90.378 115.699  0.00  0.00     0.382 C 
ATOM     23  O   LIG d   1      -7.680  89.735 116.226  0.00  0.00    -0.241 OA
ATOM     24  O   LIG d   1      -6.283  90.006 114.602  0.00  0.00    -0.241 OA
ENDBRANCH   3  22
TORSDOF 7
ENDMDL
MODEL 3
REMARK VINA RESULT:      -5.4      2.174      3.497
REMARK  7 active torsions:
REMARK  status: ('A' for Active; 'I' for Inactive)
REMARK    1  A    between atoms: C_2  and  C_3 
REMARK    2  A    between atoms: C_3  and  O_6 
REMARK    3  A    between atoms: C_3  and  C_4 
REMARK    4  A    between atoms: C_7  and  O_6 
REMARK    5  A    between atoms: C_9  and  C_10 
REMARK    6  A    between atoms: N_15  and  C_14 
REMARK    7  A    between atoms: N_20  and  C_19 
REMARK       I    between atoms: C_22  and  N_20 
ROOT
ATOM      1  C   LIG d   1      -4.485  93.606 118.065  0.00  0.00     0.161 C 
ATOM      2  C   LIG d   1      -5.759  94.189 117.964  0.00  0.00     0.016 C 
ATOM      3  C   LIG d   1      -6.818  93.619 117.221  0.00  0.00     0.038 C 
ATOM      4  C   LIG d   1      -6.719  92.343 116.648  0.00  0.00     0.028 C 
ATOM      5  C   LIG d   1      -5.289  91.945 116.299  0.00  0.00    -0.047 C 
ATOM      6  C   LIG d   1      -4.392  92.159 117.539  0.00  0.00     0.091 C 
ENDROOT
BRANCH   1   7
ATOM      7  O   LIG d   1      -4.023  93.674 119.429  0.00  0.00    -0.368 OA
BRANCH   7   8
ATOM      8  C   LIG d   1      -2.977  94.639 119.701  0.00  0.00     0.119 C 
BRANCH   8   9
ATOM      9  C   LIG d   1      -3.659  95.949 120.142  0.00  0.00     0.028 C 
ATOM     10  C   LIG d   1      -3.282  97.139 119.244  0.00  0.00     0.006 C 
ENDBRANCH   8   9
BRANCH   8  11
ATOM     11  C   LIG d   1      -2.202  94.995 118.428  0.00  0.00     0.028 C 
ATOM     12  C   LIG d   1      -0.722  94.586 118.498  0.00  0.00     0.006 C 
ENDBRANCH   8  11
ENDBRANCH   7   8
ENDBRANCH   1   7
BRANCH   6  13
ATOM     13  N   LIG d   1      -2.960  91.873 117.259  0.00  0.00    -0.311 N 
ATOM     14  C   LIG d   1      -2.210  91.075 118.016  0.00  0.00     0.210 C 
ATOM     15  C   LIG d   1      -0.754  90.932 117.561  0.00  0.00     0.109 C 
ATOM     16  O   LIG d   1      -2.621  90.445 119.003  0.00  0.00    -0.276 OA
ATOM     17  H   LIG d   1      -2.555  92.318 116.459  0.00  0.00     0.149 HD
ENDBRANCH   6  13
BRANCH   5  18
ATOM     18  N   LIG d   1      -5.316  90.543 115.839  0.00  0.00     0.381 N 
ATOM     19  H   LIG d   1      -4.553  90.039 116.245  0.00  0.00    -0.090 HD
ATOM     20  H   LIG d   1      -5.210  90.526 114.840  0.00  0.00    -0.090 HD
ATOM     21  H   LIG d   1      -6.179  90.117 116.096  0.00  0.00    -0.090 HD
ENDBRANCH   5  18
BRANCH   3  22
ATOM     22  C   LIG d   1      -7.980  94.347 117.011  0.00  0.00     0.382 C 
ATOM     23  O   LIG d   1      -8.797  93.984 116.131  0.00  0.00    -0.241 OA
ATOM     24  O   LIG d   1      -8.199  95.387 117.661  0.00  0.00    -0.241 OA
ENDBRANCH   3  22
TORSDOF 7
ENDMDL
MODEL 4
REMARK VINA RESULT:      -5.2      1.784      2.293
REMARK  7 active torsions:
REMARK  status: ('A' for Active; 'I' for Inactive)
REMARK    1  A    between atoms: C_2  and  C_3 
REMARK    2  A    between atoms: C_3  and  O_6 
REMARK    3  A    between atoms: C_3  and  C_4 
REMARK    4  A    between atoms: C_7  and  O_6 
REMARK    5  A    between atoms: C_9  and  C_10 
REMARK    6  A    between atoms: N_15  and  C_14 
REMARK    7  A    between atoms: N_20  and  C_19 
REMARK       I    between atoms: C_22  and  N_20 
ROOT
ATOM      1  C   LIG d   1      -4.196  93.115 117.378  0.00  0.00     0.161 C 
ATOM      2  C   LIG d   1      -3.671  94.128 118.198  0.00  0.00     0.016 C 
ATOM      3  C   LIG d   1      -4.476  95.042 118.917  0.00  0.00     0.038 C 
ATOM      4  C   LIG d   1      -5.870  94.908 118.985  0.00  0.00     0.028 C 
ATOM      5  C   LIG d   1      -6.472  94.210 117.770  0.00  0.00    -0.047 C 
ATOM      6  C   LIG d   1      -5.715  92.884 117.527  0.00  0.00     0.091 C 
ENDROOT
BRANCH   1   7
ATOM      7  O   LIG d   1      -3.478  91.885 117.600  0.00  0.00    -0.368 OA
BRANCH   7   8
ATOM      8  C   LIG d   1      -3.155  91.576 118.978  0.00  0.00     0.119 C 
BRANCH   8   9
ATOM      9  C   LIG d   1      -1.687  91.109 119.016  0.00  0.00     0.028 C 
ATOM     10  C   LIG d   1      -1.040  91.094 117.622  0.00  0.00     0.006 C 
ENDBRANCH   8   9
BRANCH   8  11
ATOM     11  C   LIG d   1      -3.973  90.385 119.488  0.00  0.00     0.028 C 
ATOM     12  C   LIG d   1      -3.111  89.336 120.208  0.00  0.00     0.006 C 
ENDBRANCH   8  11
ENDBRANCH   7   8
ENDBRANCH   1   7
BRANCH   6  13
ATOM     13  N   LIG d   1      -6.184  92.178 116.307  0.00  0.00    -0.311 N 
ATOM     14  C   LIG d   1      -6.883  91.045 116.339  0.00  0.00     0.210 C 
ATOM     15  C   LIG d   1      -7.251  90.473 114.966  0.00  0.00     0.109 C 
ATOM     16  O   LIG d   1      -7.262  90.476 117.374  0.00  0.00    -0.276 OA
ATOM     17  H   LIG d   1      -5.948  92.587 115.424  0.00  0.00     0.149 HD
ENDBRANCH   6  13
BRANCH   5  18
ATOM     18  N   LIG d   1      -7.910  94.014 118.035  0.00  0.00     0.381 N 
ATOM     19  H   LIG d   1      -8.425  94.809 117.713  0.00  0.00    -0.090 HD
ATOM     20  H   LIG d   1      -8.049  93.929 119.026  0.00  0.00    -0.090 HD
ATOM     21  H   LIG d   1      -8.232  93.191 117.575  0.00  0.00    -0.090 HD
ENDBRANCH   5  18
BRANCH   3  22
ATOM     22  C   LIG d   1      -3.887  96.128 119.547  0.00  0.00     0.382 C 
ATOM     23  O   LIG d   1      -2.783  96.565 119.141  0.00  0.00    -0.241 OA
ATOM     24  O   LIG d   1      -4.424  96.648 120.543  0.00  0.00    -0.241 OA
ENDBRANCH   3  22
TORSDOF 7
ENDMDL
MODEL 5
REMARK VINA RESULT:      -5.2      1.963      4.874
REMARK  7 active torsions:
REMARK  status: ('A' for Active; 'I' for Inactive)
REMARK    1  A    between atoms: C_2  and  C_3 
REMARK    2  A    between atoms: C_3  and  O_6 
REMARK    3  A    between atoms: C_3  and  C_4 
REMARK    4  A    between atoms: C_7  and  O_6 
REMARK    5  A    between atoms: C_9  and  C_10 
REMARK    6  A    between atoms: N_15  and  C_14 
REMARK    7  A    between atoms: N_20  and  C_19 
REMARK       I    between atoms: C_22  and  N_20 
ROOT
ATOM      1  C   LIG d   1      -6.158  92.095 119.094  0.00  0.00     0.161 C 
ATOM      2  C   LIG d   1      -6.403  91.186 118.051  0.00  0.00     0.016 C 
ATOM      3  C   LIG d   1      -6.842  91.577 116.765  0.00  0.00     0.038 C 
ATOM      4  C   LIG d   1      -6.920  92.926 116.387  0.00  0.00     0.028 C 
ATOM      5  C   LIG d   1      -7.167  93.870 117.558  0.00  0.00    -0.047 C 
ATOM      6  C   LIG d   1      -6.130  93.577 118.667  0.00  0.00     0.091 C 
ENDROOT
BRANCH   1   7
ATOM      7  O   LIG d   1      -4.933  91.745 119.768  0.00  0.00    -0.368 OA
BRANCH   7   8
ATOM      8  C   LIG d   1      -3.705  92.097 119.084  0.00  0.00     0.119 C 
BRANCH   8   9
ATOM      9  C   LIG d   1      -2.910  90.796 118.861  0.00  0.00     0.028 C 
ATOM     10  C   LIG d   1      -3.355  89.667 119.806  0.00  0.00     0.006 C 
ENDBRANCH   8   9
BRANCH   8  11
ATOM     11  C   LIG d   1      -2.809  92.974 119.963  0.00  0.00     0.028 C 
ATOM     12  C   LIG d   1      -3.292  93.048 121.420  0.00  0.00     0.006 C 
ENDBRANCH   8  11
ENDBRANCH   7   8
ENDBRANCH   1   7
BRANCH   6  13
ATOM     13  N   LIG d   1      -6.353  94.400 119.884  0.00  0.00    -0.311 N 
ATOM     14  C   LIG d   1      -5.719  95.548 120.119  0.00  0.00     0.210 C 
ATOM     15  C   LIG d   1      -6.082  96.227 121.443  0.00  0.00     0.109 C 
ATOM     16  O   LIG d   1      -4.915  96.084 119.342  0.00  0.00    -0.276 OA
ATOM     17  H   LIG d   1      -7.013  94.055 120.553  0.00  0.00     0.149 HD
ENDBRANCH   6  13
BRANCH   5  18
ATOM     18  N   LIG d   1      -7.087  95.250 117.043  0.00  0.00     0.381 N 
ATOM     19  H   LIG d   1      -6.205  95.393 116.593  0.00  0.00    -0.090 HD
ATOM     20  H   LIG d   1      -7.155  95.890 117.814  0.00  0.00    -0.090 HD
ATOM     21  H   LIG d   1      -7.828  95.416 116.398  0.00  0.00    -0.090 HD
ENDBRANCH   5  18
BRANCH   3  22
ATOM     22  C   LIG d   1      -7.247  90.613 115.854  0.00  0.00     0.382 C 
ATOM     23  O   LIG d   1      -7.051  90.788 114.628  0.00  0.00    -0.241 OA
ATOM     24  O   LIG d   1      -7.845  89.591 116.240  0.00  0.00    -0.241 OA
ENDBRANCH   3  22
TORSDOF 7
ENDMDL
MODEL 6
REMARK VINA RESULT:      -5.0     11.633     14.558
REMARK  7 active torsions:
REMARK  status: ('A' for Active; 'I' for Inactive)
REMARK    1  A    between atoms: C_2  and  C_3 
REMARK    2  A    between atoms: C_3  and  O_6 
REMARK    3  A    between atoms: C_3  and  C_4 
REMARK    4  A    between atoms: C_7  and  O_6 
REMARK    5  A    between atoms: C_9  and  C_10 
REMARK    6  A    between atoms: N_15  and  C_14 
REMARK    7  A    between atoms: N_20  and  C_19 
REMARK       I    between atoms: C_22  and  N_20 
ROOT
ATOM      1  C   LIG d   1      -6.702  79.393 117.987  0.00  0.00     0.161 C 
ATOM      2  C   LIG d   1      -8.001  78.951 118.289  0.00  0.00     0.016 C 
ATOM      3  C   LIG d   1      -9.039  79.815 118.708  0.00  0.00     0.038 C 
ATOM      4  C   LIG d   1      -8.888  81.210 118.709  0.00  0.00     0.028 C 
ATOM      5  C   LIG d   1      -7.444  81.662 118.898  0.00  0.00    -0.047 C 
ATOM      6  C   LIG d   1      -6.549  80.924 117.876  0.00  0.00     0.091 C 
ENDROOT
BRANCH   1   7
ATOM      7  O   LIG d   1      -6.236  78.754 116.783  0.00  0.00    -0.368 OA
BRANCH   7   8
ATOM      8  C   LIG d   1      -5.933  77.341 116.887  0.00  0.00     0.119 C 
BRANCH   8   9
ATOM      9  C   LIG d   1      -4.419  77.173 116.653  0.00  0.00     0.028 C 
ATOM     10  C   LIG d   1      -3.769  78.444 116.081  0.00  0.00     0.006 C 
ENDBRANCH   8   9
BRANCH   8  11
ATOM     11  C   LIG d   1      -6.607  76.543 115.766  0.00  0.00     0.028 C 
ATOM     12  C   LIG d   1      -7.877  75.815 116.234  0.00  0.00     0.006 C 
ENDBRANCH   8  11
ENDBRANCH   7   8
ENDBRANCH   1   7
BRANCH   6  13
ATOM     13  N   LIG d   1      -5.108  81.246 118.047  0.00  0.00    -0.311 N 
ATOM     14  C   LIG d   1      -4.479  82.187 117.346  0.00  0.00     0.210 C 
ATOM     15  C   LIG d   1      -2.989  82.344 117.665  0.00  0.00     0.109 C 
ATOM     16  O   LIG d   1      -5.020  82.929 116.512  0.00  0.00    -0.276 OA
ATOM     17  H   LIG d   1      -4.599  80.714 118.725  0.00  0.00     0.149 HD
ENDBRANCH   6  13
BRANCH   5  18
ATOM     18  N   LIG d   1      -7.412  83.129 118.741  0.00  0.00     0.381 N 
ATOM     19  H   LIG d   1      -8.040  83.405 118.013  0.00  0.00    -0.090 HD
ATOM     20  H   LIG d   1      -6.483  83.408 118.479  0.00  0.00    -0.090 HD
ATOM     21  H   LIG d   1      -7.670  83.569 119.597  0.00  0.00    -0.090 HD
ENDBRANCH   5  18
BRANCH   3  22
ATOM     22  C   LIG d   1     -10.232  79.281 119.171  0.00  0.00     0.382 C 
ATOM     23  O   LIG d   1     -10.878  79.874 120.069  0.00  0.00    -0.241 OA
ATOM     24  O   LIG d   1     -10.649  78.192 118.733  0.00  0.00    -0.241 OA
ENDBRANCH   3  22
TORSDOF 7
ENDMDL
MODEL 7
REMARK VINA RESULT:      -4.9      2.344      4.394
REMARK  7 active torsions:
REMARK  status: ('A' for Active; 'I' for Inactive)
REMARK    1  A    between atoms: C_2  and  C_3 
REMARK    2  A    between atoms: C_3  and  O_6 
REMARK    3  A    between atoms: C_3  and  C_4 
REMARK    4  A    between atoms: C_7  and  O_6 
REMARK    5  A    between atoms: C_9  and  C_10 
REMARK    6  A    between atoms: N_15  and  C_14 
REMARK    7  A    between atoms: N_20  and  C_19 
REMARK       I    between atoms: C_22  and  N_20 
ROOT
ATOM      1  C   LIG d   1      -4.853  92.663 117.556  0.00  0.00     0.161 C 
ATOM      2  C   LIG d   1      -5.303  91.721 116.616  0.00  0.00     0.016 C 
ATOM      3  C   LIG d   1      -6.522  91.847 115.911  0.00  0.00     0.038 C 
ATOM      4  C   LIG d   1      -7.307  93.007 115.988  0.00  0.00     0.028 C 
ATOM      5  C   LIG d   1      -7.147  93.760 117.304  0.00  0.00    -0.047 C 
ATOM      6  C   LIG d   1      -5.642  93.989 117.571  0.00  0.00     0.091 C 
ENDROOT
BRANCH   1   7
ATOM      7  O   LIG d   1      -3.449  92.918 117.359  0.00  0.00    -0.368 OA
BRANCH   7   8
ATOM      8  C   LIG d   1      -2.565  92.471 118.417  0.00  0.00     0.119 C 
BRANCH   8   9
ATOM      9  C   LIG d   1      -1.193  93.133 118.184  0.00  0.00     0.028 C 
ATOM     10  C   LIG d   1      -0.160  92.153 117.604  0.00  0.00     0.006 C 
ENDBRANCH   8   9
BRANCH   8  11
ATOM     11  C   LIG d   1      -2.309  90.964 118.330  0.00  0.00     0.028 C 
ATOM     12  C   LIG d   1      -2.923  90.186 119.505  0.00  0.00     0.006 C 
ENDBRANCH   8  11
ENDBRANCH   7   8
ENDBRANCH   1   7
BRANCH   6  13
ATOM     13  N   LIG d   1      -5.393  94.646 118.881  0.00  0.00    -0.311 N 
ATOM     14  C   LIG d   1      -5.784  94.131 120.046  0.00  0.00     0.210 C 
ATOM     15  C   LIG d   1      -5.443  94.980 121.275  0.00  0.00     0.109 C 
ATOM     16  O   LIG d   1      -6.352  93.037 120.180  0.00  0.00    -0.276 OA
ATOM     17  H   LIG d   1      -4.910  95.523 118.867  0.00  0.00     0.149 HD
ENDBRANCH   6  13
BRANCH   5  18
ATOM     18  N   LIG d   1      -7.912  95.017 117.194  0.00  0.00     0.381 N 
ATOM     19  H   LIG d   1      -7.287  95.797 117.210  0.00  0.00    -0.090 HD
ATOM     20  H   LIG d   1      -8.530  95.091 117.984  0.00  0.00    -0.090 HD
ATOM     21  H   LIG d   1      -8.440  95.022 116.349  0.00  0.00    -0.090 HD
ENDBRANCH   5  18
BRANCH   3  22
ATOM     22  C   LIG d   1      -6.987  90.787 115.147  0.00  0.00     0.382 C 
ATOM     23  O   LIG d   1      -6.179  89.947 114.682  0.00  0.00    -0.241 OA
ATOM     24  O   LIG d   1      -8.200  90.684 114.881  0.00  0.00    -0.241 OA
ENDBRANCH   3  22
TORSDOF 7
ENDMDL
MODEL 8
REMARK VINA RESULT:      -4.8     16.184     19.644
REMARK  7 active torsions:
REMARK  status: ('A' for Active; 'I' for Inactive)
REMARK    1  A    between atoms: C_2  and  C_3 
REMARK    2  A    between atoms: C_3  and  O_6 
REMARK    3  A    between atoms: C_3  and  C_4 
REMARK    4  A    between atoms: C_7  and  O_6 
REMARK    5  A    between atoms: C_9  and  C_10 
REMARK    6  A    between atoms: N_15  and  C_14 
REMARK    7  A    between atoms: N_20  and  C_19 
REMARK       I    between atoms: C_22  and  N_20 
ROOT
ATOM      1  C   LIG d   1      -4.753  74.337 117.236  0.00  0.00     0.161 C 
ATOM      2  C   LIG d   1      -5.234  73.018 117.191  0.00  0.00     0.016 C 
ATOM      3  C   LIG d   1      -6.581  72.690 116.911  0.00  0.00     0.038 C 
ATOM      4  C   LIG d   1      -7.511  73.658 116.505  0.00  0.00     0.028 C 
ATOM      5  C   LIG d   1      -7.196  75.056 117.027  0.00  0.00    -0.047 C 
ATOM      6  C   LIG d   1      -5.728  75.400 116.687  0.00  0.00     0.091 C 
ENDROOT
BRANCH   1   7
ATOM      7  O   LIG d   1      -3.486  74.419 116.554  0.00  0.00    -0.368 OA
BRANCH   7   8
ATOM      8  C   LIG d   1      -2.350  74.806 117.364  0.00  0.00     0.119 C 
BRANCH   8   9
ATOM      9  C   LIG d   1      -1.340  73.642 117.332  0.00  0.00     0.028 C 
ATOM     10  C   LIG d   1      -1.228  72.924 118.688  0.00  0.00     0.006 C 
ENDBRANCH   8   9
BRANCH   8  11
ATOM     11  C   LIG d   1      -2.742  74.961 118.836  0.00  0.00     0.028 C 
ATOM     12  C   LIG d   1      -2.434  76.361 119.390  0.00  0.00     0.006 C 
ENDBRANCH   8  11
ENDBRANCH   7   8
ENDBRANCH   1   7
BRANCH   6  13
ATOM     13  N   LIG d   1      -5.313  76.717 117.236  0.00  0.00    -0.311 N 
ATOM     14  C   LIG d   1      -4.773  77.683 116.494  0.00  0.00     0.210 C 
ATOM     15  C   LIG d   1      -4.399  78.955 117.261  0.00  0.00     0.109 C 
ATOM     16  O   LIG d   1      -4.600  77.620 115.268  0.00  0.00    -0.276 OA
ATOM     17  H   LIG d   1      -5.447  76.866 118.217  0.00  0.00     0.149 HD
ENDBRANCH   6  13
BRANCH   5  18
ATOM     18  N   LIG d   1      -8.164  75.988 116.417  0.00  0.00     0.381 N 
ATOM     19  H   LIG d   1      -7.991  76.060 115.434  0.00  0.00    -0.090 HD
ATOM     20  H   LIG d   1      -8.042  76.897 116.826  0.00  0.00    -0.090 HD
ATOM     21  H   LIG d   1      -9.093  75.666 116.575  0.00  0.00    -0.090 HD
ENDBRANCH   5  18
BRANCH   3  22
ATOM     22  C   LIG d   1      -7.018  71.384 117.075  0.00  0.00     0.382 C 
ATOM     23  O   LIG d   1      -6.229  70.429 116.877  0.00  0.00    -0.241 OA
ATOM     24  O   LIG d   1      -8.204  71.148 117.375  0.00  0.00    -0.241 OA
ENDBRANCH   3  22
TORSDOF 7
ENDMDL
MODEL 9
REMARK VINA RESULT:      -4.7      2.512      5.337
REMARK  7 active torsions:
REMARK  status: ('A' for Active; 'I' for Inactive)
REMARK    1  A    between atoms: C_2  and  C_3 
REMARK    2  A    between atoms: C_3  and  O_6 
REMARK    3  A    between atoms: C_3  and  C_4 
REMARK    4  A    between atoms: C_7  and  O_6 
REMARK    5  A    between atoms: C_9  and  C_10 
REMARK    6  A    between atoms: N_15  and  C_14 
REMARK    7  A    between atoms: N_20  and  C_19 
REMARK       I    between atoms: C_22  and  N_20 
ROOT
ATOM      1  C   LIG d   1      -3.691  93.354 118.488  0.00  0.00     0.161 C 
ATOM      2  C   LIG d   1      -2.537  92.612 118.786  0.00  0.00     0.016 C 
ATOM      3  C   LIG d   1      -2.275  91.330 118.247  0.00  0.00     0.038 C 
ATOM      4  C   LIG d   1      -3.084  90.766 117.250  0.00  0.00     0.028 C 
ATOM      5  C   LIG d   1      -4.527  91.258 117.291  0.00  0.00    -0.047 C 
ATOM      6  C   LIG d   1      -4.531  92.803 117.317  0.00  0.00     0.091 C 
ENDROOT
BRANCH   1   7
ATOM      7  O   LIG d   1      -3.338  94.731 118.247  0.00  0.00    -0.368 OA
BRANCH   7   8
ATOM      8  C   LIG d   1      -3.108  95.545 119.423  0.00  0.00     0.119 C 
BRANCH   8   9
ATOM      9  C   LIG d   1      -4.079  96.740 119.356  0.00  0.00     0.028 C 
ATOM     10  C   LIG d   1      -3.360  98.063 119.045  0.00  0.00     0.006 C 
ENDBRANCH   8   9
BRANCH   8  11
ATOM     11  C   LIG d   1      -1.706  96.161 119.409  0.00  0.00     0.028 C 
ATOM     12  C   LIG d   1      -0.812  95.635 120.544  0.00  0.00     0.006 C 
ENDBRANCH   8  11
ENDBRANCH   7   8
ENDBRANCH   1   7
BRANCH   6  13
ATOM     13  N   LIG d   1      -5.901  93.365 117.442  0.00  0.00    -0.311 N 
ATOM     14  C   LIG d   1      -6.684  93.628 116.397  0.00  0.00     0.210 C 
ATOM     15  C   LIG d   1      -8.051  94.223 116.747  0.00  0.00     0.109 C 
ATOM     16  O   LIG d   1      -6.388  93.395 115.215  0.00  0.00    -0.276 OA
ATOM     17  H   LIG d   1      -6.233  93.556 118.367  0.00  0.00     0.149 HD
ENDBRANCH   6  13
BRANCH   5  18
ATOM     18  N   LIG d   1      -5.222  90.697 116.117  0.00  0.00     0.381 N 
ATOM     19  H   LIG d   1      -4.606  90.691 115.329  0.00  0.00    -0.090 HD
ATOM     20  H   LIG d   1      -6.010  91.281 115.896  0.00  0.00    -0.090 HD
ATOM     21  H   LIG d   1      -5.531  89.771 116.313  0.00  0.00    -0.090 HD
ENDBRANCH   5  18
BRANCH   3  22
ATOM     22  C   LIG d   1      -1.215  90.583 118.737  0.00  0.00     0.382 C 
ATOM     23  O   LIG d   1      -0.110  90.598 118.142  0.00  0.00    -0.241 OA
ATOM     24  O   LIG d   1      -1.362  89.859 119.740  0.00  0.00    -0.241 OA
ENDBRANCH   3  22
TORSDOF 7
ENDMDL
