MODEL 1
REMARK VINA RESULT:      -7.0      0.000      0.000
REMARK  7 active torsions:
REMARK  status: ('A' for Active; 'I' for Inactive)
REMARK    1  A    between atoms: C_2  and  C_3 
REMARK    2  A    between atoms: C_3  and  O_6 
REMARK    3  A    between atoms: C_3  and  C_4 
REMARK    4  A    between atoms: C_7  and  O_6 
REMARK    5  A    between atoms: C_9  and  C_10 
REMARK    6  A    between atoms: N_15  and  C_14 
REMARK    7  A    between atoms: N_20  and  C_19 
REMARK       I    between atoms: C_22  and  N_20 
ROOT
ATOM      1  C   LIG d   1       1.066  84.173 109.403  0.00  0.00     0.161 C 
ATOM      2  C   LIG d   1       0.750  85.488 109.781  0.00  0.00     0.016 C 
ATOM      3  C   LIG d   1       0.023  85.809 110.950  0.00  0.00     0.038 C 
ATOM      4  C   LIG d   1      -0.310  84.838 111.906  0.00  0.00     0.028 C 
ATOM      5  C   LIG d   1      -0.454  83.437 111.321  0.00  0.00    -0.047 C 
ATOM      6  C   LIG d   1       0.807  83.108 110.490  0.00  0.00     0.091 C 
ENDROOT
BRANCH   1   7
ATOM      7  O   LIG d   1       2.434  84.108 108.954  0.00  0.00    -0.368 OA
BRANCH   7   8
ATOM      8  C   LIG d   1       3.428  83.841 109.974  0.00  0.00     0.119 C 
BRANCH   8   9
ATOM      9  C   LIG d   1       4.002  85.198 110.427  0.00  0.00     0.028 C 
ATOM     10  C   LIG d   1       3.769  85.463 111.924  0.00  0.00     0.006 C 
ENDBRANCH   8   9
BRANCH   8  11
ATOM     11  C   LIG d   1       4.619  83.068 109.403  0.00  0.00     0.028 C 
ATOM     12  C   LIG d   1       4.265  82.283 108.129  0.00  0.00     0.006 C 
ENDBRANCH   8  11
ENDBRANCH   7   8
ENDBRANCH   1   7
BRANCH   6  13
ATOM     13  N   LIG d   1       0.713  81.788 109.814  0.00  0.00    -0.311 N 
ATOM     14  C   LIG d   1       1.486  80.749 110.122  0.00  0.00     0.210 C 
ATOM     15  C   LIG d   1       1.238  79.488 109.289  0.00  0.00     0.109 C 
ATOM     16  O   LIG d   1       2.333  80.742 111.029  0.00  0.00    -0.276 OA
ATOM     17  H   LIG d   1       0.031  81.696 109.087  0.00  0.00     0.149 HD
ENDBRANCH   6  13
BRANCH   5  18
ATOM     18  N   LIG d   1      -0.665  82.505 112.445  0.00  0.00     0.381 N 
ATOM     19  H   LIG d   1      -1.377  81.843 112.206  0.00  0.00    -0.090 HD
ATOM     20  H   LIG d   1      -0.975  83.026 113.246  0.00  0.00    -0.090 HD
ATOM     21  H   LIG d   1       0.184  82.028 112.657  0.00  0.00    -0.090 HD
ENDBRANCH   5  18
BRANCH   3  22
ATOM     22  C   LIG d   1      -0.414  87.110 111.152  0.00  0.00     0.382 C 
ATOM     23  O   LIG d   1       0.414  88.016 111.410  0.00  0.00    -0.241 OA
ATOM     24  O   LIG d   1      -1.630  87.379 111.124  0.00  0.00    -0.241 OA
ENDBRANCH   3  22
TORSDOF 7
ENDMDL
MODEL 2
REMARK VINA RESULT:      -6.6      1.798      2.994
REMARK  7 active torsions:
REMARK  status: ('A' for Active; 'I' for Inactive)
REMARK    1  A    between atoms: C_2  and  C_3 
REMARK    2  A    between atoms: C_3  and  O_6 
REMARK    3  A    between atoms: C_3  and  C_4 
REMARK    4  A    between atoms: C_7  and  O_6 
REMARK    5  A    between atoms: C_9  and  C_10 
REMARK    6  A    between atoms: N_15  and  C_14 
REMARK    7  A    between atoms: N_20  and  C_19 
REMARK       I    between atoms: C_22  and  N_20 
ROOT
ATOM      1  C   LIG d   1       2.501  85.712 110.370  0.00  0.00     0.161 C 
ATOM      2  C   LIG d   1       1.463  86.399 111.021  0.00  0.00     0.016 C 
ATOM      3  C   LIG d   1       0.234  85.798 111.375  0.00  0.00     0.038 C 
ATOM      4  C   LIG d   1       0.016  84.419 111.237  0.00  0.00     0.028 C 
ATOM      5  C   LIG d   1       0.842  83.784 110.124  0.00  0.00    -0.047 C 
ATOM      6  C   LIG d   1       2.325  84.180 110.311  0.00  0.00     0.091 C 
ENDROOT
BRANCH   1   7
ATOM      7  O   LIG d   1       3.765  86.048 110.976  0.00  0.00    -0.368 OA
BRANCH   7   8
ATOM      8  C   LIG d   1       3.729  86.373 112.387  0.00  0.00     0.119 C 
BRANCH   8   9
ATOM      9  C   LIG d   1       4.726  87.523 112.624  0.00  0.00     0.028 C 
ATOM     10  C   LIG d   1       4.890  87.861 114.115  0.00  0.00     0.006 C 
ENDBRANCH   8   9
BRANCH   8  11
ATOM     11  C   LIG d   1       4.242  85.209 113.240  0.00  0.00     0.028 C 
ATOM     12  C   LIG d   1       3.109  84.417 113.913  0.00  0.00     0.006 C 
ENDBRANCH   8  11
ENDBRANCH   7   8
ENDBRANCH   1   7
BRANCH   6  13
ATOM     13  N   LIG d   1       3.191  83.670 109.216  0.00  0.00    -0.311 N 
ATOM     14  C   LIG d   1       3.899  82.545 109.306  0.00  0.00     0.210 C 
ATOM     15  C   LIG d   1       4.741  82.212 108.070  0.00  0.00     0.109 C 
ATOM     16  O   LIG d   1       3.886  81.776 110.278  0.00  0.00    -0.276 OA
ATOM     17  H   LIG d   1       3.236  84.216 108.378  0.00  0.00     0.149 HD
ENDBRANCH   6  13
BRANCH   5  18
ATOM     18  N   LIG d   1       0.622  82.326 110.181  0.00  0.00     0.381 N 
ATOM     19  H   LIG d   1       0.320  81.994 109.287  0.00  0.00    -0.090 HD
ATOM     20  H   LIG d   1      -0.102  82.133 110.851  0.00  0.00    -0.090 HD
ATOM     21  H   LIG d   1       1.463  81.864 110.448  0.00  0.00    -0.090 HD
ENDBRANCH   5  18
BRANCH   3  22
ATOM     22  C   LIG d   1      -0.809  86.586 111.838  0.00  0.00     0.382 C 
ATOM     23  O   LIG d   1      -1.156  86.523 113.042  0.00  0.00    -0.241 OA
ATOM     24  O   LIG d   1      -1.436  87.327 111.057  0.00  0.00    -0.241 OA
ENDBRANCH   3  22
TORSDOF 7
ENDMDL
MODEL 3
REMARK VINA RESULT:      -6.5      2.484      4.677
REMARK  7 active torsions:
REMARK  status: ('A' for Active; 'I' for Inactive)
REMARK    1  A    between atoms: C_2  and  C_3 
REMARK    2  A    between atoms: C_3  and  O_6 
REMARK    3  A    between atoms: C_3  and  C_4 
REMARK    4  A    between atoms: C_7  and  O_6 
REMARK    5  A    between atoms: C_9  and  C_10 
REMARK    6  A    between atoms: N_15  and  C_14 
REMARK    7  A    between atoms: N_20  and  C_19 
REMARK       I    between atoms: C_22  and  N_20 
ROOT
ATOM      1  C   LIG d   1       2.292  83.369 111.404  0.00  0.00     0.161 C 
ATOM      2  C   LIG d   1       1.238  82.442 111.466  0.00  0.00     0.016 C 
ATOM      3  C   LIG d   1      -0.063  82.770 111.911  0.00  0.00     0.038 C 
ATOM      4  C   LIG d   1      -0.441  84.093 112.185  0.00  0.00     0.028 C 
ATOM      5  C   LIG d   1       0.722  84.978 112.621  0.00  0.00    -0.047 C 
ATOM      6  C   LIG d   1       1.869  84.841 111.593  0.00  0.00     0.091 C 
ENDROOT
BRANCH   1   7
ATOM      7  O   LIG d   1       3.012  83.210 110.166  0.00  0.00    -0.368 OA
BRANCH   7   8
ATOM      8  C   LIG d   1       2.250  82.691 109.048  0.00  0.00     0.119 C 
BRANCH   8   9
ATOM      9  C   LIG d   1       3.224  81.907 108.148  0.00  0.00     0.028 C 
ATOM     10  C   LIG d   1       4.696  82.234 108.452  0.00  0.00     0.006 C 
ENDBRANCH   8   9
BRANCH   8  11
ATOM     11  C   LIG d   1       1.708  83.823 108.170  0.00  0.00     0.028 C 
ATOM     12  C   LIG d   1       1.626  83.438 106.684  0.00  0.00     0.006 C 
ENDBRANCH   8  11
ENDBRANCH   7   8
ENDBRANCH   1   7
BRANCH   6  13
ATOM     13  N   LIG d   1       3.079  85.609 111.988  0.00  0.00    -0.311 N 
ATOM     14  C   LIG d   1       3.319  86.856 111.587  0.00  0.00     0.210 C 
ATOM     15  C   LIG d   1       4.634  87.457 112.093  0.00  0.00     0.109 C 
ATOM     16  O   LIG d   1       2.552  87.533 110.885  0.00  0.00    -0.276 OA
ATOM     17  H   LIG d   1       3.739  85.147 112.582  0.00  0.00     0.149 HD
ENDBRANCH   6  13
BRANCH   5  18
ATOM     18  N   LIG d   1       0.213  86.357 112.740  0.00  0.00     0.381 N 
ATOM     19  H   LIG d   1      -0.741  86.341 113.039  0.00  0.00    -0.090 HD
ATOM     20  H   LIG d   1       0.253  86.797 111.837  0.00  0.00    -0.090 HD
ATOM     21  H   LIG d   1       0.766  86.869 113.392  0.00  0.00    -0.090 HD
ENDBRANCH   5  18
BRANCH   3  22
ATOM     22  C   LIG d   1      -0.990  81.762 112.125  0.00  0.00     0.382 C 
ATOM     23  O   LIG d   1      -0.730  80.586 111.777  0.00  0.00    -0.241 OA
ATOM     24  O   LIG d   1      -2.103  82.022 112.623  0.00  0.00    -0.241 OA
ENDBRANCH   3  22
TORSDOF 7
ENDMDL
MODEL 4
REMARK VINA RESULT:      -6.2      2.507      4.918
REMARK  7 active torsions:
REMARK  status: ('A' for Active; 'I' for Inactive)
REMARK    1  A    between atoms: C_2  and  C_3 
REMARK    2  A    between atoms: C_3  and  O_6 
REMARK    3  A    between atoms: C_3  and  C_4 
REMARK    4  A    between atoms: C_7  and  O_6 
REMARK    5  A    between atoms: C_9  and  C_10 
REMARK    6  A    between atoms: N_15  and  C_14 
REMARK    7  A    between atoms: N_20  and  C_19 
REMARK       I    between atoms: C_22  and  N_20 
ROOT
ATOM      1  C   LIG d   1       0.753  82.248 110.868  0.00  0.00     0.161 C 
ATOM      2  C   LIG d   1       1.532  82.690 109.785  0.00  0.00     0.016 C 
ATOM      3  C   LIG d   1       1.996  81.834 108.760  0.00  0.00     0.038 C 
ATOM      4  C   LIG d   1       1.584  80.496 108.668  0.00  0.00     0.028 C 
ATOM      5  C   LIG d   1       1.209  79.883 110.013  0.00  0.00    -0.047 C 
ATOM      6  C   LIG d   1       0.201  80.814 110.725  0.00  0.00     0.091 C 
ENDROOT
BRANCH   1   7
ATOM      7  O   LIG d   1      -0.322  83.177 111.108  0.00  0.00    -0.368 OA
BRANCH   7   8
ATOM      8  C   LIG d   1       0.068  84.546 111.380  0.00  0.00     0.119 C 
BRANCH   8   9
ATOM      9  C   LIG d   1      -0.416  84.892 112.801  0.00  0.00     0.028 C 
ATOM     10  C   LIG d   1       0.732  85.349 113.717  0.00  0.00     0.006 C 
ENDBRANCH   8   9
BRANCH   8  11
ATOM     11  C   LIG d   1      -0.659  85.526 110.454  0.00  0.00     0.028 C 
ATOM     12  C   LIG d   1       0.300  86.307 109.541  0.00  0.00     0.006 C 
ENDBRANCH   8  11
ENDBRANCH   7   8
ENDBRANCH   1   7
BRANCH   6  13
ATOM     13  N   LIG d   1      -0.154  80.331 112.085  0.00  0.00    -0.311 N 
ATOM     14  C   LIG d   1      -1.204  79.552 112.335  0.00  0.00     0.210 C 
ATOM     15  C   LIG d   1      -1.401  79.185 113.809  0.00  0.00     0.109 C 
ATOM     16  O   LIG d   1      -1.973  79.103 111.472  0.00  0.00    -0.276 OA
ATOM     17  H   LIG d   1       0.435  80.622 112.841  0.00  0.00     0.149 HD
ENDBRANCH   6  13
BRANCH   5  18
ATOM     18  N   LIG d   1       0.668  78.536 109.754  0.00  0.00     0.381 N 
ATOM     19  H   LIG d   1       1.401  77.931 109.442  0.00  0.00    -0.090 HD
ATOM     20  H   LIG d   1      -0.022  78.597 109.026  0.00  0.00    -0.090 HD
ATOM     21  H   LIG d   1       0.255  78.169 110.583  0.00  0.00    -0.090 HD
ENDBRANCH   5  18
BRANCH   3  22
ATOM     22  C   LIG d   1       2.916  82.305 107.836  0.00  0.00     0.382 C 
ATOM     23  O   LIG d   1       4.144  82.224 108.076  0.00  0.00    -0.241 OA
ATOM     24  O   LIG d   1       2.531  82.850 106.784  0.00  0.00    -0.241 OA
ENDBRANCH   3  22
TORSDOF 7
ENDMDL
MODEL 5
REMARK VINA RESULT:      -6.1      2.674      4.914
REMARK  7 active torsions:
REMARK  status: ('A' for Active; 'I' for Inactive)
REMARK    1  A    between atoms: C_2  and  C_3 
REMARK    2  A    between atoms: C_3  and  O_6 
REMARK    3  A    between atoms: C_3  and  C_4 
REMARK    4  A    between atoms: C_7  and  O_6 
REMARK    5  A    between atoms: C_9  and  C_10 
REMARK    6  A    between atoms: N_15  and  C_14 
REMARK    7  A    between atoms: N_20  and  C_19 
REMARK       I    between atoms: C_22  and  N_20 
ROOT
ATOM      1  C   LIG d   1       1.320  81.488 111.897  0.00  0.00     0.161 C 
ATOM      2  C   LIG d   1       2.387  82.087 111.208  0.00  0.00     0.016 C 
ATOM      3  C   LIG d   1       2.530  82.038 109.802  0.00  0.00     0.038 C 
ATOM      4  C   LIG d   1       1.529  81.511 108.973  0.00  0.00     0.028 C 
ATOM      5  C   LIG d   1       0.675  80.448 109.654  0.00  0.00    -0.047 C 
ATOM      6  C   LIG d   1       0.160  81.005 111.001  0.00  0.00     0.091 C 
ENDROOT
BRANCH   1   7
ATOM      7  O   LIG d   1       0.829  82.386 112.912  0.00  0.00    -0.368 OA
BRANCH   7   8
ATOM      8  C   LIG d   1       0.981  83.800 112.640  0.00  0.00     0.119 C 
BRANCH   8   9
ATOM      9  C   LIG d   1       1.364  84.488 113.964  0.00  0.00     0.028 C 
ATOM     10  C   LIG d   1       0.895  85.952 114.023  0.00  0.00     0.006 C 
ENDBRANCH   8   9
BRANCH   8  11
ATOM     11  C   LIG d   1      -0.350  84.434 112.224  0.00  0.00     0.028 C 
ATOM     12  C   LIG d   1      -0.432  84.710 110.714  0.00  0.00     0.006 C 
ENDBRANCH   8  11
ENDBRANCH   7   8
ENDBRANCH   1   7
BRANCH   6  13
ATOM     13  N   LIG d   1      -0.615  79.998 111.772  0.00  0.00    -0.311 N 
ATOM     14  C   LIG d   1      -1.690  80.299 112.497  0.00  0.00     0.210 C 
ATOM     15  C   LIG d   1      -2.329  79.115 113.230  0.00  0.00     0.109 C 
ATOM     16  O   LIG d   1      -2.196  81.429 112.578  0.00  0.00    -0.276 OA
ATOM     17  H   LIG d   1      -0.293  79.051 111.738  0.00  0.00     0.149 HD
ENDBRANCH   6  13
BRANCH   5  18
ATOM     18  N   LIG d   1      -0.412  80.086 108.725  0.00  0.00     0.381 N 
ATOM     19  H   LIG d   1      -0.450  80.746 107.974  0.00  0.00    -0.090 HD
ATOM     20  H   LIG d   1      -1.286  80.120 109.219  0.00  0.00    -0.090 HD
ATOM     21  H   LIG d   1      -0.261  79.170 108.364  0.00  0.00    -0.090 HD
ENDBRANCH   5  18
BRANCH   3  22
ATOM     22  C   LIG d   1       3.705  82.484 109.215  0.00  0.00     0.382 C 
ATOM     23  O   LIG d   1       3.983  82.150 108.038  0.00  0.00    -0.241 OA
ATOM     24  O   LIG d   1       4.510  83.179 109.862  0.00  0.00    -0.241 OA
ENDBRANCH   3  22
TORSDOF 7
ENDMDL
MODEL 6
REMARK VINA RESULT:      -5.3      2.653      3.993
REMARK  7 active torsions:
REMARK  status: ('A' for Active; 'I' for Inactive)
REMARK    1  A    between atoms: C_2  and  C_3 
REMARK    2  A    between atoms: C_3  and  O_6 
REMARK    3  A    between atoms: C_3  and  C_4 
REMARK    4  A    between atoms: C_7  and  O_6 
REMARK    5  A    between atoms: C_9  and  C_10 
REMARK    6  A    between atoms: N_15  and  C_14 
REMARK    7  A    between atoms: N_20  and  C_19 
REMARK       I    between atoms: C_22  and  N_20 
ROOT
ATOM      1  C   LIG d   1       2.273  82.861 111.260  0.00  0.00     0.161 C 
ATOM      2  C   LIG d   1       1.020  82.896 111.895  0.00  0.00     0.016 C 
ATOM      3  C   LIG d   1       0.092  81.831 111.845  0.00  0.00     0.038 C 
ATOM      4  C   LIG d   1       0.419  80.589 111.279  0.00  0.00     0.028 C 
ATOM      5  C   LIG d   1       1.480  80.681 110.188  0.00  0.00    -0.047 C 
ATOM      6  C   LIG d   1       2.691  81.473 110.732  0.00  0.00     0.091 C 
ENDROOT
BRANCH   1   7
ATOM      7  O   LIG d   1       3.283  83.387 112.143  0.00  0.00    -0.368 OA
BRANCH   7   8
ATOM      8  C   LIG d   1       3.912  84.624 111.728  0.00  0.00     0.119 C 
BRANCH   8   9
ATOM      9  C   LIG d   1       3.792  85.620 112.899  0.00  0.00     0.028 C 
ATOM     10  C   LIG d   1       3.989  84.944 114.266  0.00  0.00     0.006 C 
ENDBRANCH   8   9
BRANCH   8  11
ATOM     11  C   LIG d   1       3.154  85.272 110.566  0.00  0.00     0.028 C 
ATOM     12  C   LIG d   1       2.546  86.634 110.936  0.00  0.00     0.006 C 
ENDBRANCH   8  11
ENDBRANCH   7   8
ENDBRANCH   1   7
BRANCH   6  13
ATOM     13  N   LIG d   1       3.741  81.682 109.700  0.00  0.00    -0.311 N 
ATOM     14  C   LIG d   1       3.513  82.282 108.533  0.00  0.00     0.210 C 
ATOM     15  C   LIG d   1       4.729  82.377 107.607  0.00  0.00     0.109 C 
ATOM     16  O   LIG d   1       2.427  82.774 108.191  0.00  0.00    -0.276 OA
ATOM     17  H   LIG d   1       4.659  81.342 109.909  0.00  0.00     0.149 HD
ENDBRANCH   6  13
BRANCH   5  18
ATOM     18  N   LIG d   1       1.824  79.305 109.783  0.00  0.00     0.381 N 
ATOM     19  H   LIG d   1       2.001  78.748 110.595  0.00  0.00    -0.090 HD
ATOM     20  H   LIG d   1       2.661  79.329 109.228  0.00  0.00    -0.090 HD
ATOM     21  H   LIG d   1       1.077  78.908 109.256  0.00  0.00    -0.090 HD
ENDBRANCH   5  18
BRANCH   3  22
ATOM     22  C   LIG d   1      -1.193  82.015 112.331  0.00  0.00     0.382 C 
ATOM     23  O   LIG d   1      -2.005  81.059 112.335  0.00  0.00    -0.241 OA
ATOM     24  O   LIG d   1      -1.565  83.137 112.724  0.00  0.00    -0.241 OA
ENDBRANCH   3  22
TORSDOF 7
ENDMDL
MODEL 7
REMARK VINA RESULT:      -5.2      2.029      4.580
REMARK  7 active torsions:
REMARK  status: ('A' for Active; 'I' for Inactive)
REMARK    1  A    between atoms: C_2  and  C_3 
REMARK    2  A    between atoms: C_3  and  O_6 
REMARK    3  A    between atoms: C_3  and  C_4 
REMARK    4  A    between atoms: C_7  and  O_6 
REMARK    5  A    between atoms: C_9  and  C_10 
REMARK    6  A    between atoms: N_15  and  C_14 
REMARK    7  A    between atoms: N_20  and  C_19 
REMARK       I    between atoms: C_22  and  N_20 
ROOT
ATOM      1  C   LIG d   1       1.471  83.165 110.935  0.00  0.00     0.161 C 
ATOM      2  C   LIG d   1       2.727  83.374 110.340  0.00  0.00     0.016 C 
ATOM      3  C   LIG d   1       3.162  82.688 109.182  0.00  0.00     0.038 C 
ATOM      4  C   LIG d   1       2.307  81.852 108.449  0.00  0.00     0.028 C 
ATOM      5  C   LIG d   1       1.203  81.225 109.294  0.00  0.00    -0.047 C 
ATOM      6  C   LIG d   1       0.482  82.340 110.086  0.00  0.00     0.091 C 
ENDROOT
BRANCH   1   7
ATOM      7  O   LIG d   1       0.886  84.432 111.296  0.00  0.00    -0.368 OA
BRANCH   7   8
ATOM      8  C   LIG d   1       1.555  85.612 110.788  0.00  0.00     0.119 C 
BRANCH   8   9
ATOM      9  C   LIG d   1       1.663  86.619 111.949  0.00  0.00     0.028 C 
ATOM     10  C   LIG d   1       2.179  87.993 111.489  0.00  0.00     0.006 C 
ENDBRANCH   8   9
BRANCH   8  11
ATOM     11  C   LIG d   1       0.713  86.314 109.719  0.00  0.00     0.028 C 
ATOM     12  C   LIG d   1      -0.793  86.268 110.022  0.00  0.00     0.006 C 
ENDBRANCH   8  11
ENDBRANCH   7   8
ENDBRANCH   1   7
BRANCH   6  13
ATOM     13  N   LIG d   1      -0.557  81.802 111.002  0.00  0.00    -0.311 N 
ATOM     14  C   LIG d   1      -0.276  81.095 112.095  0.00  0.00     0.210 C 
ATOM     15  C   LIG d   1      -1.497  80.619 112.889  0.00  0.00     0.109 C 
ATOM     16  O   LIG d   1       0.869  80.843 112.500  0.00  0.00    -0.276 OA
ATOM     17  H   LIG d   1      -1.513  81.986 110.766  0.00  0.00     0.149 HD
ENDBRANCH   6  13
BRANCH   5  18
ATOM     18  N   LIG d   1       0.306  80.491 108.381  0.00  0.00     0.381 N 
ATOM     19  H   LIG d   1       0.825  80.153 107.596  0.00  0.00    -0.090 HD
ATOM     20  H   LIG d   1      -0.401  81.121 108.045  0.00  0.00    -0.090 HD
ATOM     21  H   LIG d   1      -0.119  79.728 108.861  0.00  0.00    -0.090 HD
ENDBRANCH   5  18
BRANCH   3  22
ATOM     22  C   LIG d   1       4.481  82.806 108.770  0.00  0.00     0.382 C 
ATOM     23  O   LIG d   1       4.880  82.177 107.760  0.00  0.00    -0.241 OA
ATOM     24  O   LIG d   1       5.287  83.498 109.420  0.00  0.00    -0.241 OA
ENDBRANCH   3  22
TORSDOF 7
ENDMDL
MODEL 8
REMARK VINA RESULT:      -4.7      2.430      4.611
REMARK  7 active torsions:
REMARK  status: ('A' for Active; 'I' for Inactive)
REMARK    1  A    between atoms: C_2  and  C_3 
REMARK    2  A    between atoms: C_3  and  O_6 
REMARK    3  A    between atoms: C_3  and  C_4 
REMARK    4  A    between atoms: C_7  and  O_6 
REMARK    5  A    between atoms: C_9  and  C_10 
REMARK    6  A    between atoms: N_15  and  C_14 
REMARK    7  A    between atoms: N_20  and  C_19 
REMARK       I    between atoms: C_22  and  N_20 
ROOT
ATOM      1  C   LIG d   1       1.347  82.089 110.897  0.00  0.00     0.161 C 
ATOM      2  C   LIG d   1       0.354  81.174 111.285  0.00  0.00     0.016 C 
ATOM      3  C   LIG d   1      -0.741  81.518 112.111  0.00  0.00     0.038 C 
ATOM      4  C   LIG d   1      -1.000  82.845 112.485  0.00  0.00     0.028 C 
ATOM      5  C   LIG d   1       0.251  83.715 112.536  0.00  0.00    -0.047 C 
ATOM      6  C   LIG d   1       1.021  83.566 111.204  0.00  0.00     0.091 C 
ENDROOT
BRANCH   1   7
ATOM      7  O   LIG d   1       1.645  81.922 109.497  0.00  0.00    -0.368 OA
BRANCH   7   8
ATOM      8  C   LIG d   1       2.727  82.733 108.975  0.00  0.00     0.119 C 
BRANCH   8   9
ATOM      9  C   LIG d   1       2.714  82.588 107.441  0.00  0.00     0.028 C 
ATOM     10  C   LIG d   1       1.648  83.475 106.776  0.00  0.00     0.006 C 
ENDBRANCH   8   9
BRANCH   8  11
ATOM     11  C   LIG d   1       4.090  82.197 109.422  0.00  0.00     0.028 C 
ATOM     12  C   LIG d   1       5.255  82.775 108.602  0.00  0.00     0.006 C 
ENDBRANCH   8  11
ENDBRANCH   7   8
ENDBRANCH   1   7
BRANCH   6  13
ATOM     13  N   LIG d   1       2.302  84.319 111.202  0.00  0.00    -0.311 N 
ATOM     14  C   LIG d   1       2.412  85.577 110.780  0.00  0.00     0.210 C 
ATOM     15  C   LIG d   1       3.828  86.159 110.844  0.00  0.00     0.109 C 
ATOM     16  O   LIG d   1       1.466  86.278 110.389  0.00  0.00    -0.276 OA
ATOM     17  H   LIG d   1       3.115  83.837 111.532  0.00  0.00     0.149 HD
ENDBRANCH   6  13
BRANCH   5  18
ATOM     18  N   LIG d   1      -0.180  85.100 112.803  0.00  0.00     0.381 N 
ATOM     19  H   LIG d   1       0.619  85.702 112.841  0.00  0.00    -0.090 HD
ATOM     20  H   LIG d   1      -0.640  85.131 113.696  0.00  0.00    -0.090 HD
ATOM     21  H   LIG d   1      -0.803  85.407 112.089  0.00  0.00    -0.090 HD
ENDBRANCH   5  18
BRANCH   3  22
ATOM     22  C   LIG d   1      -1.568  80.521 112.605  0.00  0.00     0.382 C 
ATOM     23  O   LIG d   1      -2.690  80.816 113.083  0.00  0.00    -0.241 OA
ATOM     24  O   LIG d   1      -1.189  79.334 112.621  0.00  0.00    -0.241 OA
ENDBRANCH   3  22
TORSDOF 7
ENDMDL
MODEL 9
REMARK VINA RESULT:      -4.2      2.339      4.802
REMARK  7 active torsions:
REMARK  status: ('A' for Active; 'I' for Inactive)
REMARK    1  A    between atoms: C_2  and  C_3 
REMARK    2  A    between atoms: C_3  and  O_6 
REMARK    3  A    between atoms: C_3  and  C_4 
REMARK    4  A    between atoms: C_7  and  O_6 
REMARK    5  A    between atoms: C_9  and  C_10 
REMARK    6  A    between atoms: N_15  and  C_14 
REMARK    7  A    between atoms: N_20  and  C_19 
REMARK       I    between atoms: C_22  and  N_20 
ROOT
ATOM      1  C   LIG d   1       2.276  83.039 110.838  0.00  0.00     0.161 C 
ATOM      2  C   LIG d   1       3.375  83.359 110.025  0.00  0.00     0.016 C 
ATOM      3  C   LIG d   1       3.730  82.623 108.871  0.00  0.00     0.038 C 
ATOM      4  C   LIG d   1       2.914  81.601 108.363  0.00  0.00     0.028 C 
ATOM      5  C   LIG d   1       2.066  80.917 109.431  0.00  0.00    -0.047 C 
ATOM      6  C   LIG d   1       1.310  81.996 110.239  0.00  0.00     0.091 C 
ENDROOT
BRANCH   1   7
ATOM      7  O   LIG d   1       1.561  84.241 111.188  0.00  0.00    -0.368 OA
BRANCH   7   8
ATOM      8  C   LIG d   1       1.572  84.603 112.591  0.00  0.00     0.119 C 
BRANCH   8   9
ATOM      9  C   LIG d   1       1.925  86.101 112.679  0.00  0.00     0.028 C 
ATOM     10  C   LIG d   1       3.306  86.414 112.081  0.00  0.00     0.006 C 
ENDBRANCH   8   9
BRANCH   8  11
ATOM     11  C   LIG d   1       2.690  83.878 113.345  0.00  0.00     0.028 C 
ATOM     12  C   LIG d   1       2.174  83.081 114.554  0.00  0.00     0.006 C 
ENDBRANCH   8  11
ENDBRANCH   7   8
ENDBRANCH   1   7
BRANCH   6  13
ATOM     13  N   LIG d   1       0.522  81.417 111.358  0.00  0.00    -0.311 N 
ATOM     14  C   LIG d   1      -0.676  81.871 111.724  0.00  0.00     0.210 C 
ATOM     15  C   LIG d   1      -1.307  81.144 112.916  0.00  0.00     0.109 C 
ATOM     16  O   LIG d   1      -1.289  82.786 111.154  0.00  0.00    -0.276 OA
ATOM     17  H   LIG d   1       0.931  80.650 111.856  0.00  0.00     0.149 HD
ENDBRANCH   6  13
BRANCH   5  18
ATOM     18  N   LIG d   1       1.166  79.970 108.745  0.00  0.00     0.381 N 
ATOM     19  H   LIG d   1       0.419  80.470 108.307  0.00  0.00    -0.090 HD
ATOM     20  H   LIG d   1       0.771  79.346 109.427  0.00  0.00    -0.090 HD
ATOM     21  H   LIG d   1       1.673  79.451 108.063  0.00  0.00    -0.090 HD
ENDBRANCH   5  18
BRANCH   3  22
ATOM     22  C   LIG d   1       4.934  82.882 108.233  0.00  0.00     0.382 C 
ATOM     23  O   LIG d   1       5.756  83.679 108.747  0.00  0.00    -0.241 OA
ATOM     24  O   LIG d   1       5.189  82.364 107.130  0.00  0.00    -0.241 OA
ENDBRANCH   3  22
TORSDOF 7
ENDMDL
