MODEL 1
REMARK VINA RESULT:      -5.7      0.000      0.000
REMARK  7 active torsions:
REMARK  status: ('A' for Active; 'I' for Inactive)
REMARK    1  A    between atoms: C_2  and  C_3 
REMARK    2  A    between atoms: C_3  and  O_6 
REMARK    3  A    between atoms: C_3  and  C_4 
REMARK    4  A    between atoms: C_7  and  O_6 
REMARK    5  A    between atoms: C_9  and  C_10 
REMARK    6  A    between atoms: N_15  and  C_14 
REMARK    7  A    between atoms: N_20  and  C_19 
REMARK       I    between atoms: C_22  and  N_20 
ROOT
ATOM      1  C   LIG d   1      -3.989  74.699 116.954  0.00  0.00     0.161 C 
ATOM      2  C   LIG d   1      -4.370  75.309 115.748  0.00  0.00     0.016 C 
ATOM      3  C   LIG d   1      -3.450  75.702 114.750  0.00  0.00     0.038 C 
ATOM      4  C   LIG d   1      -2.089  75.372 114.824  0.00  0.00     0.028 C 
ATOM      5  C   LIG d   1      -1.584  75.204 116.254  0.00  0.00    -0.047 C 
ATOM      6  C   LIG d   1      -2.519  74.230 117.005  0.00  0.00     0.091 C 
ENDROOT
BRANCH   1   7
ATOM      7  O   LIG d   1      -4.875  73.601 117.248  0.00  0.00    -0.368 OA
BRANCH   7   8
ATOM      8  C   LIG d   1      -6.142  73.600 116.546  0.00  0.00     0.119 C 
BRANCH   8   9
ATOM      9  C   LIG d   1      -7.251  73.835 117.590  0.00  0.00     0.028 C 
ATOM     10  C   LIG d   1      -7.777  75.280 117.572  0.00  0.00     0.006 C 
ENDBRANCH   8   9
BRANCH   8  11
ATOM     11  C   LIG d   1      -6.442  72.226 115.939  0.00  0.00     0.028 C 
ATOM     12  C   LIG d   1      -7.836  71.699 116.315  0.00  0.00     0.006 C 
ENDBRANCH   8  11
ENDBRANCH   7   8
ENDBRANCH   1   7
BRANCH   6  13
ATOM     13  N   LIG d   1      -2.146  74.075 118.435  0.00  0.00    -0.311 N 
ATOM     14  C   LIG d   1      -1.247  73.192 118.867  0.00  0.00     0.210 C 
ATOM     15  C   LIG d   1      -1.025  73.183 120.382  0.00  0.00     0.109 C 
ATOM     16  O   LIG d   1      -0.588  72.438 118.135  0.00  0.00    -0.276 OA
ATOM     17  H   LIG d   1      -2.609  74.669 119.095  0.00  0.00     0.149 HD
ENDBRANCH   6  13
BRANCH   5  18
ATOM     18  N   LIG d   1      -0.190  74.727 116.181  0.00  0.00     0.381 N 
ATOM     19  H   LIG d   1       0.408  75.472 115.886  0.00  0.00    -0.090 HD
ATOM     20  H   LIG d   1      -0.134  73.989 115.500  0.00  0.00    -0.090 HD
ATOM     21  H   LIG d   1       0.102  74.389 117.072  0.00  0.00    -0.090 HD
ENDBRANCH   5  18
BRANCH   3  22
ATOM     22  C   LIG d   1      -3.883  76.470 113.679  0.00  0.00     0.382 C 
ATOM     23  O   LIG d   1      -3.047  77.024 112.926  0.00  0.00    -0.241 OA
ATOM     24  O   LIG d   1      -5.100  76.651 113.483  0.00  0.00    -0.241 OA
ENDBRANCH   3  22
TORSDOF 7
ENDMDL
MODEL 2
REMARK VINA RESULT:      -5.6      4.126      6.193
REMARK  7 active torsions:
REMARK  status: ('A' for Active; 'I' for Inactive)
REMARK    1  A    between atoms: C_2  and  C_3 
REMARK    2  A    between atoms: C_3  and  O_6 
REMARK    3  A    between atoms: C_3  and  C_4 
REMARK    4  A    between atoms: C_7  and  O_6 
REMARK    5  A    between atoms: C_9  and  C_10 
REMARK    6  A    between atoms: N_15  and  C_14 
REMARK    7  A    between atoms: N_20  and  C_19 
REMARK       I    between atoms: C_22  and  N_20 
ROOT
ATOM      1  C   LIG d   1      -8.680  75.135 117.513  0.00  0.00     0.161 C 
ATOM      2  C   LIG d   1      -8.586  73.778 117.161  0.00  0.00     0.016 C 
ATOM      3  C   LIG d   1      -7.357  73.095 117.017  0.00  0.00     0.038 C 
ATOM      4  C   LIG d   1      -6.134  73.687 117.365  0.00  0.00     0.028 C 
ATOM      5  C   LIG d   1      -6.141  75.207 117.242  0.00  0.00    -0.047 C 
ATOM      6  C   LIG d   1      -7.362  75.768 118.006  0.00  0.00     0.091 C 
ENDROOT
BRANCH   1   7
ATOM      7  O   LIG d   1      -9.719  75.314 118.496  0.00  0.00    -0.368 OA
BRANCH   7   8
ATOM      8  C   LIG d   1     -10.789  76.222 118.135  0.00  0.00     0.119 C 
BRANCH   8   9
ATOM      9  C   LIG d   1     -11.050  77.135 119.348  0.00  0.00     0.028 C 
ATOM     10  C   LIG d   1     -10.678  78.602 119.069  0.00  0.00     0.006 C 
ENDBRANCH   8   9
BRANCH   8  11
ATOM     11  C   LIG d   1     -12.103  75.470 117.903  0.00  0.00     0.028 C 
ATOM     12  C   LIG d   1     -12.847  75.154 119.210  0.00  0.00     0.006 C 
ENDBRANCH   8  11
ENDBRANCH   7   8
ENDBRANCH   1   7
BRANCH   6  13
ATOM     13  N   LIG d   1      -7.491  77.242 117.866  0.00  0.00    -0.311 N 
ATOM     14  C   LIG d   1      -6.964  78.109 118.728  0.00  0.00     0.210 C 
ATOM     15  C   LIG d   1      -7.231  79.583 118.408  0.00  0.00     0.109 C 
ATOM     16  O   LIG d   1      -6.273  77.799 119.710  0.00  0.00    -0.276 OA
ATOM     17  H   LIG d   1      -8.009  77.581 117.079  0.00  0.00     0.149 HD
ENDBRANCH   6  13
BRANCH   5  18
ATOM     18  N   LIG d   1      -4.854  75.702 117.766  0.00  0.00     0.381 N 
ATOM     19  H   LIG d   1      -4.763  76.680 117.573  0.00  0.00    -0.090 HD
ATOM     20  H   LIG d   1      -4.106  75.218 117.302  0.00  0.00    -0.090 HD
ATOM     21  H   LIG d   1      -4.802  75.544 118.749  0.00  0.00    -0.090 HD
ENDBRANCH   5  18
BRANCH   3  22
ATOM     22  C   LIG d   1      -7.340  71.816 116.481  0.00  0.00     0.382 C 
ATOM     23  O   LIG d   1      -7.893  70.872 117.095  0.00  0.00    -0.241 OA
ATOM     24  O   LIG d   1      -6.742  71.587 115.413  0.00  0.00    -0.241 OA
ENDBRANCH   3  22
TORSDOF 7
ENDMDL
MODEL 3
REMARK VINA RESULT:      -5.5      3.263      4.526
REMARK  7 active torsions:
REMARK  status: ('A' for Active; 'I' for Inactive)
REMARK    1  A    between atoms: C_2  and  C_3 
REMARK    2  A    between atoms: C_3  and  O_6 
REMARK    3  A    between atoms: C_3  and  C_4 
REMARK    4  A    between atoms: C_7  and  O_6 
REMARK    5  A    between atoms: C_9  and  C_10 
REMARK    6  A    between atoms: N_15  and  C_14 
REMARK    7  A    between atoms: N_20  and  C_19 
REMARK       I    between atoms: C_22  and  N_20 
ROOT
ATOM      1  C   LIG d   1      -6.542  74.802 117.189  0.00  0.00     0.161 C 
ATOM      2  C   LIG d   1      -5.630  74.336 116.227  0.00  0.00     0.016 C 
ATOM      3  C   LIG d   1      -4.646  75.155 115.627  0.00  0.00     0.038 C 
ATOM      4  C   LIG d   1      -4.408  76.468 116.061  0.00  0.00     0.028 C 
ATOM      5  C   LIG d   1      -5.635  77.135 116.674  0.00  0.00    -0.047 C 
ATOM      6  C   LIG d   1      -6.226  76.202 117.756  0.00  0.00     0.091 C 
ENDROOT
BRANCH   1   7
ATOM      7  O   LIG d   1      -6.657  73.842 118.258  0.00  0.00    -0.368 OA
BRANCH   7   8
ATOM      8  C   LIG d   1      -7.959  73.230 118.428  0.00  0.00     0.119 C 
BRANCH   8   9
ATOM      9  C   LIG d   1      -7.790  71.714 118.209  0.00  0.00     0.028 C 
ATOM     10  C   LIG d   1      -7.777  71.334 116.718  0.00  0.00     0.006 C 
ENDBRANCH   8   9
BRANCH   8  11
ATOM     11  C   LIG d   1      -8.937  73.690 117.342  0.00  0.00     0.028 C 
ATOM     12  C   LIG d   1     -10.198  74.353 117.919  0.00  0.00     0.006 C 
ENDBRANCH   8  11
ENDBRANCH   7   8
ENDBRANCH   1   7
BRANCH   6  13
ATOM     13  N   LIG d   1      -7.478  76.741 118.347  0.00  0.00    -0.311 N 
ATOM     14  C   LIG d   1      -7.716  76.771 119.657  0.00  0.00     0.210 C 
ATOM     15  C   LIG d   1      -9.078  77.350 120.053  0.00  0.00     0.109 C 
ATOM     16  O   LIG d   1      -6.916  76.403 120.530  0.00  0.00    -0.276 OA
ATOM     17  H   LIG d   1      -8.169  77.089 117.712  0.00  0.00     0.149 HD
ENDBRANCH   6  13
BRANCH   5  18
ATOM     18  N   LIG d   1      -5.212  78.443 117.207  0.00  0.00     0.381 N 
ATOM     19  H   LIG d   1      -5.907  78.794 117.836  0.00  0.00    -0.090 HD
ATOM     20  H   LIG d   1      -5.121  79.091 116.445  0.00  0.00    -0.090 HD
ATOM     21  H   LIG d   1      -4.340  78.352 117.682  0.00  0.00    -0.090 HD
ENDBRANCH   5  18
BRANCH   3  22
ATOM     22  C   LIG d   1      -3.914  74.675 114.552  0.00  0.00     0.382 C 
ATOM     23  O   LIG d   1      -2.675  74.868 114.500  0.00  0.00    -0.241 OA
ATOM     24  O   LIG d   1      -4.483  74.089 113.611  0.00  0.00    -0.241 OA
ENDBRANCH   3  22
TORSDOF 7
ENDMDL
MODEL 4
REMARK VINA RESULT:      -5.4      3.957      6.827
REMARK  7 active torsions:
REMARK  status: ('A' for Active; 'I' for Inactive)
REMARK    1  A    between atoms: C_2  and  C_3 
REMARK    2  A    between atoms: C_3  and  O_6 
REMARK    3  A    between atoms: C_3  and  C_4 
REMARK    4  A    between atoms: C_7  and  O_6 
REMARK    5  A    between atoms: C_9  and  C_10 
REMARK    6  A    between atoms: N_15  and  C_14 
REMARK    7  A    between atoms: N_20  and  C_19 
REMARK       I    between atoms: C_22  and  N_20 
ROOT
ATOM      1  C   LIG d   1      -6.916  75.276 117.683  0.00  0.00     0.161 C 
ATOM      2  C   LIG d   1      -6.698  74.026 117.081  0.00  0.00     0.016 C 
ATOM      3  C   LIG d   1      -7.725  73.079 116.860  0.00  0.00     0.038 C 
ATOM      4  C   LIG d   1      -9.075  73.382 117.089  0.00  0.00     0.028 C 
ATOM      5  C   LIG d   1      -9.283  74.443 118.165  0.00  0.00    -0.047 C 
ATOM      6  C   LIG d   1      -8.400  75.669 117.838  0.00  0.00     0.091 C 
ENDROOT
BRANCH   1   7
ATOM      7  O   LIG d   1      -6.201  76.298 116.960  0.00  0.00    -0.368 OA
BRANCH   7   8
ATOM      8  C   LIG d   1      -4.900  75.922 116.446  0.00  0.00     0.119 C 
BRANCH   8   9
ATOM      9  C   LIG d   1      -3.859  76.858 117.091  0.00  0.00     0.028 C 
ATOM     10  C   LIG d   1      -3.404  77.975 116.137  0.00  0.00     0.006 C 
ENDBRANCH   8   9
BRANCH   8  11
ATOM     11  C   LIG d   1      -4.799  76.180 114.940  0.00  0.00     0.028 C 
ATOM     12  C   LIG d   1      -4.572  74.895 114.128  0.00  0.00     0.006 C 
ENDBRANCH   8  11
ENDBRANCH   7   8
ENDBRANCH   1   7
BRANCH   6  13
ATOM     13  N   LIG d   1      -8.480  76.720 118.886  0.00  0.00    -0.311 N 
ATOM     14  C   LIG d   1      -9.391  77.692 118.882  0.00  0.00     0.210 C 
ATOM     15  C   LIG d   1      -9.283  78.684 120.044  0.00  0.00     0.109 C 
ATOM     16  O   LIG d   1     -10.297  77.808 118.044  0.00  0.00    -0.276 OA
ATOM     17  H   LIG d   1      -7.802  76.683 119.621  0.00  0.00     0.149 HD
ENDBRANCH   6  13
BRANCH   5  18
ATOM     18  N   LIG d   1     -10.723  74.761 118.205  0.00  0.00     0.381 N 
ATOM     19  H   LIG d   1     -11.258  73.934 118.027  0.00  0.00    -0.090 HD
ATOM     20  H   LIG d   1     -10.928  75.430 117.484  0.00  0.00    -0.090 HD
ATOM     21  H   LIG d   1     -10.965  75.137 119.095  0.00  0.00    -0.090 HD
ENDBRANCH   5  18
BRANCH   3  22
ATOM     22  C   LIG d   1      -7.400  71.798 116.440  0.00  0.00     0.382 C 
ATOM     23  O   LIG d   1      -6.653  71.635 115.445  0.00  0.00    -0.241 OA
ATOM     24  O   LIG d   1      -7.879  70.804 117.017  0.00  0.00    -0.241 OA
ENDBRANCH   3  22
TORSDOF 7
ENDMDL
MODEL 5
REMARK VINA RESULT:      -5.3      4.968      7.661
REMARK  7 active torsions:
REMARK  status: ('A' for Active; 'I' for Inactive)
REMARK    1  A    between atoms: C_2  and  C_3 
REMARK    2  A    between atoms: C_3  and  O_6 
REMARK    3  A    between atoms: C_3  and  C_4 
REMARK    4  A    between atoms: C_7  and  O_6 
REMARK    5  A    between atoms: C_9  and  C_10 
REMARK    6  A    between atoms: N_15  and  C_14 
REMARK    7  A    between atoms: N_20  and  C_19 
REMARK       I    between atoms: C_22  and  N_20 
ROOT
ATOM      1  C   LIG d   1      -8.151  75.079 119.351  0.00  0.00     0.161 C 
ATOM      2  C   LIG d   1      -7.641  73.973 118.652  0.00  0.00     0.016 C 
ATOM      3  C   LIG d   1      -8.315  73.355 117.573  0.00  0.00     0.038 C 
ATOM      4  C   LIG d   1      -9.483  73.900 117.020  0.00  0.00     0.028 C 
ATOM      5  C   LIG d   1     -10.298  74.721 118.013  0.00  0.00    -0.047 C 
ATOM      6  C   LIG d   1      -9.370  75.755 118.690  0.00  0.00     0.091 C 
ENDROOT
BRANCH   1   7
ATOM      7  O   LIG d   1      -7.103  76.043 119.573  0.00  0.00    -0.368 OA
BRANCH   7   8
ATOM      8  C   LIG d   1      -6.956  77.069 118.561  0.00  0.00     0.119 C 
BRANCH   8   9
ATOM      9  C   LIG d   1      -5.607  76.832 117.853  0.00  0.00     0.028 C 
ATOM     10  C   LIG d   1      -5.781  76.416 116.383  0.00  0.00     0.006 C 
ENDBRANCH   8   9
BRANCH   8  11
ATOM     11  C   LIG d   1      -6.845  78.461 119.190  0.00  0.00     0.028 C 
ATOM     12  C   LIG d   1      -7.599  79.537 118.394  0.00  0.00     0.006 C 
ENDBRANCH   8  11
ENDBRANCH   7   8
ENDBRANCH   1   7
BRANCH   6  13
ATOM     13  N   LIG d   1     -10.070  76.544 119.738  0.00  0.00    -0.311 N 
ATOM     14  C   LIG d   1     -10.697  77.693 119.494  0.00  0.00     0.210 C 
ATOM     15  C   LIG d   1     -11.336  78.354 120.720  0.00  0.00     0.109 C 
ATOM     16  O   LIG d   1     -10.813  78.212 118.374  0.00  0.00    -0.276 OA
ATOM     17  H   LIG d   1     -10.053  76.180 120.671  0.00  0.00     0.149 HD
ENDBRANCH   6  13
BRANCH   5  18
ATOM     18  N   LIG d   1     -11.412  75.341 117.271  0.00  0.00     0.381 N 
ATOM     19  H   LIG d   1     -12.285  75.011 117.631  0.00  0.00    -0.090 HD
ATOM     20  H   LIG d   1     -11.347  75.074 116.304  0.00  0.00    -0.090 HD
ATOM     21  H   LIG d   1     -11.365  76.333 117.352  0.00  0.00    -0.090 HD
ENDBRANCH   5  18
BRANCH   3  22
ATOM     22  C   LIG d   1      -7.841  72.156 117.063  0.00  0.00     0.382 C 
ATOM     23  O   LIG d   1      -7.243  72.137 115.960  0.00  0.00    -0.241 OA
ATOM     24  O   LIG d   1      -8.044  71.087 117.669  0.00  0.00    -0.241 OA
ENDBRANCH   3  22
TORSDOF 7
ENDMDL
MODEL 6
REMARK VINA RESULT:      -5.3     13.170     16.056
REMARK  7 active torsions:
REMARK  status: ('A' for Active; 'I' for Inactive)
REMARK    1  A    between atoms: C_2  and  C_3 
REMARK    2  A    between atoms: C_3  and  O_6 
REMARK    3  A    between atoms: C_3  and  C_4 
REMARK    4  A    between atoms: C_7  and  O_6 
REMARK    5  A    between atoms: C_9  and  C_10 
REMARK    6  A    between atoms: N_15  and  C_14 
REMARK    7  A    between atoms: N_20  and  C_19 
REMARK       I    between atoms: C_22  and  N_20 
ROOT
ATOM      1  C   LIG d   1     -15.387  64.956 115.671  0.00  0.00     0.161 C 
ATOM      2  C   LIG d   1     -16.239  65.285 114.604  0.00  0.00     0.016 C 
ATOM      3  C   LIG d   1     -17.534  64.740 114.446  0.00  0.00     0.038 C 
ATOM      4  C   LIG d   1     -18.127  63.939 115.434  0.00  0.00     0.028 C 
ATOM      5  C   LIG d   1     -17.116  63.177 116.283  0.00  0.00    -0.047 C 
ATOM      6  C   LIG d   1     -16.059  64.171 116.817  0.00  0.00     0.091 C 
ENDROOT
BRANCH   1   7
ATOM      7  O   LIG d   1     -14.761  66.150 116.182  0.00  0.00    -0.368 OA
BRANCH   7   8
ATOM      8  C   LIG d   1     -15.639  67.102 116.831  0.00  0.00     0.119 C 
BRANCH   8   9
ATOM      9  C   LIG d   1     -15.335  68.491 116.238  0.00  0.00     0.028 C 
ATOM     10  C   LIG d   1     -14.063  68.495 115.373  0.00  0.00     0.006 C 
ENDBRANCH   8   9
BRANCH   8  11
ATOM     11  C   LIG d   1     -15.325  67.222 118.325  0.00  0.00     0.028 C 
ATOM     12  C   LIG d   1     -13.870  66.855 118.659  0.00  0.00     0.006 C 
ENDBRANCH   8  11
ENDBRANCH   7   8
ENDBRANCH   1   7
BRANCH   6  13
ATOM     13  N   LIG d   1     -14.984  63.494 117.589  0.00  0.00    -0.311 N 
ATOM     14  C   LIG d   1     -15.008  63.357 118.914  0.00  0.00     0.210 C 
ATOM     15  C   LIG d   1     -13.791  62.645 119.512  0.00  0.00     0.109 C 
ATOM     16  O   LIG d   1     -15.937  63.728 119.646  0.00  0.00    -0.276 OA
ATOM     17  H   LIG d   1     -14.206  63.135 117.070  0.00  0.00     0.149 HD
ENDBRANCH   6  13
BRANCH   5  18
ATOM     18  N   LIG d   1     -17.861  62.494 117.357  0.00  0.00     0.381 N 
ATOM     19  H   LIG d   1     -17.413  61.628 117.582  0.00  0.00    -0.090 HD
ATOM     20  H   LIG d   1     -18.790  62.293 117.031  0.00  0.00    -0.090 HD
ATOM     21  H   LIG d   1     -17.903  63.074 118.166  0.00  0.00    -0.090 HD
ENDBRANCH   5  18
BRANCH   3  22
ATOM     22  C   LIG d   1     -18.235  64.963 113.271  0.00  0.00     0.382 C 
ATOM     23  O   LIG d   1     -19.486  65.050 113.294  0.00  0.00    -0.241 OA
ATOM     24  O   LIG d   1     -17.635  65.035 112.181  0.00  0.00    -0.241 OA
ENDBRANCH   3  22
TORSDOF 7
ENDMDL
MODEL 7
REMARK VINA RESULT:      -5.2      4.845      6.808
REMARK  7 active torsions:
REMARK  status: ('A' for Active; 'I' for Inactive)
REMARK    1  A    between atoms: C_2  and  C_3 
REMARK    2  A    between atoms: C_3  and  O_6 
REMARK    3  A    between atoms: C_3  and  C_4 
REMARK    4  A    between atoms: C_7  and  O_6 
REMARK    5  A    between atoms: C_9  and  C_10 
REMARK    6  A    between atoms: N_15  and  C_14 
REMARK    7  A    between atoms: N_20  and  C_19 
REMARK       I    between atoms: C_22  and  N_20 
ROOT
ATOM      1  C   LIG d   1      -8.974  77.423 118.381  0.00  0.00     0.161 C 
ATOM      2  C   LIG d   1      -9.778  78.554 118.598  0.00  0.00     0.016 C 
ATOM      3  C   LIG d   1      -9.270  79.872 118.656  0.00  0.00     0.038 C 
ATOM      4  C   LIG d   1      -7.933  80.165 118.346  0.00  0.00     0.028 C 
ATOM      5  C   LIG d   1      -6.981  79.005 118.617  0.00  0.00    -0.047 C 
ATOM      6  C   LIG d   1      -7.531  77.734 117.931  0.00  0.00     0.091 C 
ENDROOT
BRANCH   1   7
ATOM      7  O   LIG d   1      -9.614  76.542 117.437  0.00  0.00    -0.368 OA
BRANCH   7   8
ATOM      8  C   LIG d   1     -10.174  75.322 117.983  0.00  0.00     0.119 C 
BRANCH   8   9
ATOM      9  C   LIG d   1      -9.537  74.141 117.225  0.00  0.00     0.028 C 
ATOM     10  C   LIG d   1      -8.794  73.175 118.162  0.00  0.00     0.006 C 
ENDBRANCH   8   9
BRANCH   8  11
ATOM     11  C   LIG d   1     -11.676  75.223 117.700  0.00  0.00     0.028 C 
ATOM     12  C   LIG d   1     -12.523  75.193 118.982  0.00  0.00     0.006 C 
ENDBRANCH   8  11
ENDBRANCH   7   8
ENDBRANCH   1   7
BRANCH   6  13
ATOM     13  N   LIG d   1      -6.703  76.533 118.216  0.00  0.00    -0.311 N 
ATOM     14  C   LIG d   1      -5.997  75.892 117.286  0.00  0.00     0.210 C 
ATOM     15  C   LIG d   1      -5.229  74.665 117.789  0.00  0.00     0.109 C 
ATOM     16  O   LIG d   1      -5.908  76.241 116.100  0.00  0.00    -0.276 OA
ATOM     17  H   LIG d   1      -6.693  76.199 119.160  0.00  0.00     0.149 HD
ENDBRANCH   6  13
BRANCH   5  18
ATOM     18  N   LIG d   1      -5.648  79.398 118.122  0.00  0.00     0.381 N 
ATOM     19  H   LIG d   1      -5.720  79.733 117.182  0.00  0.00    -0.090 HD
ATOM     20  H   LIG d   1      -5.049  78.591 118.125  0.00  0.00    -0.090 HD
ATOM     21  H   LIG d   1      -5.263  80.108 118.706  0.00  0.00    -0.090 HD
ENDBRANCH   5  18
BRANCH   3  22
ATOM     22  C   LIG d   1     -10.094  80.910 119.064  0.00  0.00     0.382 C 
ATOM     23  O   LIG d   1     -10.247  81.143 120.287  0.00  0.00    -0.241 OA
ATOM     24  O   LIG d   1     -10.720  81.587 118.227  0.00  0.00    -0.241 OA
ENDBRANCH   3  22
TORSDOF 7
ENDMDL
MODEL 8
REMARK VINA RESULT:      -5.2      4.057      6.763
REMARK  7 active torsions:
REMARK  status: ('A' for Active; 'I' for Inactive)
REMARK    1  A    between atoms: C_2  and  C_3 
REMARK    2  A    between atoms: C_3  and  O_6 
REMARK    3  A    between atoms: C_3  and  C_4 
REMARK    4  A    between atoms: C_7  and  O_6 
REMARK    5  A    between atoms: C_9  and  C_10 
REMARK    6  A    between atoms: N_15  and  C_14 
REMARK    7  A    between atoms: N_20  and  C_19 
REMARK       I    between atoms: C_22  and  N_20 
ROOT
ATOM      1  C   LIG d   1      -7.636  75.978 117.611  0.00  0.00     0.161 C 
ATOM      2  C   LIG d   1      -7.925  77.318 117.919  0.00  0.00     0.016 C 
ATOM      3  C   LIG d   1      -9.225  77.783 118.223  0.00  0.00     0.038 C 
ATOM      4  C   LIG d   1     -10.307  76.905 118.388  0.00  0.00     0.028 C 
ATOM      5  C   LIG d   1     -10.165  75.612 117.593  0.00  0.00    -0.047 C 
ATOM      6  C   LIG d   1      -8.784  74.987 117.895  0.00  0.00     0.091 C 
ENDROOT
BRANCH   1   7
ATOM      7  O   LIG d   1      -6.437  75.567 118.298  0.00  0.00    -0.368 OA
BRANCH   7   8
ATOM      8  C   LIG d   1      -5.194  75.752 117.577  0.00  0.00     0.119 C 
BRANCH   8   9
ATOM      9  C   LIG d   1      -4.741  74.368 117.072  0.00  0.00     0.028 C 
ATOM     10  C   LIG d   1      -5.165  74.106 115.617  0.00  0.00     0.006 C 
ENDBRANCH   8   9
BRANCH   8  11
ATOM     11  C   LIG d   1      -4.076  76.230 118.508  0.00  0.00     0.028 C 
ATOM     12  C   LIG d   1      -4.519  76.316 119.977  0.00  0.00     0.006 C 
ENDBRANCH   8  11
ENDBRANCH   7   8
ENDBRANCH   1   7
BRANCH   6  13
ATOM     13  N   LIG d   1      -8.528  73.761 117.094  0.00  0.00    -0.311 N 
ATOM     14  C   LIG d   1      -8.019  72.643 117.607  0.00  0.00     0.210 C 
ATOM     15  C   LIG d   1      -7.817  71.504 116.602  0.00  0.00     0.109 C 
ATOM     16  O   LIG d   1      -7.744  72.475 118.805  0.00  0.00    -0.276 OA
ATOM     17  H   LIG d   1      -8.751  73.800 116.119  0.00  0.00     0.149 HD
ENDBRANCH   6  13
BRANCH   5  18
ATOM     18  N   LIG d   1     -11.290  74.734 117.965  0.00  0.00     0.381 N 
ATOM     19  H   LIG d   1     -12.154  75.154 117.685  0.00  0.00    -0.090 HD
ATOM     20  H   LIG d   1     -11.302  74.625 118.964  0.00  0.00    -0.090 HD
ATOM     21  H   LIG d   1     -11.188  73.845 117.527  0.00  0.00    -0.090 HD
ENDBRANCH   5  18
BRANCH   3  22
ATOM     22  C   LIG d   1      -9.461  79.146 118.325  0.00  0.00     0.382 C 
ATOM     23  O   LIG d   1      -8.530  79.960 118.116  0.00  0.00    -0.241 OA
ATOM     24  O   LIG d   1     -10.582  79.569 118.667  0.00  0.00    -0.241 OA
ENDBRANCH   3  22
TORSDOF 7
ENDMDL
MODEL 9
REMARK VINA RESULT:      -5.1     14.941     16.702
REMARK  7 active torsions:
REMARK  status: ('A' for Active; 'I' for Inactive)
REMARK    1  A    between atoms: C_2  and  C_3 
REMARK    2  A    between atoms: C_3  and  O_6 
REMARK    3  A    between atoms: C_3  and  C_4 
REMARK    4  A    between atoms: C_7  and  O_6 
REMARK    5  A    between atoms: C_9  and  C_10 
REMARK    6  A    between atoms: N_15  and  C_14 
REMARK    7  A    between atoms: N_20  and  C_19 
REMARK       I    between atoms: C_22  and  N_20 
ROOT
ATOM      1  C   LIG d   1       4.678  89.646 116.346  0.00  0.00     0.161 C 
ATOM      2  C   LIG d   1       3.506  90.074 115.701  0.00  0.00     0.016 C 
ATOM      3  C   LIG d   1       3.349  90.079 114.296  0.00  0.00     0.038 C 
ATOM      4  C   LIG d   1       4.306  89.511 113.441  0.00  0.00     0.028 C 
ATOM      5  C   LIG d   1       5.718  89.529 114.015  0.00  0.00    -0.047 C 
ATOM      6  C   LIG d   1       5.690  88.919 115.435  0.00  0.00     0.091 C 
ENDROOT
BRANCH   1   7
ATOM      7  O   LIG d   1       4.339  88.820 117.478  0.00  0.00    -0.368 OA
BRANCH   7   8
ATOM      8  C   LIG d   1       3.153  88.000 117.336  0.00  0.00     0.119 C 
BRANCH   8   9
ATOM      9  C   LIG d   1       2.284  88.224 118.589  0.00  0.00     0.028 C 
ATOM     10  C   LIG d   1       0.934  88.882 118.257  0.00  0.00     0.006 C 
ENDBRANCH   8   9
BRANCH   8  11
ATOM     11  C   LIG d   1       3.501  86.509 117.344  0.00  0.00     0.028 C 
ATOM     12  C   LIG d   1       2.448  85.647 116.631  0.00  0.00     0.006 C 
ENDBRANCH   8  11
ENDBRANCH   7   8
ENDBRANCH   1   7
BRANCH   6  13
ATOM     13  N   LIG d   1       7.017  88.974 116.103  0.00  0.00    -0.311 N 
ATOM     14  C   LIG d   1       7.543  87.951 116.773  0.00  0.00     0.210 C 
ATOM     15  C   LIG d   1       8.913  88.227 117.402  0.00  0.00     0.109 C 
ATOM     16  O   LIG d   1       7.020  86.832 116.880  0.00  0.00    -0.276 OA
ATOM     17  H   LIG d   1       7.524  89.836 116.039  0.00  0.00     0.149 HD
ENDBRANCH   6  13
BRANCH   5  18
ATOM     18  N   LIG d   1       6.587  88.785 113.084  0.00  0.00     0.381 N 
ATOM     19  H   LIG d   1       6.031  88.183 112.509  0.00  0.00    -0.090 HD
ATOM     20  H   LIG d   1       7.222  88.215 113.616  0.00  0.00    -0.090 HD
ATOM     21  H   LIG d   1       7.099  89.421 112.513  0.00  0.00    -0.090 HD
ENDBRANCH   5  18
BRANCH   3  22
ATOM     22  C   LIG d   1       2.243  90.694 113.730  0.00  0.00     0.382 C 
ATOM     23  O   LIG d   1       1.149  90.705 114.345  0.00  0.00    -0.241 OA
ATOM     24  O   LIG d   1       2.312  91.199 112.594  0.00  0.00    -0.241 OA
ENDBRANCH   3  22
TORSDOF 7
ENDMDL
