MODEL 1
REMARK VINA RESULT:      -6.7      0.000      0.000
REMARK  7 active torsions:
REMARK  status: ('A' for Active; 'I' for Inactive)
REMARK    1  A    between atoms: C_2  and  C_3 
REMARK    2  A    between atoms: C_3  and  O_6 
REMARK    3  A    between atoms: C_3  and  C_4 
REMARK    4  A    between atoms: C_7  and  O_6 
REMARK    5  A    between atoms: C_9  and  C_10 
REMARK    6  A    between atoms: N_15  and  C_14 
REMARK    7  A    between atoms: N_20  and  C_19 
REMARK       I    between atoms: C_22  and  N_20 
ROOT
ATOM      1  C   LIG d   1       1.039  83.973 109.254  0.00  0.00     0.161 C 
ATOM      2  C   LIG d   1       0.743  85.292 109.635  0.00  0.00     0.016 C 
ATOM      3  C   LIG d   1      -0.120  85.618 110.707  0.00  0.00     0.038 C 
ATOM      4  C   LIG d   1      -0.629  84.638 111.572  0.00  0.00     0.028 C 
ATOM      5  C   LIG d   1      -0.764  83.265 110.922  0.00  0.00    -0.047 C 
ATOM      6  C   LIG d   1       0.581  82.892 110.256  0.00  0.00     0.091 C 
ENDROOT
BRANCH   1   7
ATOM      7  O   LIG d   1       2.450  83.845 108.990  0.00  0.00    -0.368 OA
BRANCH   7   8
ATOM      8  C   LIG d   1       3.286  83.531 110.131  0.00  0.00     0.119 C 
BRANCH   8   9
ATOM      9  C   LIG d   1       3.885  84.854 110.645  0.00  0.00     0.028 C 
ATOM     10  C   LIG d   1       3.527  85.129 112.115  0.00  0.00     0.006 C 
ENDBRANCH   8   9
BRANCH   8  11
ATOM     11  C   LIG d   1       4.487  82.673 109.722  0.00  0.00     0.028 C 
ATOM     12  C   LIG d   1       4.305  82.010 108.348  0.00  0.00     0.006 C 
ENDBRANCH   8  11
ENDBRANCH   7   8
ENDBRANCH   1   7
BRANCH   6  13
ATOM     13  N   LIG d   1       0.511  81.601 109.523  0.00  0.00    -0.311 N 
ATOM     14  C   LIG d   1       1.206  80.520 109.875  0.00  0.00     0.210 C 
ATOM     15  C   LIG d   1       1.003  79.299 108.972  0.00  0.00     0.109 C 
ATOM     16  O   LIG d   1       1.946  80.447 110.867  0.00  0.00    -0.276 OA
ATOM     17  H   LIG d   1      -0.090  81.562 108.723  0.00  0.00     0.149 HD
ENDBRANCH   6  13
BRANCH   5  18
ATOM     18  N   LIG d   1      -1.173  82.313 111.971  0.00  0.00     0.381 N 
ATOM     19  H   LIG d   1      -1.386  81.426 111.559  0.00  0.00    -0.090 HD
ATOM     20  H   LIG d   1      -2.003  82.660 112.419  0.00  0.00    -0.090 HD
ATOM     21  H   LIG d   1      -0.444  82.209 112.641  0.00  0.00    -0.090 HD
ENDBRANCH   5  18
BRANCH   3  22
ATOM     22  C   LIG d   1      -0.513  86.934 110.898  0.00  0.00     0.382 C 
ATOM     23  O   LIG d   1       0.339  87.806 111.192  0.00  0.00    -0.241 OA
ATOM     24  O   LIG d   1      -1.715  87.251 110.822  0.00  0.00    -0.241 OA
ENDBRANCH   3  22
TORSDOF 7
ENDMDL
MODEL 2
REMARK VINA RESULT:      -6.2      1.337      2.109
REMARK  7 active torsions:
REMARK  status: ('A' for Active; 'I' for Inactive)
REMARK    1  A    between atoms: C_2  and  C_3 
REMARK    2  A    between atoms: C_3  and  O_6 
REMARK    3  A    between atoms: C_3  and  C_4 
REMARK    4  A    between atoms: C_7  and  O_6 
REMARK    5  A    between atoms: C_9  and  C_10 
REMARK    6  A    between atoms: N_15  and  C_14 
REMARK    7  A    between atoms: N_20  and  C_19 
REMARK       I    between atoms: C_22  and  N_20 
ROOT
ATOM      1  C   LIG d   1       1.167  83.070 109.868  0.00  0.00     0.161 C 
ATOM      2  C   LIG d   1       1.292  84.465 109.973  0.00  0.00     0.016 C 
ATOM      3  C   LIG d   1       0.561  85.244 110.899  0.00  0.00     0.038 C 
ATOM      4  C   LIG d   1      -0.238  84.659 111.893  0.00  0.00     0.028 C 
ATOM      5  C   LIG d   1      -0.785  83.291 111.502  0.00  0.00    -0.047 C 
ATOM      6  C   LIG d   1       0.383  82.402 111.017  0.00  0.00     0.091 C 
ENDROOT
BRANCH   1   7
ATOM      7  O   LIG d   1       2.471  82.471 109.736  0.00  0.00    -0.368 OA
BRANCH   7   8
ATOM      8  C   LIG d   1       3.591  83.280 110.172  0.00  0.00     0.119 C 
BRANCH   8   9
ATOM      9  C   LIG d   1       4.723  83.097 109.142  0.00  0.00     0.028 C 
ATOM     10  C   LIG d   1       4.406  82.002 108.110  0.00  0.00     0.006 C 
ENDBRANCH   8   9
BRANCH   8  11
ATOM     11  C   LIG d   1       4.163  82.771 111.498  0.00  0.00     0.028 C 
ATOM     12  C   LIG d   1       4.128  83.832 112.609  0.00  0.00     0.006 C 
ENDBRANCH   8  11
ENDBRANCH   7   8
ENDBRANCH   1   7
BRANCH   6  13
ATOM     13  N   LIG d   1      -0.077  81.074 110.536  0.00  0.00    -0.311 N 
ATOM     14  C   LIG d   1      -0.157  79.998 111.318  0.00  0.00     0.210 C 
ATOM     15  C   LIG d   1      -0.636  78.723 110.617  0.00  0.00     0.109 C 
ATOM     16  O   LIG d   1       0.092  79.987 112.533  0.00  0.00    -0.276 OA
ATOM     17  H   LIG d   1      -0.329  81.001 109.570  0.00  0.00     0.149 HD
ENDBRANCH   6  13
BRANCH   5  18
ATOM     18  N   LIG d   1      -1.484  82.738 112.677  0.00  0.00     0.381 N 
ATOM     19  H   LIG d   1      -1.979  83.466 113.151  0.00  0.00    -0.090 HD
ATOM     20  H   LIG d   1      -0.802  82.357 113.310  0.00  0.00    -0.090 HD
ATOM     21  H   LIG d   1      -2.119  82.025 112.393  0.00  0.00    -0.090 HD
ENDBRANCH   5  18
BRANCH   3  22
ATOM     22  C   LIG d   1       0.596  86.628 110.811  0.00  0.00     0.382 C 
ATOM     23  O   LIG d   1       1.654  87.208 110.468  0.00  0.00    -0.241 OA
ATOM     24  O   LIG d   1      -0.405  87.305 111.114  0.00  0.00    -0.241 OA
ENDBRANCH   3  22
TORSDOF 7
ENDMDL
MODEL 3
REMARK VINA RESULT:      -6.2      2.584      4.677
REMARK  7 active torsions:
REMARK  status: ('A' for Active; 'I' for Inactive)
REMARK    1  A    between atoms: C_2  and  C_3 
REMARK    2  A    between atoms: C_3  and  O_6 
REMARK    3  A    between atoms: C_3  and  C_4 
REMARK    4  A    between atoms: C_7  and  O_6 
REMARK    5  A    between atoms: C_9  and  C_10 
REMARK    6  A    between atoms: N_15  and  C_14 
REMARK    7  A    between atoms: N_20  and  C_19 
REMARK       I    between atoms: C_22  and  N_20 
ROOT
ATOM      1  C   LIG d   1       1.918  83.583 111.153  0.00  0.00     0.161 C 
ATOM      2  C   LIG d   1       0.859  82.660 111.155  0.00  0.00     0.016 C 
ATOM      3  C   LIG d   1      -0.327  82.839 111.903  0.00  0.00     0.038 C 
ATOM      4  C   LIG d   1      -0.600  84.034 112.586  0.00  0.00     0.028 C 
ATOM      5  C   LIG d   1       0.655  84.782 113.023  0.00  0.00    -0.047 C 
ATOM      6  C   LIG d   1       1.592  84.943 111.804  0.00  0.00     0.091 C 
ENDROOT
BRANCH   1   7
ATOM      7  O   LIG d   1       2.398  83.774 109.807  0.00  0.00    -0.368 OA
BRANCH   7   8
ATOM      8  C   LIG d   1       3.752  83.330 109.544  0.00  0.00     0.119 C 
BRANCH   8   9
ATOM      9  C   LIG d   1       3.692  82.328 108.375  0.00  0.00     0.028 C 
ATOM     10  C   LIG d   1       2.342  82.364 107.639  0.00  0.00     0.006 C 
ENDBRANCH   8   9
BRANCH   8  11
ATOM     11  C   LIG d   1       4.319  82.540 110.727  0.00  0.00     0.028 C 
ATOM     12  C   LIG d   1       4.820  81.144 110.326  0.00  0.00     0.006 C 
ENDBRANCH   8  11
ENDBRANCH   7   8
ENDBRANCH   1   7
BRANCH   6  13
ATOM     13  N   LIG d   1       2.881  85.591 112.162  0.00  0.00    -0.311 N 
ATOM     14  C   LIG d   1       3.141  86.879 111.943  0.00  0.00     0.210 C 
ATOM     15  C   LIG d   1       4.538  87.339 112.370  0.00  0.00     0.109 C 
ATOM     16  O   LIG d   1       2.334  87.691 111.465  0.00  0.00    -0.276 OA
ATOM     17  H   LIG d   1       3.581  85.012 112.583  0.00  0.00     0.149 HD
ENDBRANCH   6  13
BRANCH   5  18
ATOM     18  N   LIG d   1       0.228  86.071 113.598  0.00  0.00     0.381 N 
ATOM     19  H   LIG d   1       0.927  86.766 113.428  0.00  0.00    -0.090 HD
ATOM     20  H   LIG d   1       0.125  85.965 114.592  0.00  0.00    -0.090 HD
ATOM     21  H   LIG d   1      -0.638  86.354 113.195  0.00  0.00    -0.090 HD
ENDBRANCH   5  18
BRANCH   3  22
ATOM     22  C   LIG d   1      -1.239  81.799 112.005  0.00  0.00     0.382 C 
ATOM     23  O   LIG d   1      -0.886  80.627 111.732  0.00  0.00    -0.241 OA
ATOM     24  O   LIG d   1      -2.422  82.025 112.323  0.00  0.00    -0.241 OA
ENDBRANCH   3  22
TORSDOF 7
ENDMDL
MODEL 4
REMARK VINA RESULT:      -6.0      2.582      4.290
REMARK  7 active torsions:
REMARK  status: ('A' for Active; 'I' for Inactive)
REMARK    1  A    between atoms: C_2  and  C_3 
REMARK    2  A    between atoms: C_3  and  O_6 
REMARK    3  A    between atoms: C_3  and  C_4 
REMARK    4  A    between atoms: C_7  and  O_6 
REMARK    5  A    between atoms: C_9  and  C_10 
REMARK    6  A    between atoms: N_15  and  C_14 
REMARK    7  A    between atoms: N_20  and  C_19 
REMARK       I    between atoms: C_22  and  N_20 
ROOT
ATOM      1  C   LIG d   1       0.214  82.633 111.212  0.00  0.00     0.161 C 
ATOM      2  C   LIG d   1      -0.902  82.382 112.028  0.00  0.00     0.016 C 
ATOM      3  C   LIG d   1      -1.456  81.094 112.214  0.00  0.00     0.038 C 
ATOM      4  C   LIG d   1      -0.836  79.941 111.712  0.00  0.00     0.028 C 
ATOM      5  C   LIG d   1       0.005  80.198 110.466  0.00  0.00    -0.047 C 
ATOM      6  C   LIG d   1       0.971  81.372 110.745  0.00  0.00     0.091 C 
ENDROOT
BRANCH   1   7
ATOM      7  O   LIG d   1       1.114  83.539 111.880  0.00  0.00    -0.368 OA
BRANCH   7   8
ATOM      8  C   LIG d   1       1.003  84.936 111.510  0.00  0.00     0.119 C 
BRANCH   8   9
ATOM      9  C   LIG d   1       0.449  84.992 110.073  0.00  0.00     0.028 C 
ATOM     10  C   LIG d   1      -0.587  86.113 109.886  0.00  0.00     0.006 C 
ENDBRANCH   8   9
BRANCH   8  11
ATOM     11  C   LIG d   1       2.378  85.605 111.441  0.00  0.00     0.028 C 
ATOM     12  C   LIG d   1       3.382  84.818 110.584  0.00  0.00     0.006 C 
ENDBRANCH   8  11
ENDBRANCH   7   8
ENDBRANCH   1   7
BRANCH   6  13
ATOM     13  N   LIG d   1       1.771  81.744 109.550  0.00  0.00    -0.311 N 
ATOM     14  C   LIG d   1       2.996  81.277 109.313  0.00  0.00     0.210 C 
ATOM     15  C   LIG d   1       3.653  81.804 108.033  0.00  0.00     0.109 C 
ATOM     16  O   LIG d   1       3.588  80.451 110.024  0.00  0.00    -0.276 OA
ATOM     17  H   LIG d   1       1.355  82.385 108.903  0.00  0.00     0.149 HD
ENDBRANCH   6  13
BRANCH   5  18
ATOM     18  N   LIG d   1       0.702  78.942 110.131  0.00  0.00     0.381 N 
ATOM     19  H   LIG d   1       0.076  78.323 109.657  0.00  0.00    -0.090 HD
ATOM     20  H   LIG d   1       0.999  78.498 110.983  0.00  0.00    -0.090 HD
ATOM     21  H   LIG d   1       1.492  79.133 109.555  0.00  0.00    -0.090 HD
ENDBRANCH   5  18
BRANCH   3  22
ATOM     22  C   LIG d   1      -2.667  80.956 112.875  0.00  0.00     0.382 C 
ATOM     23  O   LIG d   1      -3.027  79.830 113.294  0.00  0.00    -0.241 OA
ATOM     24  O   LIG d   1      -3.423  81.936 113.020  0.00  0.00    -0.241 OA
ENDBRANCH   3  22
TORSDOF 7
ENDMDL
MODEL 5
REMARK VINA RESULT:      -6.0      2.691      4.899
REMARK  7 active torsions:
REMARK  status: ('A' for Active; 'I' for Inactive)
REMARK    1  A    between atoms: C_2  and  C_3 
REMARK    2  A    between atoms: C_3  and  O_6 
REMARK    3  A    between atoms: C_3  and  C_4 
REMARK    4  A    between atoms: C_7  and  O_6 
REMARK    5  A    between atoms: C_9  and  C_10 
REMARK    6  A    between atoms: N_15  and  C_14 
REMARK    7  A    between atoms: N_20  and  C_19 
REMARK       I    between atoms: C_22  and  N_20 
ROOT
ATOM      1  C   LIG d   1       1.876  83.760 112.600  0.00  0.00     0.161 C 
ATOM      2  C   LIG d   1       0.987  82.692 112.394  0.00  0.00     0.016 C 
ATOM      3  C   LIG d   1      -0.342  82.862 111.945  0.00  0.00     0.038 C 
ATOM      4  C   LIG d   1      -0.829  84.108 111.524  0.00  0.00     0.028 C 
ATOM      5  C   LIG d   1      -0.130  85.288 112.191  0.00  0.00    -0.047 C 
ATOM      6  C   LIG d   1       1.398  85.117 112.040  0.00  0.00     0.091 C 
ENDROOT
BRANCH   1   7
ATOM      7  O   LIG d   1       3.173  83.427 112.066  0.00  0.00    -0.368 OA
BRANCH   7   8
ATOM      8  C   LIG d   1       3.184  82.505 110.948  0.00  0.00     0.119 C 
BRANCH   8   9
ATOM      9  C   LIG d   1       4.450  81.636 111.078  0.00  0.00     0.028 C 
ATOM     10  C   LIG d   1       4.781  80.884 109.778  0.00  0.00     0.006 C 
ENDBRANCH   8   9
BRANCH   8  11
ATOM     11  C   LIG d   1       3.336  83.246 109.617  0.00  0.00     0.028 C 
ATOM     12  C   LIG d   1       2.023  83.316 108.821  0.00  0.00     0.006 C 
ENDBRANCH   8  11
ENDBRANCH   7   8
ENDBRANCH   1   7
BRANCH   6  13
ATOM     13  N   LIG d   1       2.160  86.185 112.738  0.00  0.00    -0.311 N 
ATOM     14  C   LIG d   1       2.489  87.343 112.168  0.00  0.00     0.210 C 
ATOM     15  C   LIG d   1       3.293  88.296 113.057  0.00  0.00     0.109 C 
ATOM     16  O   LIG d   1       2.164  87.683 111.021  0.00  0.00    -0.276 OA
ATOM     17  H   LIG d   1       2.438  86.004 113.683  0.00  0.00     0.149 HD
ENDBRANCH   6  13
BRANCH   5  18
ATOM     18  N   LIG d   1      -0.639  86.522 111.561  0.00  0.00     0.381 N 
ATOM     19  H   LIG d   1       0.097  87.197 111.497  0.00  0.00    -0.090 HD
ATOM     20  H   LIG d   1      -1.369  86.903 112.136  0.00  0.00    -0.090 HD
ATOM     21  H   LIG d   1      -0.993  86.319 110.652  0.00  0.00    -0.090 HD
ENDBRANCH   5  18
BRANCH   3  22
ATOM     22  C   LIG d   1      -1.213  81.783 111.952  0.00  0.00     0.382 C 
ATOM     23  O   LIG d   1      -0.821  80.659 111.556  0.00  0.00    -0.241 OA
ATOM     24  O   LIG d   1      -2.398  81.929 112.307  0.00  0.00    -0.241 OA
ENDBRANCH   3  22
TORSDOF 7
ENDMDL
MODEL 6
REMARK VINA RESULT:      -5.8      3.075      5.278
REMARK  7 active torsions:
REMARK  status: ('A' for Active; 'I' for Inactive)
REMARK    1  A    between atoms: C_2  and  C_3 
REMARK    2  A    between atoms: C_3  and  O_6 
REMARK    3  A    between atoms: C_3  and  C_4 
REMARK    4  A    between atoms: C_7  and  O_6 
REMARK    5  A    between atoms: C_9  and  C_10 
REMARK    6  A    between atoms: N_15  and  C_14 
REMARK    7  A    between atoms: N_20  and  C_19 
REMARK       I    between atoms: C_22  and  N_20 
ROOT
ATOM      1  C   LIG d   1       0.942  80.929 111.112  0.00  0.00     0.161 C 
ATOM      2  C   LIG d   1      -0.157  80.253 111.668  0.00  0.00     0.016 C 
ATOM      3  C   LIG d   1      -0.749  79.113 111.076  0.00  0.00     0.038 C 
ATOM      4  C   LIG d   1      -0.184  78.479 109.960  0.00  0.00     0.028 C 
ATOM      5  C   LIG d   1       0.627  79.420 109.075  0.00  0.00    -0.047 C 
ATOM      6  C   LIG d   1       1.641  80.187 109.954  0.00  0.00     0.091 C 
ENDROOT
BRANCH   1   7
ATOM      7  O   LIG d   1       1.892  81.251 112.147  0.00  0.00    -0.368 OA
BRANCH   7   8
ATOM      8  C   LIG d   1       1.975  82.647 112.525  0.00  0.00     0.119 C 
BRANCH   8   9
ATOM      9  C   LIG d   1       0.912  83.411 111.712  0.00  0.00     0.028 C 
ATOM     10  C   LIG d   1      -0.206  83.983 112.599  0.00  0.00     0.006 C 
ENDBRANCH   8   9
BRANCH   8  11
ATOM     11  C   LIG d   1       3.317  83.258 112.113  0.00  0.00     0.028 C 
ATOM     12  C   LIG d   1       3.163  84.413 111.110  0.00  0.00     0.006 C 
ENDBRANCH   8  11
ENDBRANCH   7   8
ENDBRANCH   1   7
BRANCH   6  13
ATOM     13  N   LIG d   1       2.417  81.190 109.179  0.00  0.00    -0.311 N 
ATOM     14  C   LIG d   1       3.747  81.187 109.102  0.00  0.00     0.210 C 
ATOM     15  C   LIG d   1       4.348  82.322 108.268  0.00  0.00     0.109 C 
ATOM     16  O   LIG d   1       4.483  80.333 109.618  0.00  0.00    -0.276 OA
ATOM     17  H   LIG d   1       1.897  81.901 108.703  0.00  0.00     0.149 HD
ENDBRANCH   6  13
BRANCH   5  18
ATOM     18  N   LIG d   1       1.270  78.603 108.028  0.00  0.00     0.381 N 
ATOM     19  H   LIG d   1       2.260  78.583 108.175  0.00  0.00    -0.090 HD
ATOM     20  H   LIG d   1       1.092  79.023 107.133  0.00  0.00    -0.090 HD
ATOM     21  H   LIG d   1       0.906  77.676 108.047  0.00  0.00    -0.090 HD
ENDBRANCH   5  18
BRANCH   3  22
ATOM     22  C   LIG d   1      -1.943  78.620 111.580  0.00  0.00     0.382 C 
ATOM     23  O   LIG d   1      -2.302  77.449 111.309  0.00  0.00    -0.241 OA
ATOM     24  O   LIG d   1      -2.688  79.347 112.265  0.00  0.00    -0.241 OA
ENDBRANCH   3  22
TORSDOF 7
ENDMDL
MODEL 7
REMARK VINA RESULT:      -5.5      2.787      4.246
REMARK  7 active torsions:
REMARK  status: ('A' for Active; 'I' for Inactive)
REMARK    1  A    between atoms: C_2  and  C_3 
REMARK    2  A    between atoms: C_3  and  O_6 
REMARK    3  A    between atoms: C_3  and  C_4 
REMARK    4  A    between atoms: C_7  and  O_6 
REMARK    5  A    between atoms: C_9  and  C_10 
REMARK    6  A    between atoms: N_15  and  C_14 
REMARK    7  A    between atoms: N_20  and  C_19 
REMARK       I    between atoms: C_22  and  N_20 
ROOT
ATOM      1  C   LIG d   1       0.892  82.545 111.550  0.00  0.00     0.161 C 
ATOM      2  C   LIG d   1      -0.280  82.293 112.283  0.00  0.00     0.016 C 
ATOM      3  C   LIG d   1      -0.990  81.072 112.219  0.00  0.00     0.038 C 
ATOM      4  C   LIG d   1      -0.489  79.958 111.528  0.00  0.00     0.028 C 
ATOM      5  C   LIG d   1       0.429  80.327 110.368  0.00  0.00    -0.047 C 
ATOM      6  C   LIG d   1       1.514  81.303 110.877  0.00  0.00     0.091 C 
ENDROOT
BRANCH   1   7
ATOM      7  O   LIG d   1       1.863  83.198 112.391  0.00  0.00    -0.368 OA
BRANCH   7   8
ATOM      8  C   LIG d   1       2.939  83.887 111.706  0.00  0.00     0.119 C 
BRANCH   8   9
ATOM      9  C   LIG d   1       4.171  83.856 112.631  0.00  0.00     0.028 C 
ATOM     10  C   LIG d   1       4.920  82.514 112.565  0.00  0.00     0.006 C 
ENDBRANCH   8   9
BRANCH   8  11
ATOM     11  C   LIG d   1       2.615  85.371 111.512  0.00  0.00     0.028 C 
ATOM     12  C   LIG d   1       3.830  86.282 111.749  0.00  0.00     0.006 C 
ENDBRANCH   8  11
ENDBRANCH   7   8
ENDBRANCH   1   7
BRANCH   6  13
ATOM     13  N   LIG d   1       2.404  81.781 109.787  0.00  0.00    -0.311 N 
ATOM     14  C   LIG d   1       3.528  81.160 109.433  0.00  0.00     0.210 C 
ATOM     15  C   LIG d   1       4.307  81.831 108.298  0.00  0.00     0.109 C 
ATOM     16  O   LIG d   1       3.937  80.100 109.930  0.00  0.00    -0.276 OA
ATOM     17  H   LIG d   1       2.132  82.617 109.309  0.00  0.00     0.149 HD
ENDBRANCH   6  13
BRANCH   5  18
ATOM     18  N   LIG d   1       0.987  79.075 109.825  0.00  0.00     0.381 N 
ATOM     19  H   LIG d   1       0.328  78.331 109.945  0.00  0.00    -0.090 HD
ATOM     20  H   LIG d   1       1.821  78.843 110.334  0.00  0.00    -0.090 HD
ATOM     21  H   LIG d   1       1.199  79.187 108.858  0.00  0.00    -0.090 HD
ENDBRANCH   5  18
BRANCH   3  22
ATOM     22  C   LIG d   1      -2.236  80.970 112.819  0.00  0.00     0.382 C 
ATOM     23  O   LIG d   1      -2.436  80.105 113.705  0.00  0.00    -0.241 OA
ATOM     24  O   LIG d   1      -3.175  81.702 112.453  0.00  0.00    -0.241 OA
ENDBRANCH   3  22
TORSDOF 7
ENDMDL
MODEL 8
REMARK VINA RESULT:      -5.4      1.928      4.774
REMARK  7 active torsions:
REMARK  status: ('A' for Active; 'I' for Inactive)
REMARK    1  A    between atoms: C_2  and  C_3 
REMARK    2  A    between atoms: C_3  and  O_6 
REMARK    3  A    between atoms: C_3  and  C_4 
REMARK    4  A    between atoms: C_7  and  O_6 
REMARK    5  A    between atoms: C_9  and  C_10 
REMARK    6  A    between atoms: N_15  and  C_14 
REMARK    7  A    between atoms: N_20  and  C_19 
REMARK       I    between atoms: C_22  and  N_20 
ROOT
ATOM      1  C   LIG d   1       1.625  83.090 111.386  0.00  0.00     0.161 C 
ATOM      2  C   LIG d   1       2.948  83.121 110.917  0.00  0.00     0.016 C 
ATOM      3  C   LIG d   1       3.377  82.443 109.753  0.00  0.00     0.038 C 
ATOM      4  C   LIG d   1       2.473  81.807 108.889  0.00  0.00     0.028 C 
ATOM      5  C   LIG d   1       1.207  81.323 109.588  0.00  0.00    -0.047 C 
ATOM      6  C   LIG d   1       0.602  82.493 110.397  0.00  0.00     0.091 C 
ENDROOT
BRANCH   1   7
ATOM      7  O   LIG d   1       1.218  84.413 111.789  0.00  0.00    -0.368 OA
BRANCH   7   8
ATOM      8  C   LIG d   1       0.500  85.189 110.799  0.00  0.00     0.119 C 
BRANCH   8   9
ATOM      9  C   LIG d   1       1.378  86.402 110.436  0.00  0.00     0.028 C 
ATOM     10  C   LIG d   1       2.375  86.760 111.551  0.00  0.00     0.006 C 
ENDBRANCH   8   9
BRANCH   8  11
ATOM     11  C   LIG d   1      -0.788  85.780 111.381  0.00  0.00     0.028 C 
ATOM     12  C   LIG d   1      -1.205  87.090 110.694  0.00  0.00     0.006 C 
ENDBRANCH   8  11
ENDBRANCH   7   8
ENDBRANCH   1   7
BRANCH   6  13
ATOM     13  N   LIG d   1      -0.594  82.084 111.179  0.00  0.00    -0.311 N 
ATOM     14  C   LIG d   1      -0.608  81.036 112.002  0.00  0.00     0.210 C 
ATOM     15  C   LIG d   1      -1.949  80.777 112.695  0.00  0.00     0.109 C 
ATOM     16  O   LIG d   1       0.372  80.317 112.248  0.00  0.00    -0.276 OA
ATOM     17  H   LIG d   1      -1.424  82.631 111.063  0.00  0.00     0.149 HD
ENDBRANCH   6  13
BRANCH   5  18
ATOM     18  N   LIG d   1       0.295  80.805 108.550  0.00  0.00     0.381 N 
ATOM     19  H   LIG d   1       0.825  80.467 107.772  0.00  0.00    -0.090 HD
ATOM     20  H   LIG d   1      -0.292  81.555 108.230  0.00  0.00    -0.090 HD
ATOM     21  H   LIG d   1      -0.266  80.071 108.924  0.00  0.00    -0.090 HD
ENDBRANCH   5  18
BRANCH   3  22
ATOM     22  C   LIG d   1       4.731  82.363 109.464  0.00  0.00     0.382 C 
ATOM     23  O   LIG d   1       5.221  83.076 108.555  0.00  0.00    -0.241 OA
ATOM     24  O   LIG d   1       5.460  81.554 110.069  0.00  0.00    -0.241 OA
ENDBRANCH   3  22
TORSDOF 7
ENDMDL
MODEL 9
REMARK VINA RESULT:      -4.5     25.195     27.626
REMARK  7 active torsions:
REMARK  status: ('A' for Active; 'I' for Inactive)
REMARK    1  A    between atoms: C_2  and  C_3 
REMARK    2  A    between atoms: C_3  and  O_6 
REMARK    3  A    between atoms: C_3  and  C_4 
REMARK    4  A    between atoms: C_7  and  O_6 
REMARK    5  A    between atoms: C_9  and  C_10 
REMARK    6  A    between atoms: N_15  and  C_14 
REMARK    7  A    between atoms: N_20  and  C_19 
REMARK       I    between atoms: C_22  and  N_20 
ROOT
ATOM      1  C   LIG d   1     -25.990  85.744 114.320  0.00  0.00     0.161 C 
ATOM      2  C   LIG d   1     -24.880  86.605 114.338  0.00  0.00     0.016 C 
ATOM      3  C   LIG d   1     -23.670  86.328 113.662  0.00  0.00     0.038 C 
ATOM      4  C   LIG d   1     -23.540  85.235 112.792  0.00  0.00     0.028 C 
ATOM      5  C   LIG d   1     -24.462  84.072 113.139  0.00  0.00    -0.047 C 
ATOM      6  C   LIG d   1     -25.906  84.602 113.286  0.00  0.00     0.091 C 
ENDROOT
BRANCH   1   7
ATOM      7  O   LIG d   1     -27.197  86.508 114.127  0.00  0.00    -0.368 OA
BRANCH   7   8
ATOM      8  C   LIG d   1     -27.583  86.753 112.752  0.00  0.00     0.119 C 
BRANCH   8   9
ATOM      9  C   LIG d   1     -27.689  88.279 112.565  0.00  0.00     0.028 C 
ATOM     10  C   LIG d   1     -26.979  88.765 111.291  0.00  0.00     0.006 C 
ENDBRANCH   8   9
BRANCH   8  11
ATOM     11  C   LIG d   1     -28.985  86.210 112.461  0.00  0.00     0.028 C 
ATOM     12  C   LIG d   1     -29.156  85.749 111.005  0.00  0.00     0.006 C 
ENDBRANCH   8  11
ENDBRANCH   7   8
ENDBRANCH   1   7
BRANCH   6  13
ATOM     13  N   LIG d   1     -26.859  83.543 113.708  0.00  0.00    -0.311 N 
ATOM     14  C   LIG d   1     -27.487  82.738 112.852  0.00  0.00     0.210 C 
ATOM     15  C   LIG d   1     -28.442  81.728 113.496  0.00  0.00     0.109 C 
ATOM     16  O   LIG d   1     -27.320  82.744 111.623  0.00  0.00    -0.276 OA
ATOM     17  H   LIG d   1     -27.030  83.448 114.690  0.00  0.00     0.149 HD
ENDBRANCH   6  13
BRANCH   5  18
ATOM     18  N   LIG d   1     -24.323  83.060 112.074  0.00  0.00     0.381 N 
ATOM     19  H   LIG d   1     -25.083  82.411 112.123  0.00  0.00    -0.090 HD
ATOM     20  H   LIG d   1     -23.466  82.554 112.216  0.00  0.00    -0.090 HD
ATOM     21  H   LIG d   1     -24.312  83.503 111.182  0.00  0.00    -0.090 HD
ENDBRANCH   5  18
BRANCH   3  22
ATOM     22  C   LIG d   1     -22.559  87.128 113.885  0.00  0.00     0.382 C 
ATOM     23  O   LIG d   1     -22.671  88.183 114.554  0.00  0.00    -0.241 OA
ATOM     24  O   LIG d   1     -21.456  86.831 113.388  0.00  0.00    -0.241 OA
ENDBRANCH   3  22
TORSDOF 7
ENDMDL
