MODEL 1
REMARK VINA RESULT:      -6.0      0.000      0.000
REMARK  7 active torsions:
REMARK  status: ('A' for Active; 'I' for Inactive)
REMARK    1  A    between atoms: C_2  and  C_3 
REMARK    2  A    between atoms: C_3  and  O_6 
REMARK    3  A    between atoms: C_3  and  C_4 
REMARK    4  A    between atoms: C_7  and  O_6 
REMARK    5  A    between atoms: C_9  and  C_10 
REMARK    6  A    between atoms: N_15  and  C_14 
REMARK    7  A    between atoms: N_20  and  C_19 
REMARK       I    between atoms: C_22  and  N_20 
ROOT
ATOM      1  C   LIG d   1       0.303  82.934 112.225  0.00  0.00     0.161 C 
ATOM      2  C   LIG d   1      -0.928  82.603 112.817  0.00  0.00     0.016 C 
ATOM      3  C   LIG d   1      -1.552  81.344 112.661  0.00  0.00     0.038 C 
ATOM      4  C   LIG d   1      -0.911  80.272 112.022  0.00  0.00     0.028 C 
ATOM      5  C   LIG d   1       0.109  80.712 110.978  0.00  0.00    -0.047 C 
ATOM      6  C   LIG d   1       1.070  81.741 111.617  0.00  0.00     0.091 C 
ENDROOT
BRANCH   1   7
ATOM      7  O   LIG d   1       1.131  83.629 113.178  0.00  0.00    -0.368 OA
BRANCH   7   8
ATOM      8  C   LIG d   1       1.327  85.044 112.940  0.00  0.00     0.119 C 
BRANCH   8   9
ATOM      9  C   LIG d   1       0.719  85.370 111.562  0.00  0.00     0.028 C 
ATOM     10  C   LIG d   1       1.755  85.950 110.585  0.00  0.00     0.006 C 
ENDBRANCH   8   9
BRANCH   8  11
ATOM     11  C   LIG d   1       2.814  85.389 112.819  0.00  0.00     0.028 C 
ATOM     12  C   LIG d   1       3.730  84.249 113.291  0.00  0.00     0.006 C 
ENDBRANCH   8  11
ENDBRANCH   7   8
ENDBRANCH   1   7
BRANCH   6  13
ATOM     13  N   LIG d   1       2.048  82.286 110.641  0.00  0.00    -0.311 N 
ATOM     14  C   LIG d   1       3.296  81.835 110.523  0.00  0.00     0.210 C 
ATOM     15  C   LIG d   1       4.145  82.550 109.468  0.00  0.00     0.109 C 
ATOM     16  O   LIG d   1       3.770  80.889 111.170  0.00  0.00    -0.276 OA
ATOM     17  H   LIG d   1       1.738  83.035 110.054  0.00  0.00     0.149 HD
ENDBRANCH   6  13
BRANCH   5  18
ATOM     18  N   LIG d   1       0.799  79.502 110.491  0.00  0.00     0.381 N 
ATOM     19  H   LIG d   1       1.775  79.690 110.380  0.00  0.00    -0.090 HD
ATOM     20  H   LIG d   1       0.422  79.252 109.594  0.00  0.00    -0.090 HD
ATOM     21  H   LIG d   1       0.668  78.753 111.135  0.00  0.00    -0.090 HD
ENDBRANCH   5  18
BRANCH   3  22
ATOM     22  C   LIG d   1      -2.850  81.160 113.113  0.00  0.00     0.382 C 
ATOM     23  O   LIG d   1      -3.057  80.591 114.211  0.00  0.00    -0.241 OA
ATOM     24  O   LIG d   1      -3.819  81.516 112.415  0.00  0.00    -0.241 OA
ENDBRANCH   3  22
TORSDOF 7
ENDMDL
MODEL 2
REMARK VINA RESULT:      -5.7      2.548      5.422
REMARK  7 active torsions:
REMARK  status: ('A' for Active; 'I' for Inactive)
REMARK    1  A    between atoms: C_2  and  C_3 
REMARK    2  A    between atoms: C_3  and  O_6 
REMARK    3  A    between atoms: C_3  and  C_4 
REMARK    4  A    between atoms: C_7  and  O_6 
REMARK    5  A    between atoms: C_9  and  C_10 
REMARK    6  A    between atoms: N_15  and  C_14 
REMARK    7  A    between atoms: N_20  and  C_19 
REMARK       I    between atoms: C_22  and  N_20 
ROOT
ATOM      1  C   LIG d   1      -0.126  83.595 113.052  0.00  0.00     0.161 C 
ATOM      2  C   LIG d   1       0.688  84.650 112.606  0.00  0.00     0.016 C 
ATOM      3  C   LIG d   1       1.246  84.707 111.308  0.00  0.00     0.038 C 
ATOM      4  C   LIG d   1       0.902  83.781 110.311  0.00  0.00     0.028 C 
ATOM      5  C   LIG d   1       0.485  82.423 110.865  0.00  0.00    -0.047 C 
ATOM      6  C   LIG d   1      -0.602  82.633 111.943  0.00  0.00     0.091 C 
ENDROOT
BRANCH   1   7
ATOM      7  O   LIG d   1      -1.254  84.122 113.777  0.00  0.00    -0.368 OA
BRANCH   7   8
ATOM      8  C   LIG d   1      -1.058  84.330 115.197  0.00  0.00     0.119 C 
BRANCH   8   9
ATOM      9  C   LIG d   1      -1.820  83.215 115.938  0.00  0.00     0.028 C 
ATOM     10  C   LIG d   1      -3.329  83.241 115.647  0.00  0.00     0.006 C 
ENDBRANCH   8   9
BRANCH   8  11
ATOM     11  C   LIG d   1      -1.702  85.640 115.663  0.00  0.00     0.028 C 
ATOM     12  C   LIG d   1      -0.672  86.668 116.157  0.00  0.00     0.006 C 
ENDBRANCH   8  11
ENDBRANCH   7   8
ENDBRANCH   1   7
BRANCH   6  13
ATOM     13  N   LIG d   1      -1.006  81.361 112.596  0.00  0.00    -0.311 N 
ATOM     14  C   LIG d   1      -2.276  81.017 112.809  0.00  0.00     0.210 C 
ATOM     15  C   LIG d   1      -2.471  79.671 113.514  0.00  0.00     0.109 C 
ATOM     16  O   LIG d   1      -3.258  81.683 112.451  0.00  0.00    -0.276 OA
ATOM     17  H   LIG d   1      -0.273  80.746 112.890  0.00  0.00     0.149 HD
ENDBRANCH   6  13
BRANCH   5  18
ATOM     18  N   LIG d   1       0.022  81.603 109.730  0.00  0.00     0.381 N 
ATOM     19  H   LIG d   1      -0.522  82.164 109.106  0.00  0.00    -0.090 HD
ATOM     20  H   LIG d   1      -0.562  80.863 110.080  0.00  0.00    -0.090 HD
ATOM     21  H   LIG d   1       0.804  81.218 109.246  0.00  0.00    -0.090 HD
ENDBRANCH   5  18
BRANCH   3  22
ATOM     22  C   LIG d   1       2.191  85.677 111.008  0.00  0.00     0.382 C 
ATOM     23  O   LIG d   1       3.413  85.396 111.051  0.00  0.00    -0.241 OA
ATOM     24  O   LIG d   1       1.838  86.840 110.738  0.00  0.00    -0.241 OA
ENDBRANCH   3  22
TORSDOF 7
ENDMDL
MODEL 3
REMARK VINA RESULT:      -5.6      3.007      4.867
REMARK  7 active torsions:
REMARK  status: ('A' for Active; 'I' for Inactive)
REMARK    1  A    between atoms: C_2  and  C_3 
REMARK    2  A    between atoms: C_3  and  O_6 
REMARK    3  A    between atoms: C_3  and  C_4 
REMARK    4  A    between atoms: C_7  and  O_6 
REMARK    5  A    between atoms: C_9  and  C_10 
REMARK    6  A    between atoms: N_15  and  C_14 
REMARK    7  A    between atoms: N_20  and  C_19 
REMARK       I    between atoms: C_22  and  N_20 
ROOT
ATOM      1  C   LIG d   1       2.037  84.551 112.630  0.00  0.00     0.161 C 
ATOM      2  C   LIG d   1       0.941  83.673 112.663  0.00  0.00     0.016 C 
ATOM      3  C   LIG d   1      -0.208  83.892 113.458  0.00  0.00     0.038 C 
ATOM      4  C   LIG d   1      -0.404  85.088 114.164  0.00  0.00     0.028 C 
ATOM      5  C   LIG d   1       0.896  85.778 114.561  0.00  0.00    -0.047 C 
ATOM      6  C   LIG d   1       1.793  85.916 113.309  0.00  0.00     0.091 C 
ENDROOT
BRANCH   1   7
ATOM      7  O   LIG d   1       2.472  84.739 111.269  0.00  0.00    -0.368 OA
BRANCH   7   8
ATOM      8  C   LIG d   1       1.686  84.073 110.251  0.00  0.00     0.119 C 
BRANCH   8   9
ATOM      9  C   LIG d   1       2.666  83.350 109.308  0.00  0.00     0.028 C 
ATOM     10  C   LIG d   1       4.116  83.399 109.819  0.00  0.00     0.006 C 
ENDBRANCH   8   9
BRANCH   8  11
ATOM     11  C   LIG d   1       0.945  85.083 109.369  0.00  0.00     0.028 C 
ATOM     12  C   LIG d   1      -0.517  85.288 109.797  0.00  0.00     0.006 C 
ENDBRANCH   8  11
ENDBRANCH   7   8
ENDBRANCH   1   7
BRANCH   6  13
ATOM     13  N   LIG d   1       3.120  86.505 113.624  0.00  0.00    -0.311 N 
ATOM     14  C   LIG d   1       3.561  87.645 113.094  0.00  0.00     0.210 C 
ATOM     15  C   LIG d   1       4.966  88.064 113.538  0.00  0.00     0.109 C 
ATOM     16  O   LIG d   1       2.909  88.365 112.323  0.00  0.00    -0.276 OA
ATOM     17  H   LIG d   1       3.702  86.002 114.265  0.00  0.00     0.149 HD
ENDBRANCH   6  13
BRANCH   5  18
ATOM     18  N   LIG d   1       0.546  87.076 115.166  0.00  0.00     0.381 N 
ATOM     19  H   LIG d   1      -0.445  87.209 115.132  0.00  0.00    -0.090 HD
ATOM     20  H   LIG d   1       0.981  87.811 114.636  0.00  0.00    -0.090 HD
ATOM     21  H   LIG d   1       0.860  87.108 116.111  0.00  0.00    -0.090 HD
ENDBRANCH   5  18
BRANCH   3  22
ATOM     22  C   LIG d   1      -1.158  82.889 113.584  0.00  0.00     0.382 C 
ATOM     23  O   LIG d   1      -1.796  82.500 112.576  0.00  0.00    -0.241 OA
ATOM     24  O   LIG d   1      -1.416  82.399 114.700  0.00  0.00    -0.241 OA
ENDBRANCH   3  22
TORSDOF 7
ENDMDL
MODEL 4
REMARK VINA RESULT:      -5.3      3.318      6.813
REMARK  7 active torsions:
REMARK  status: ('A' for Active; 'I' for Inactive)
REMARK    1  A    between atoms: C_2  and  C_3 
REMARK    2  A    between atoms: C_3  and  O_6 
REMARK    3  A    between atoms: C_3  and  C_4 
REMARK    4  A    between atoms: C_7  and  O_6 
REMARK    5  A    between atoms: C_9  and  C_10 
REMARK    6  A    between atoms: N_15  and  C_14 
REMARK    7  A    between atoms: N_20  and  C_19 
REMARK       I    between atoms: C_22  and  N_20 
ROOT
ATOM      1  C   LIG d   1       2.394  85.810 112.198  0.00  0.00     0.161 C 
ATOM      2  C   LIG d   1       3.369  86.820 112.145  0.00  0.00     0.016 C 
ATOM      3  C   LIG d   1       3.765  87.580 113.270  0.00  0.00     0.038 C 
ATOM      4  C   LIG d   1       3.318  87.275 114.564  0.00  0.00     0.028 C 
ATOM      5  C   LIG d   1       1.953  86.594 114.589  0.00  0.00    -0.047 C 
ATOM      6  C   LIG d   1       1.976  85.389 113.622  0.00  0.00     0.091 C 
ENDROOT
BRANCH   1   7
ATOM      7  O   LIG d   1       2.838  84.663 111.446  0.00  0.00    -0.368 OA
BRANCH   7   8
ATOM      8  C   LIG d   1       1.895  84.127 110.486  0.00  0.00     0.119 C 
BRANCH   8   9
ATOM      9  C   LIG d   1       2.706  83.394 109.400  0.00  0.00     0.028 C 
ATOM     10  C   LIG d   1       4.199  83.288 109.754  0.00  0.00     0.006 C 
ENDBRANCH   8   9
BRANCH   8  11
ATOM     11  C   LIG d   1       1.151  85.246 109.750  0.00  0.00     0.028 C 
ATOM     12  C   LIG d   1      -0.377  85.108 109.845  0.00  0.00     0.006 C 
ENDBRANCH   8  11
ENDBRANCH   7   8
ENDBRANCH   1   7
BRANCH   6  13
ATOM     13  N   LIG d   1       0.655  84.717 113.523  0.00  0.00    -0.311 N 
ATOM     14  C   LIG d   1       0.317  83.652 114.249  0.00  0.00     0.210 C 
ATOM     15  C   LIG d   1      -1.087  83.103 113.976  0.00  0.00     0.109 C 
ATOM     16  O   LIG d   1       1.034  83.131 115.116  0.00  0.00    -0.276 OA
ATOM     17  H   LIG d   1      -0.001  85.094 112.866  0.00  0.00     0.149 HD
ENDBRANCH   6  13
BRANCH   5  18
ATOM     18  N   LIG d   1       1.673  86.210 115.986  0.00  0.00     0.381 N 
ATOM     19  H   LIG d   1       2.233  86.759 116.607  0.00  0.00    -0.090 HD
ATOM     20  H   LIG d   1       1.916  85.243 116.112  0.00  0.00    -0.090 HD
ATOM     21  H   LIG d   1       0.707  86.346 116.189  0.00  0.00    -0.090 HD
ENDBRANCH   5  18
BRANCH   3  22
ATOM     22  C   LIG d   1       4.587  88.683 113.100  0.00  0.00     0.382 C 
ATOM     23  O   LIG d   1       4.086  89.828 112.994  0.00  0.00    -0.241 OA
ATOM     24  O   LIG d   1       5.821  88.543 113.006  0.00  0.00    -0.241 OA
ENDBRANCH   3  22
TORSDOF 7
ENDMDL
MODEL 5
REMARK VINA RESULT:      -5.3      2.527      5.640
REMARK  7 active torsions:
REMARK  status: ('A' for Active; 'I' for Inactive)
REMARK    1  A    between atoms: C_2  and  C_3 
REMARK    2  A    between atoms: C_3  and  O_6 
REMARK    3  A    between atoms: C_3  and  C_4 
REMARK    4  A    between atoms: C_7  and  O_6 
REMARK    5  A    between atoms: C_9  and  C_10 
REMARK    6  A    between atoms: N_15  and  C_14 
REMARK    7  A    between atoms: N_20  and  C_19 
REMARK       I    between atoms: C_22  and  N_20 
ROOT
ATOM      1  C   LIG d   1       2.533  84.120 112.738  0.00  0.00     0.161 C 
ATOM      2  C   LIG d   1       3.095  85.362 113.076  0.00  0.00     0.016 C 
ATOM      3  C   LIG d   1       2.989  86.512 112.260  0.00  0.00     0.038 C 
ATOM      4  C   LIG d   1       2.179  86.536 111.115  0.00  0.00     0.028 C 
ATOM      5  C   LIG d   1       2.003  85.166 110.468  0.00  0.00    -0.047 C 
ATOM      6  C   LIG d   1       1.552  84.156 111.548  0.00  0.00     0.091 C 
ENDROOT
BRANCH   1   7
ATOM      7  O   LIG d   1       1.896  83.542 113.895  0.00  0.00    -0.368 OA
BRANCH   7   8
ATOM      8  C   LIG d   1       0.514  83.916 114.116  0.00  0.00     0.119 C 
BRANCH   8   9
ATOM      9  C   LIG d   1       0.456  84.717 115.431  0.00  0.00     0.028 C 
ATOM     10  C   LIG d   1       0.122  86.200 115.201  0.00  0.00     0.006 C 
ENDBRANCH   8   9
BRANCH   8  11
ATOM     11  C   LIG d   1      -0.366  82.685 114.351  0.00  0.00     0.028 C 
ATOM     12  C   LIG d   1       0.422  81.368 114.285  0.00  0.00     0.006 C 
ENDBRANCH   8  11
ENDBRANCH   7   8
ENDBRANCH   1   7
BRANCH   6  13
ATOM     13  N   LIG d   1       1.438  82.773 111.017  0.00  0.00    -0.311 N 
ATOM     14  C   LIG d   1       0.281  82.219 110.657  0.00  0.00     0.210 C 
ATOM     15  C   LIG d   1       0.384  80.776 110.154  0.00  0.00     0.109 C 
ATOM     16  O   LIG d   1      -0.816  82.798 110.675  0.00  0.00    -0.276 OA
ATOM     17  H   LIG d   1       2.283  82.243 110.940  0.00  0.00     0.149 HD
ENDBRANCH   6  13
BRANCH   5  18
ATOM     18  N   LIG d   1       1.029  85.314 109.371  0.00  0.00     0.381 N 
ATOM     19  H   LIG d   1       1.351  86.004 108.722  0.00  0.00    -0.090 HD
ATOM     20  H   LIG d   1       0.153  85.625 109.753  0.00  0.00    -0.090 HD
ATOM     21  H   LIG d   1       0.905  84.442 108.905  0.00  0.00    -0.090 HD
ENDBRANCH   5  18
BRANCH   3  22
ATOM     22  C   LIG d   1       3.731  87.643 112.566  0.00  0.00     0.382 C 
ATOM     23  O   LIG d   1       3.157  88.748 112.713  0.00  0.00    -0.241 OA
ATOM     24  O   LIG d   1       4.972  87.580 112.653  0.00  0.00    -0.241 OA
ENDBRANCH   3  22
TORSDOF 7
ENDMDL
MODEL 6
REMARK VINA RESULT:      -5.2      4.997      8.111
REMARK  7 active torsions:
REMARK  status: ('A' for Active; 'I' for Inactive)
REMARK    1  A    between atoms: C_2  and  C_3 
REMARK    2  A    between atoms: C_3  and  O_6 
REMARK    3  A    between atoms: C_3  and  C_4 
REMARK    4  A    between atoms: C_7  and  O_6 
REMARK    5  A    between atoms: C_9  and  C_10 
REMARK    6  A    between atoms: N_15  and  C_14 
REMARK    7  A    between atoms: N_20  and  C_19 
REMARK       I    between atoms: C_22  and  N_20 
ROOT
ATOM      1  C   LIG d   1       3.063  87.694 114.756  0.00  0.00     0.161 C 
ATOM      2  C   LIG d   1       3.145  88.676 115.757  0.00  0.00     0.016 C 
ATOM      3  C   LIG d   1       4.119  89.701 115.764  0.00  0.00     0.038 C 
ATOM      4  C   LIG d   1       4.989  89.905 114.683  0.00  0.00     0.028 C 
ATOM      5  C   LIG d   1       5.276  88.635 113.889  0.00  0.00    -0.047 C 
ATOM      6  C   LIG d   1       3.934  87.966 113.511  0.00  0.00     0.091 C 
ENDROOT
BRANCH   1   7
ATOM      7  O   LIG d   1       1.688  87.501 114.372  0.00  0.00    -0.368 OA
BRANCH   7   8
ATOM      8  C   LIG d   1       1.037  86.321 114.906  0.00  0.00     0.119 C 
BRANCH   8   9
ATOM      9  C   LIG d   1       0.368  85.588 113.727  0.00  0.00     0.028 C 
ATOM     10  C   LIG d   1       0.790  84.112 113.638  0.00  0.00     0.006 C 
ENDBRANCH   8   9
BRANCH   8  11
ATOM     11  C   LIG d   1      -0.107  86.696 115.852  0.00  0.00     0.028 C 
ATOM     12  C   LIG d   1       0.188  86.334 117.316  0.00  0.00     0.006 C 
ENDBRANCH   8  11
ENDBRANCH   7   8
ENDBRANCH   1   7
BRANCH   6  13
ATOM     13  N   LIG d   1       4.125  86.672 112.805  0.00  0.00    -0.311 N 
ATOM     14  C   LIG d   1       3.406  86.302 111.746  0.00  0.00     0.210 C 
ATOM     15  C   LIG d   1       3.751  84.921 111.181  0.00  0.00     0.109 C 
ATOM     16  O   LIG d   1       2.538  87.001 111.201  0.00  0.00    -0.276 OA
ATOM     17  H   LIG d   1       4.830  86.058 113.161  0.00  0.00     0.149 HD
ENDBRANCH   6  13
BRANCH   5  18
ATOM     18  N   LIG d   1       6.083  89.016 112.715  0.00  0.00     0.381 N 
ATOM     19  H   LIG d   1       5.503  89.470 112.038  0.00  0.00    -0.090 HD
ATOM     20  H   LIG d   1       6.462  88.184 112.297  0.00  0.00    -0.090 HD
ATOM     21  H   LIG d   1       6.821  89.624 112.991  0.00  0.00    -0.090 HD
ENDBRANCH   5  18
BRANCH   3  22
ATOM     22  C   LIG d   1       4.255  90.512 116.881  0.00  0.00     0.382 C 
ATOM     23  O   LIG d   1       4.205  91.760 116.759  0.00  0.00    -0.241 OA
ATOM     24  O   LIG d   1       4.471  90.013 118.001  0.00  0.00    -0.241 OA
ENDBRANCH   3  22
TORSDOF 7
ENDMDL
MODEL 7
REMARK VINA RESULT:      -5.2      3.398      4.774
REMARK  7 active torsions:
REMARK  status: ('A' for Active; 'I' for Inactive)
REMARK    1  A    between atoms: C_2  and  C_3 
REMARK    2  A    between atoms: C_3  and  O_6 
REMARK    3  A    between atoms: C_3  and  C_4 
REMARK    4  A    between atoms: C_7  and  O_6 
REMARK    5  A    between atoms: C_9  and  C_10 
REMARK    6  A    between atoms: N_15  and  C_14 
REMARK    7  A    between atoms: N_20  and  C_19 
REMARK       I    between atoms: C_22  and  N_20 
ROOT
ATOM      1  C   LIG d   1       1.284  85.215 112.785  0.00  0.00     0.161 C 
ATOM      2  C   LIG d   1       0.168  84.408 113.060  0.00  0.00     0.016 C 
ATOM      3  C   LIG d   1      -0.315  84.166 114.366  0.00  0.00     0.038 C 
ATOM      4  C   LIG d   1       0.198  84.842 115.483  0.00  0.00     0.028 C 
ATOM      5  C   LIG d   1       1.650  85.278 115.313  0.00  0.00    -0.047 C 
ATOM      6  C   LIG d   1       1.788  86.050 113.981  0.00  0.00     0.091 C 
ENDROOT
BRANCH   1   7
ATOM      7  O   LIG d   1       1.002  86.071 111.660  0.00  0.00    -0.368 OA
BRANCH   7   8
ATOM      8  C   LIG d   1       1.688  85.747 110.425  0.00  0.00     0.119 C 
BRANCH   8   9
ATOM      9  C   LIG d   1       0.669  85.056 109.498  0.00  0.00     0.028 C 
ATOM     10  C   LIG d   1      -0.766  85.562 109.722  0.00  0.00     0.006 C 
ENDBRANCH   8   9
BRANCH   8  11
ATOM     11  C   LIG d   1       2.793  84.713 110.656  0.00  0.00     0.028 C 
ATOM     12  C   LIG d   1       2.746  83.555 109.646  0.00  0.00     0.006 C 
ENDBRANCH   8  11
ENDBRANCH   7   8
ENDBRANCH   1   7
BRANCH   6  13
ATOM     13  N   LIG d   1       3.194  86.441 113.696  0.00  0.00    -0.311 N 
ATOM     14  C   LIG d   1       3.565  87.688 113.415  0.00  0.00     0.210 C 
ATOM     15  C   LIG d   1       5.060  87.870 113.133  0.00  0.00     0.109 C 
ATOM     16  O   LIG d   1       2.804  88.667 113.404  0.00  0.00    -0.276 OA
ATOM     17  H   LIG d   1       3.882  85.713 113.714  0.00  0.00     0.149 HD
ENDBRANCH   6  13
BRANCH   5  18
ATOM     18  N   LIG d   1       2.012  86.089 116.491  0.00  0.00     0.381 N 
ATOM     19  H   LIG d   1       1.756  87.044 116.337  0.00  0.00    -0.090 HD
ATOM     20  H   LIG d   1       3.008  86.047 116.621  0.00  0.00    -0.090 HD
ATOM     21  H   LIG d   1       1.549  85.740 117.301  0.00  0.00    -0.090 HD
ENDBRANCH   5  18
BRANCH   3  22
ATOM     22  C   LIG d   1      -1.296  83.208 114.570  0.00  0.00     0.382 C 
ATOM     23  O   LIG d   1      -1.447  82.696 115.706  0.00  0.00    -0.241 OA
ATOM     24  O   LIG d   1      -2.003  82.816 113.622  0.00  0.00    -0.241 OA
ENDBRANCH   3  22
TORSDOF 7
ENDMDL
MODEL 8
REMARK VINA RESULT:      -5.2      2.027      3.780
REMARK  7 active torsions:
REMARK  status: ('A' for Active; 'I' for Inactive)
REMARK    1  A    between atoms: C_2  and  C_3 
REMARK    2  A    between atoms: C_3  and  O_6 
REMARK    3  A    between atoms: C_3  and  C_4 
REMARK    4  A    between atoms: C_7  and  O_6 
REMARK    5  A    between atoms: C_9  and  C_10 
REMARK    6  A    between atoms: N_15  and  C_14 
REMARK    7  A    between atoms: N_20  and  C_19 
REMARK       I    between atoms: C_22  and  N_20 
ROOT
ATOM      1  C   LIG d   1       1.603  81.635 112.970  0.00  0.00     0.161 C 
ATOM      2  C   LIG d   1       0.309  81.088 112.972  0.00  0.00     0.016 C 
ATOM      3  C   LIG d   1      -0.863  81.861 112.804  0.00  0.00     0.038 C 
ATOM      4  C   LIG d   1      -0.812  83.222 112.468  0.00  0.00     0.028 C 
ATOM      5  C   LIG d   1       0.455  83.918 112.954  0.00  0.00    -0.047 C 
ATOM      6  C   LIG d   1       1.684  83.101 112.494  0.00  0.00     0.091 C 
ENDROOT
BRANCH   1   7
ATOM      7  O   LIG d   1       2.483  80.805 112.186  0.00  0.00    -0.368 OA
BRANCH   7   8
ATOM      8  C   LIG d   1       2.534  81.092 110.767  0.00  0.00     0.119 C 
BRANCH   8   9
ATOM      9  C   LIG d   1       1.959  79.869 110.026  0.00  0.00     0.028 C 
ATOM     10  C   LIG d   1       0.639  80.187 109.305  0.00  0.00     0.006 C 
ENDBRANCH   8   9
BRANCH   8  11
ATOM     11  C   LIG d   1       3.979  81.220 110.277  0.00  0.00     0.028 C 
ATOM     12  C   LIG d   1       4.176  82.395 109.305  0.00  0.00     0.006 C 
ENDBRANCH   8  11
ENDBRANCH   7   8
ENDBRANCH   1   7
BRANCH   6  13
ATOM     13  N   LIG d   1       2.962  83.667 112.999  0.00  0.00    -0.311 N 
ATOM     14  C   LIG d   1       3.689  84.554 112.322  0.00  0.00     0.210 C 
ATOM     15  C   LIG d   1       4.983  84.993 113.014  0.00  0.00     0.109 C 
ATOM     16  O   LIG d   1       3.370  85.042 111.227  0.00  0.00    -0.276 OA
ATOM     17  H   LIG d   1       3.280  83.349 113.894  0.00  0.00     0.149 HD
ENDBRANCH   6  13
BRANCH   5  18
ATOM     18  N   LIG d   1       0.441  85.292 112.418  0.00  0.00     0.381 N 
ATOM     19  H   LIG d   1       1.155  85.393 111.724  0.00  0.00    -0.090 HD
ATOM     20  H   LIG d   1       0.636  85.935 113.166  0.00  0.00    -0.090 HD
ATOM     21  H   LIG d   1      -0.450  85.494 112.021  0.00  0.00    -0.090 HD
ENDBRANCH   5  18
BRANCH   3  22
ATOM     22  C   LIG d   1      -2.105  81.279 113.011  0.00  0.00     0.382 C 
ATOM     23  O   LIG d   1      -3.149  81.904 112.703  0.00  0.00    -0.241 OA
ATOM     24  O   LIG d   1      -2.196  80.156 113.542  0.00  0.00    -0.241 OA
ENDBRANCH   3  22
TORSDOF 7
ENDMDL
MODEL 9
REMARK VINA RESULT:      -5.1      3.048      4.951
REMARK  7 active torsions:
REMARK  status: ('A' for Active; 'I' for Inactive)
REMARK    1  A    between atoms: C_2  and  C_3 
REMARK    2  A    between atoms: C_3  and  O_6 
REMARK    3  A    between atoms: C_3  and  C_4 
REMARK    4  A    between atoms: C_7  and  O_6 
REMARK    5  A    between atoms: C_9  and  C_10 
REMARK    6  A    between atoms: N_15  and  C_14 
REMARK    7  A    between atoms: N_20  and  C_19 
REMARK       I    between atoms: C_22  and  N_20 
ROOT
ATOM      1  C   LIG d   1       1.988  84.615 113.055  0.00  0.00     0.161 C 
ATOM      2  C   LIG d   1       0.980  83.672 112.793  0.00  0.00     0.016 C 
ATOM      3  C   LIG d   1      -0.335  83.777 113.301  0.00  0.00     0.038 C 
ATOM      4  C   LIG d   1      -0.777  84.919 113.985  0.00  0.00     0.028 C 
ATOM      5  C   LIG d   1       0.342  85.664 114.705  0.00  0.00    -0.047 C 
ATOM      6  C   LIG d   1       1.495  85.924 113.707  0.00  0.00     0.091 C 
ENDROOT
BRANCH   1   7
ATOM      7  O   LIG d   1       2.715  84.902 111.844  0.00  0.00    -0.368 OA
BRANCH   7   8
ATOM      8  C   LIG d   1       3.939  84.152 111.643  0.00  0.00     0.119 C 
BRANCH   8   9
ATOM      9  C   LIG d   1       5.106  85.030 112.134  0.00  0.00     0.028 C 
ATOM     10  C   LIG d   1       5.530  84.693 113.573  0.00  0.00     0.006 C 
ENDBRANCH   8   9
BRANCH   8  11
ATOM     11  C   LIG d   1       4.208  83.914 110.154  0.00  0.00     0.028 C 
ATOM     12  C   LIG d   1       3.380  82.755 109.577  0.00  0.00     0.006 C 
ENDBRANCH   8  11
ENDBRANCH   7   8
ENDBRANCH   1   7
BRANCH   6  13
ATOM     13  N   LIG d   1       2.666  86.574 114.351  0.00  0.00    -0.311 N 
ATOM     14  C   LIG d   1       3.236  87.684 113.885  0.00  0.00     0.210 C 
ATOM     15  C   LIG d   1       4.444  88.177 114.688  0.00  0.00     0.109 C 
ATOM     16  O   LIG d   1       2.836  88.325 112.901  0.00  0.00    -0.276 OA
ATOM     17  H   LIG d   1       3.035  86.138 115.173  0.00  0.00     0.149 HD
ENDBRANCH   6  13
BRANCH   5  18
ATOM     18  N   LIG d   1      -0.233  86.905 115.259  0.00  0.00     0.381 N 
ATOM     19  H   LIG d   1      -1.227  86.815 115.330  0.00  0.00    -0.090 HD
ATOM     20  H   LIG d   1      -0.029  87.665 114.634  0.00  0.00    -0.090 HD
ATOM     21  H   LIG d   1       0.157  87.089 116.157  0.00  0.00    -0.090 HD
ENDBRANCH   5  18
BRANCH   3  22
ATOM     22  C   LIG d   1      -1.214  82.713 113.159  0.00  0.00     0.382 C 
ATOM     23  O   LIG d   1      -1.664  82.419 112.026  0.00  0.00    -0.241 OA
ATOM     24  O   LIG d   1      -1.596  82.072 114.156  0.00  0.00    -0.241 OA
ENDBRANCH   3  22
TORSDOF 7
ENDMDL
