MODEL 1
REMARK VINA RESULT:      -5.4      0.000      0.000
REMARK  7 active torsions:
REMARK  status: ('A' for Active; 'I' for Inactive)
REMARK    1  A    between atoms: C_2  and  C_3 
REMARK    2  A    between atoms: C_3  and  O_6 
REMARK    3  A    between atoms: C_3  and  C_4 
REMARK    4  A    between atoms: C_7  and  O_6 
REMARK    5  A    between atoms: C_9  and  C_10 
REMARK    6  A    between atoms: N_15  and  C_14 
REMARK    7  A    between atoms: N_20  and  C_19 
REMARK       I    between atoms: C_22  and  N_20 
ROOT
ATOM      1  C   LIG d   1      -6.091  92.873 118.124  0.00  0.00     0.161 C 
ATOM      2  C   LIG d   1      -6.897  92.009 117.365  0.00  0.00     0.016 C 
ATOM      3  C   LIG d   1      -6.394  90.883 116.672  0.00  0.00     0.038 C 
ATOM      4  C   LIG d   1      -5.066  90.456 116.817  0.00  0.00     0.028 C 
ATOM      5  C   LIG d   1      -4.102  91.585 117.169  0.00  0.00    -0.047 C 
ATOM      6  C   LIG d   1      -4.659  92.360 118.385  0.00  0.00     0.091 C 
ENDROOT
BRANCH   1   7
ATOM      7  O   LIG d   1      -6.746  93.183 119.370  0.00  0.00    -0.368 OA
BRANCH   7   8
ATOM      8  C   LIG d   1      -7.697  94.276 119.335  0.00  0.00     0.119 C 
BRANCH   8   9
ATOM      9  C   LIG d   1      -6.956  95.518 118.804  0.00  0.00     0.028 C 
ATOM     10  C   LIG d   1      -6.110  96.205 119.888  0.00  0.00     0.006 C 
ENDBRANCH   8   9
BRANCH   8  11
ATOM     11  C   LIG d   1      -8.163  94.654 120.745  0.00  0.00     0.028 C 
ATOM     12  C   LIG d   1      -9.600  94.197 121.040  0.00  0.00     0.006 C 
ENDBRANCH   8  11
ENDBRANCH   7   8
ENDBRANCH   1   7
BRANCH   6  13
ATOM     13  N   LIG d   1      -3.820  93.533 118.742  0.00  0.00    -0.311 N 
ATOM     14  C   LIG d   1      -2.862  93.494 119.667  0.00  0.00     0.210 C 
ATOM     15  C   LIG d   1      -2.129  94.819 119.895  0.00  0.00     0.109 C 
ATOM     16  O   LIG d   1      -2.528  92.479 120.297  0.00  0.00    -0.276 OA
ATOM     17  H   LIG d   1      -4.002  94.389 118.258  0.00  0.00     0.149 HD
ENDBRANCH   6  13
BRANCH   5  18
ATOM     18  N   LIG d   1      -2.782  90.979 117.425  0.00  0.00     0.381 N 
ATOM     19  H   LIG d   1      -2.611  90.246 116.766  0.00  0.00    -0.090 HD
ATOM     20  H   LIG d   1      -2.781  90.580 118.348  0.00  0.00    -0.090 HD
ATOM     21  H   LIG d   1      -2.069  91.672 117.355  0.00  0.00    -0.090 HD
ENDBRANCH   5  18
BRANCH   3  22
ATOM     22  C   LIG d   1      -7.215  90.195 115.792  0.00  0.00     0.382 C 
ATOM     23  O   LIG d   1      -7.777  89.134 116.157  0.00  0.00    -0.241 OA
ATOM     24  O   LIG d   1      -7.366  90.597 114.623  0.00  0.00    -0.241 OA
ENDBRANCH   3  22
TORSDOF 7
ENDMDL
MODEL 2
REMARK VINA RESULT:      -5.4     14.386     17.352
REMARK  7 active torsions:
REMARK  status: ('A' for Active; 'I' for Inactive)
REMARK    1  A    between atoms: C_2  and  C_3 
REMARK    2  A    between atoms: C_3  and  O_6 
REMARK    3  A    between atoms: C_3  and  C_4 
REMARK    4  A    between atoms: C_7  and  O_6 
REMARK    5  A    between atoms: C_9  and  C_10 
REMARK    6  A    between atoms: N_15  and  C_14 
REMARK    7  A    between atoms: N_20  and  C_19 
REMARK       I    between atoms: C_22  and  N_20 
ROOT
ATOM      1  C   LIG d   1      -4.790  75.800 117.654  0.00  0.00     0.161 C 
ATOM      2  C   LIG d   1      -5.964  76.548 117.842  0.00  0.00     0.016 C 
ATOM      3  C   LIG d   1      -6.089  77.906 117.469  0.00  0.00     0.038 C 
ATOM      4  C   LIG d   1      -5.091  78.569 116.738  0.00  0.00     0.028 C 
ATOM      5  C   LIG d   1      -3.694  78.005 116.971  0.00  0.00    -0.047 C 
ATOM      6  C   LIG d   1      -3.729  76.474 116.758  0.00  0.00     0.091 C 
ENDROOT
BRANCH   1   7
ATOM      7  O   LIG d   1      -5.120  74.493 117.142  0.00  0.00    -0.368 OA
BRANCH   7   8
ATOM      8  C   LIG d   1      -6.298  74.417 116.301  0.00  0.00     0.119 C 
BRANCH   8   9
ATOM      9  C   LIG d   1      -7.062  73.137 116.690  0.00  0.00     0.028 C 
ATOM     10  C   LIG d   1      -6.441  71.872 116.074  0.00  0.00     0.006 C 
ENDBRANCH   8   9
BRANCH   8  11
ATOM     11  C   LIG d   1      -5.920  74.232 114.828  0.00  0.00     0.028 C 
ATOM     12  C   LIG d   1      -6.142  75.502 113.992  0.00  0.00     0.006 C 
ENDBRANCH   8  11
ENDBRANCH   7   8
ENDBRANCH   1   7
BRANCH   6  13
ATOM     13  N   LIG d   1      -2.421  75.831 117.048  0.00  0.00    -0.311 N 
ATOM     14  C   LIG d   1      -1.799  75.019 116.196  0.00  0.00     0.210 C 
ATOM     15  C   LIG d   1      -0.470  74.447 116.701  0.00  0.00     0.109 C 
ATOM     16  O   LIG d   1      -2.205  74.742 115.057  0.00  0.00    -0.276 OA
ATOM     17  H   LIG d   1      -2.005  76.025 117.938  0.00  0.00     0.149 HD
ENDBRANCH   6  13
BRANCH   5  18
ATOM     18  N   LIG d   1      -2.775  78.696 116.047  0.00  0.00     0.381 N 
ATOM     19  H   LIG d   1      -1.896  78.853 116.498  0.00  0.00    -0.090 HD
ATOM     20  H   LIG d   1      -3.168  79.588 115.804  0.00  0.00    -0.090 HD
ATOM     21  H   LIG d   1      -2.641  78.148 115.226  0.00  0.00    -0.090 HD
ENDBRANCH   5  18
BRANCH   3  22
ATOM     22  C   LIG d   1      -7.207  78.626 117.861  0.00  0.00     0.382 C 
ATOM     23  O   LIG d   1      -7.365  79.805 117.462  0.00  0.00    -0.241 OA
ATOM     24  O   LIG d   1      -8.037  78.127 118.645  0.00  0.00    -0.241 OA
ENDBRANCH   3  22
TORSDOF 7
ENDMDL
MODEL 3
REMARK VINA RESULT:      -5.3     14.424     16.999
REMARK  7 active torsions:
REMARK  status: ('A' for Active; 'I' for Inactive)
REMARK    1  A    between atoms: C_2  and  C_3 
REMARK    2  A    between atoms: C_3  and  O_6 
REMARK    3  A    between atoms: C_3  and  C_4 
REMARK    4  A    between atoms: C_7  and  O_6 
REMARK    5  A    between atoms: C_9  and  C_10 
REMARK    6  A    between atoms: N_15  and  C_14 
REMARK    7  A    between atoms: N_20  and  C_19 
REMARK       I    between atoms: C_22  and  N_20 
ROOT
ATOM      1  C   LIG d   1      -3.248  76.829 114.883  0.00  0.00     0.161 C 
ATOM      2  C   LIG d   1      -3.352  77.967 114.066  0.00  0.00     0.016 C 
ATOM      3  C   LIG d   1      -2.312  78.913 113.912  0.00  0.00     0.038 C 
ATOM      4  C   LIG d   1      -1.034  78.703 114.451  0.00  0.00     0.028 C 
ATOM      5  C   LIG d   1      -1.039  77.823 115.697  0.00  0.00    -0.047 C 
ATOM      6  C   LIG d   1      -1.823  76.526 115.391  0.00  0.00     0.091 C 
ENDROOT
BRANCH   1   7
ATOM      7  O   LIG d   1      -3.789  75.683 114.197  0.00  0.00    -0.368 OA
BRANCH   7   8
ATOM      8  C   LIG d   1      -5.009  75.128 114.748  0.00  0.00     0.119 C 
BRANCH   8   9
ATOM      9  C   LIG d   1      -6.173  75.582 113.846  0.00  0.00     0.028 C 
ATOM     10  C   LIG d   1      -7.410  76.006 114.654  0.00  0.00     0.006 C 
ENDBRANCH   8   9
BRANCH   8  11
ATOM     11  C   LIG d   1      -5.314  75.714 116.129  0.00  0.00     0.028 C 
ATOM     12  C   LIG d   1      -5.383  74.643 117.229  0.00  0.00     0.006 C 
ENDBRANCH   8  11
ENDBRANCH   7   8
ENDBRANCH   1   7
BRANCH   6  13
ATOM     13  N   LIG d   1      -1.947  75.646 116.582  0.00  0.00    -0.311 N 
ATOM     14  C   LIG d   1      -1.561  74.371 116.595  0.00  0.00     0.210 C 
ATOM     15  C   LIG d   1      -1.797  73.638 117.919  0.00  0.00     0.109 C 
ATOM     16  O   LIG d   1      -1.015  73.788 115.647  0.00  0.00    -0.276 OA
ATOM     17  H   LIG d   1      -2.351  76.047 117.406  0.00  0.00     0.149 HD
ENDBRANCH   6  13
BRANCH   5  18
ATOM     18  N   LIG d   1       0.366  77.575 116.072  0.00  0.00     0.381 N 
ATOM     19  H   LIG d   1       0.620  76.636 115.834  0.00  0.00    -0.090 HD
ATOM     20  H   LIG d   1       0.461  77.685 117.066  0.00  0.00    -0.090 HD
ATOM     21  H   LIG d   1       0.964  78.217 115.601  0.00  0.00    -0.090 HD
ENDBRANCH   5  18
BRANCH   3  22
ATOM     22  C   LIG d   1      -2.558  80.103 113.245  0.00  0.00     0.382 C 
ATOM     23  O   LIG d   1      -1.658  80.973 113.162  0.00  0.00    -0.241 OA
ATOM     24  O   LIG d   1      -3.683  80.336 112.764  0.00  0.00    -0.241 OA
ENDBRANCH   3  22
TORSDOF 7
ENDMDL
MODEL 4
REMARK VINA RESULT:      -5.2      2.227      4.769
REMARK  7 active torsions:
REMARK  status: ('A' for Active; 'I' for Inactive)
REMARK    1  A    between atoms: C_2  and  C_3 
REMARK    2  A    between atoms: C_3  and  O_6 
REMARK    3  A    between atoms: C_3  and  C_4 
REMARK    4  A    between atoms: C_7  and  O_6 
REMARK    5  A    between atoms: C_9  and  C_10 
REMARK    6  A    between atoms: N_15  and  C_14 
REMARK    7  A    between atoms: N_20  and  C_19 
REMARK       I    between atoms: C_22  and  N_20 
ROOT
ATOM      1  C   LIG d   1      -4.647  91.678 118.235  0.00  0.00     0.161 C 
ATOM      2  C   LIG d   1      -4.975  90.901 117.112  0.00  0.00     0.016 C 
ATOM      3  C   LIG d   1      -6.136  91.110 116.333  0.00  0.00     0.038 C 
ATOM      4  C   LIG d   1      -6.975  92.216 116.535  0.00  0.00     0.028 C 
ATOM      5  C   LIG d   1      -6.959  92.734 117.969  0.00  0.00    -0.047 C 
ATOM      6  C   LIG d   1      -5.493  92.958 118.405  0.00  0.00     0.091 C 
ENDROOT
BRANCH   1   7
ATOM      7  O   LIG d   1      -3.243  92.005 118.210  0.00  0.00    -0.368 OA
BRANCH   7   8
ATOM      8  C   LIG d   1      -2.335  90.900 117.982  0.00  0.00     0.119 C 
BRANCH   8   9
ATOM      9  C   LIG d   1      -2.448  89.952 119.192  0.00  0.00     0.028 C 
ATOM     10  C   LIG d   1      -2.424  88.470 118.782  0.00  0.00     0.006 C 
ENDBRANCH   8   9
BRANCH   8  11
ATOM     11  C   LIG d   1      -0.878  91.369 117.969  0.00  0.00     0.028 C 
ATOM     12  C   LIG d   1      -0.745  92.900 117.978  0.00  0.00     0.006 C 
ENDBRANCH   8  11
ENDBRANCH   7   8
ENDBRANCH   1   7
BRANCH   6  13
ATOM     13  N   LIG d   1      -5.382  93.385 119.824  0.00  0.00    -0.311 N 
ATOM     14  C   LIG d   1      -5.370  94.660 120.207  0.00  0.00     0.210 C 
ATOM     15  C   LIG d   1      -5.228  94.881 121.717  0.00  0.00     0.109 C 
ATOM     16  O   LIG d   1      -5.497  95.629 119.444  0.00  0.00    -0.276 OA
ATOM     17  H   LIG d   1      -5.307  92.662 120.513  0.00  0.00     0.149 HD
ENDBRANCH   6  13
BRANCH   5  18
ATOM     18  N   LIG d   1      -7.768  93.967 118.007  0.00  0.00     0.381 N 
ATOM     19  H   LIG d   1      -8.060  94.208 117.082  0.00  0.00    -0.090 HD
ATOM     20  H   LIG d   1      -7.202  94.716 118.365  0.00  0.00    -0.090 HD
ATOM     21  H   LIG d   1      -8.564  93.834 118.591  0.00  0.00    -0.090 HD
ENDBRANCH   5  18
BRANCH   3  22
ATOM     22  C   LIG d   1      -6.488  90.185 115.362  0.00  0.00     0.382 C 
ATOM     23  O   LIG d   1      -5.744  89.200 115.135  0.00  0.00    -0.241 OA
ATOM     24  O   LIG d   1      -7.518  90.346 114.680  0.00  0.00    -0.241 OA
ENDBRANCH   3  22
TORSDOF 7
ENDMDL
MODEL 5
REMARK VINA RESULT:      -5.2     16.373     17.629
REMARK  7 active torsions:
REMARK  status: ('A' for Active; 'I' for Inactive)
REMARK    1  A    between atoms: C_2  and  C_3 
REMARK    2  A    between atoms: C_3  and  O_6 
REMARK    3  A    between atoms: C_3  and  C_4 
REMARK    4  A    between atoms: C_7  and  O_6 
REMARK    5  A    between atoms: C_9  and  C_10 
REMARK    6  A    between atoms: N_15  and  C_14 
REMARK    7  A    between atoms: N_20  and  C_19 
REMARK       I    between atoms: C_22  and  N_20 
ROOT
ATOM      1  C   LIG d   1      -3.600  75.979 115.665  0.00  0.00     0.161 C 
ATOM      2  C   LIG d   1      -3.952  76.580 114.444  0.00  0.00     0.016 C 
ATOM      3  C   LIG d   1      -3.004  77.083 113.523  0.00  0.00     0.038 C 
ATOM      4  C   LIG d   1      -1.626  76.881 113.693  0.00  0.00     0.028 C 
ATOM      5  C   LIG d   1      -1.211  76.727 115.152  0.00  0.00    -0.047 C 
ATOM      6  C   LIG d   1      -2.100  75.651 115.815  0.00  0.00     0.091 C 
ENDROOT
BRANCH   1   7
ATOM      7  O   LIG d   1      -4.396  74.796 115.873  0.00  0.00    -0.368 OA
BRANCH   7   8
ATOM      8  C   LIG d   1      -5.157  74.749 117.105  0.00  0.00     0.119 C 
BRANCH   8   9
ATOM      9  C   LIG d   1      -6.539  74.154 116.773  0.00  0.00     0.028 C 
ATOM     10  C   LIG d   1      -6.472  72.648 116.467  0.00  0.00     0.006 C 
ENDBRANCH   8   9
BRANCH   8  11
ATOM     11  C   LIG d   1      -5.439  76.156 117.641  0.00  0.00     0.028 C 
ATOM     12  C   LIG d   1      -4.926  76.361 119.075  0.00  0.00     0.006 C 
ENDBRANCH   8  11
ENDBRANCH   7   8
ENDBRANCH   1   7
BRANCH   6  13
ATOM     13  N   LIG d   1      -1.817  75.497 117.266  0.00  0.00    -0.311 N 
ATOM     14  C   LIG d   1      -1.575  74.323 117.846  0.00  0.00     0.210 C 
ATOM     15  C   LIG d   1      -1.327  74.386 119.356  0.00  0.00     0.109 C 
ATOM     16  O   LIG d   1      -1.510  73.239 117.247  0.00  0.00    -0.276 OA
ATOM     17  H   LIG d   1      -1.819  76.330 117.822  0.00  0.00     0.149 HD
ENDBRANCH   6  13
BRANCH   5  18
ATOM     18  N   LIG d   1       0.224  76.386 115.174  0.00  0.00     0.381 N 
ATOM     19  H   LIG d   1       0.713  76.938 114.497  0.00  0.00    -0.090 HD
ATOM     20  H   LIG d   1       0.331  75.418 114.929  0.00  0.00    -0.090 HD
ATOM     21  H   LIG d   1       0.599  76.551 116.082  0.00  0.00    -0.090 HD
ENDBRANCH   5  18
BRANCH   3  22
ATOM     22  C   LIG d   1      -3.432  77.832 112.437  0.00  0.00     0.382 C 
ATOM     23  O   LIG d   1      -4.559  77.614 111.930  0.00  0.00    -0.241 OA
ATOM     24  O   LIG d   1      -2.687  78.691 111.930  0.00  0.00    -0.241 OA
ENDBRANCH   3  22
TORSDOF 7
ENDMDL
MODEL 6
REMARK VINA RESULT:      -5.1     13.859     15.672
REMARK  7 active torsions:
REMARK  status: ('A' for Active; 'I' for Inactive)
REMARK    1  A    between atoms: C_2  and  C_3 
REMARK    2  A    between atoms: C_3  and  O_6 
REMARK    3  A    between atoms: C_3  and  C_4 
REMARK    4  A    between atoms: C_7  and  O_6 
REMARK    5  A    between atoms: C_9  and  C_10 
REMARK    6  A    between atoms: N_15  and  C_14 
REMARK    7  A    between atoms: N_20  and  C_19 
REMARK       I    between atoms: C_22  and  N_20 
ROOT
ATOM      1  C   LIG d   1      -3.351  78.302 115.359  0.00  0.00     0.161 C 
ATOM      2  C   LIG d   1      -3.345  79.495 114.617  0.00  0.00     0.016 C 
ATOM      3  C   LIG d   1      -2.636  79.654 113.404  0.00  0.00     0.038 C 
ATOM      4  C   LIG d   1      -2.004  78.575 112.769  0.00  0.00     0.028 C 
ATOM      5  C   LIG d   1      -1.561  77.479 113.733  0.00  0.00    -0.047 C 
ATOM      6  C   LIG d   1      -2.758  77.081 114.625  0.00  0.00     0.091 C 
ENDROOT
BRANCH   1   7
ATOM      7  O   LIG d   1      -4.690  78.015 115.810  0.00  0.00    -0.368 OA
BRANCH   7   8
ATOM      8  C   LIG d   1      -5.138  78.742 116.980  0.00  0.00     0.119 C 
BRANCH   8   9
ATOM      9  C   LIG d   1      -4.325  78.227 118.184  0.00  0.00     0.028 C 
ATOM     10  C   LIG d   1      -3.627  79.364 118.950  0.00  0.00     0.006 C 
ENDBRANCH   8   9
BRANCH   8  11
ATOM     11  C   LIG d   1      -6.599  78.420 117.310  0.00  0.00     0.028 C 
ATOM     12  C   LIG d   1      -7.039  77.043 116.788  0.00  0.00     0.006 C 
ENDBRANCH   8  11
ENDBRANCH   7   8
ENDBRANCH   1   7
BRANCH   6  13
ATOM     13  N   LIG d   1      -2.389  76.074 115.654  0.00  0.00    -0.311 N 
ATOM     14  C   LIG d   1      -3.079  74.955 115.865  0.00  0.00     0.210 C 
ATOM     15  C   LIG d   1      -2.538  74.063 116.987  0.00  0.00     0.109 C 
ATOM     16  O   LIG d   1      -4.069  74.600 115.208  0.00  0.00    -0.276 OA
ATOM     17  H   LIG d   1      -1.580  76.267 116.211  0.00  0.00     0.149 HD
ENDBRANCH   6  13
BRANCH   5  18
ATOM     18  N   LIG d   1      -1.043  76.358 112.926  0.00  0.00     0.381 N 
ATOM     19  H   LIG d   1      -1.806  75.851 112.522  0.00  0.00    -0.090 HD
ATOM     20  H   LIG d   1      -0.532  75.735 113.525  0.00  0.00    -0.090 HD
ATOM     21  H   LIG d   1      -0.446  76.703 112.206  0.00  0.00    -0.090 HD
ENDBRANCH   5  18
BRANCH   3  22
ATOM     22  C   LIG d   1      -2.522  80.912 112.834  0.00  0.00     0.382 C 
ATOM     23  O   LIG d   1      -3.457  81.741 112.952  0.00  0.00    -0.241 OA
ATOM     24  O   LIG d   1      -1.515  81.214 112.166  0.00  0.00    -0.241 OA
ENDBRANCH   3  22
TORSDOF 7
ENDMDL
MODEL 7
REMARK VINA RESULT:      -4.9     14.702     17.443
REMARK  7 active torsions:
REMARK  status: ('A' for Active; 'I' for Inactive)
REMARK    1  A    between atoms: C_2  and  C_3 
REMARK    2  A    between atoms: C_3  and  O_6 
REMARK    3  A    between atoms: C_3  and  C_4 
REMARK    4  A    between atoms: C_7  and  O_6 
REMARK    5  A    between atoms: C_9  and  C_10 
REMARK    6  A    between atoms: N_15  and  C_14 
REMARK    7  A    between atoms: N_20  and  C_19 
REMARK       I    between atoms: C_22  and  N_20 
ROOT
ATOM      1  C   LIG d   1      -4.088  75.994 116.095  0.00  0.00     0.161 C 
ATOM      2  C   LIG d   1      -3.149  75.029 115.694  0.00  0.00     0.016 C 
ATOM      3  C   LIG d   1      -1.753  75.190 115.848  0.00  0.00     0.038 C 
ATOM      4  C   LIG d   1      -1.205  76.269 116.557  0.00  0.00     0.028 C 
ATOM      5  C   LIG d   1      -2.083  77.516 116.536  0.00  0.00    -0.047 C 
ATOM      6  C   LIG d   1      -3.515  77.128 116.970  0.00  0.00     0.091 C 
ENDROOT
BRANCH   1   7
ATOM      7  O   LIG d   1      -5.192  75.353 116.764  0.00  0.00    -0.368 OA
BRANCH   7   8
ATOM      8  C   LIG d   1      -5.979  74.438 115.962  0.00  0.00     0.119 C 
BRANCH   8   9
ATOM      9  C   LIG d   1      -7.024  75.274 115.199  0.00  0.00     0.028 C 
ATOM     10  C   LIG d   1      -8.113  75.840 116.125  0.00  0.00     0.006 C 
ENDBRANCH   8   9
BRANCH   8  11
ATOM     11  C   LIG d   1      -6.789  73.481 116.842  0.00  0.00     0.028 C 
ATOM     12  C   LIG d   1      -6.677  72.017 116.389  0.00  0.00     0.006 C 
ENDBRANCH   8  11
ENDBRANCH   7   8
ENDBRANCH   1   7
BRANCH   6  13
ATOM     13  N   LIG d   1      -4.460  78.273 116.897  0.00  0.00    -0.311 N 
ATOM     14  C   LIG d   1      -5.135  78.735 117.948  0.00  0.00     0.210 C 
ATOM     15  C   LIG d   1      -6.071  79.911 117.649  0.00  0.00     0.109 C 
ATOM     16  O   LIG d   1      -5.023  78.304 119.105  0.00  0.00    -0.276 OA
ATOM     17  H   LIG d   1      -4.587  78.702 116.001  0.00  0.00     0.149 HD
ENDBRANCH   6  13
BRANCH   5  18
ATOM     18  N   LIG d   1      -1.460  78.515 117.424  0.00  0.00     0.381 N 
ATOM     19  H   LIG d   1      -1.921  78.513 118.312  0.00  0.00    -0.090 HD
ATOM     20  H   LIG d   1      -1.569  79.426 117.015  0.00  0.00    -0.090 HD
ATOM     21  H   LIG d   1      -0.493  78.309 117.544  0.00  0.00    -0.090 HD
ENDBRANCH   5  18
BRANCH   3  22
ATOM     22  C   LIG d   1      -0.887  74.284 115.255  0.00  0.00     0.382 C 
ATOM     23  O   LIG d   1      -0.541  74.438 114.058  0.00  0.00    -0.241 OA
ATOM     24  O   LIG d   1      -0.481  73.291 115.887  0.00  0.00    -0.241 OA
ENDBRANCH   3  22
TORSDOF 7
ENDMDL
MODEL 8
REMARK VINA RESULT:      -4.9     13.196     15.963
REMARK  7 active torsions:
REMARK  status: ('A' for Active; 'I' for Inactive)
REMARK    1  A    between atoms: C_2  and  C_3 
REMARK    2  A    between atoms: C_3  and  O_6 
REMARK    3  A    between atoms: C_3  and  C_4 
REMARK    4  A    between atoms: C_7  and  O_6 
REMARK    5  A    between atoms: C_9  and  C_10 
REMARK    6  A    between atoms: N_15  and  C_14 
REMARK    7  A    between atoms: N_20  and  C_19 
REMARK       I    between atoms: C_22  and  N_20 
ROOT
ATOM      1  C   LIG d   1      -6.497  77.202 117.400  0.00  0.00     0.161 C 
ATOM      2  C   LIG d   1      -7.797  77.730 117.478  0.00  0.00     0.016 C 
ATOM      3  C   LIG d   1      -8.095  78.979 118.070  0.00  0.00     0.038 C 
ATOM      4  C   LIG d   1      -7.087  79.858 118.492  0.00  0.00     0.028 C 
ATOM      5  C   LIG d   1      -5.796  79.153 118.894  0.00  0.00    -0.047 C 
ATOM      6  C   LIG d   1      -5.372  78.196 117.755  0.00  0.00     0.091 C 
ENDROOT
BRANCH   1   7
ATOM      7  O   LIG d   1      -6.275  76.642 116.091  0.00  0.00    -0.368 OA
BRANCH   7   8
ATOM      8  C   LIG d   1      -5.888  75.246 116.052  0.00  0.00     0.119 C 
BRANCH   8   9
ATOM      9  C   LIG d   1      -5.996  74.776 114.588  0.00  0.00     0.028 C 
ATOM     10  C   LIG d   1      -6.727  75.794 113.697  0.00  0.00     0.006 C 
ENDBRANCH   8   9
BRANCH   8  11
ATOM     11  C   LIG d   1      -6.875  74.372 116.832  0.00  0.00     0.028 C 
ATOM     12  C   LIG d   1      -6.531  72.876 116.760  0.00  0.00     0.006 C 
ENDBRANCH   8  11
ENDBRANCH   7   8
ENDBRANCH   1   7
BRANCH   6  13
ATOM     13  N   LIG d   1      -4.164  77.404 118.102  0.00  0.00    -0.311 N 
ATOM     14  C   LIG d   1      -2.929  77.760 117.753  0.00  0.00     0.210 C 
ATOM     15  C   LIG d   1      -1.827  76.791 118.194  0.00  0.00     0.109 C 
ATOM     16  O   LIG d   1      -2.637  78.804 117.150  0.00  0.00    -0.276 OA
ATOM     17  H   LIG d   1      -4.306  76.558 118.618  0.00  0.00     0.149 HD
ENDBRANCH   6  13
BRANCH   5  18
ATOM     18  N   LIG d   1      -4.790  80.193 119.179  0.00  0.00     0.381 N 
ATOM     19  H   LIG d   1      -5.240  81.010 119.541  0.00  0.00    -0.090 HD
ATOM     20  H   LIG d   1      -4.327  80.442 118.323  0.00  0.00    -0.090 HD
ATOM     21  H   LIG d   1      -4.125  79.852 119.838  0.00  0.00    -0.090 HD
ENDBRANCH   5  18
BRANCH   3  22
ATOM     22  C   LIG d   1      -9.416  79.341 118.281  0.00  0.00     0.382 C 
ATOM     23  O   LIG d   1      -9.748  80.551 118.243  0.00  0.00    -0.241 OA
ATOM     24  O   LIG d   1     -10.273  78.478 118.552  0.00  0.00    -0.241 OA
ENDBRANCH   3  22
TORSDOF 7
ENDMDL
MODEL 9
REMARK VINA RESULT:      -4.8      2.533      6.309
REMARK  7 active torsions:
REMARK  status: ('A' for Active; 'I' for Inactive)
REMARK    1  A    between atoms: C_2  and  C_3 
REMARK    2  A    between atoms: C_3  and  O_6 
REMARK    3  A    between atoms: C_3  and  C_4 
REMARK    4  A    between atoms: C_7  and  O_6 
REMARK    5  A    between atoms: C_9  and  C_10 
REMARK    6  A    between atoms: N_15  and  C_14 
REMARK    7  A    between atoms: N_20  and  C_19 
REMARK       I    between atoms: C_22  and  N_20 
ROOT
ATOM      1  C   LIG d   1      -5.141  93.667 119.256  0.00  0.00     0.161 C 
ATOM      2  C   LIG d   1      -5.120  94.427 120.437  0.00  0.00     0.016 C 
ATOM      3  C   LIG d   1      -6.204  95.228 120.866  0.00  0.00     0.038 C 
ATOM      4  C   LIG d   1      -7.446  95.205 120.215  0.00  0.00     0.028 C 
ATOM      5  C   LIG d   1      -7.349  94.844 118.737  0.00  0.00    -0.047 C 
ATOM      6  C   LIG d   1      -6.527  93.542 118.591  0.00  0.00     0.091 C 
ENDROOT
BRANCH   1   7
ATOM      7  O   LIG d   1      -4.585  92.361 119.506  0.00  0.00    -0.368 OA
BRANCH   7   8
ATOM      8  C   LIG d   1      -3.143  92.254 119.417  0.00  0.00     0.119 C 
BRANCH   8   9
ATOM      9  C   LIG d   1      -2.807  91.645 118.042  0.00  0.00     0.028 C 
ATOM     10  C   LIG d   1      -3.747  90.486 117.668  0.00  0.00     0.006 C 
ENDBRANCH   8   9
BRANCH   8  11
ATOM     11  C   LIG d   1      -2.594  91.260 120.445  0.00  0.00     0.028 C 
ATOM     12  C   LIG d   1      -1.121  91.522 120.799  0.00  0.00     0.006 C 
ENDBRANCH   8  11
ENDBRANCH   7   8
ENDBRANCH   1   7
BRANCH   6  13
ATOM     13  N   LIG d   1      -6.312  93.164 117.170  0.00  0.00    -0.311 N 
ATOM     14  C   LIG d   1      -6.803  92.052 116.625  0.00  0.00     0.210 C 
ATOM     15  C   LIG d   1      -6.447  91.843 115.150  0.00  0.00     0.109 C 
ATOM     16  O   LIG d   1      -7.527  91.235 117.215  0.00  0.00    -0.276 OA
ATOM     17  H   LIG d   1      -5.762  93.786 116.611  0.00  0.00     0.149 HD
ENDBRANCH   6  13
BRANCH   5  18
ATOM     18  N   LIG d   1      -8.723  94.721 118.216  0.00  0.00     0.381 N 
ATOM     19  H   LIG d   1      -8.787  95.164 117.321  0.00  0.00    -0.090 HD
ATOM     20  H   LIG d   1      -9.352  95.189 118.845  0.00  0.00    -0.090 HD
ATOM     21  H   LIG d   1      -8.974  93.760 118.138  0.00  0.00    -0.090 HD
ENDBRANCH   5  18
BRANCH   3  22
ATOM     22  C   LIG d   1      -6.037  96.095 121.935  0.00  0.00     0.382 C 
ATOM     23  O   LIG d   1      -7.018  96.735 122.383  0.00  0.00    -0.241 OA
ATOM     24  O   LIG d   1      -4.908  96.278 122.430  0.00  0.00    -0.241 OA
ENDBRANCH   3  22
TORSDOF 7
ENDMDL
