MODEL 1
REMARK VINA RESULT:      -5.5      0.000      0.000
REMARK  7 active torsions:
REMARK  status: ('A' for Active; 'I' for Inactive)
REMARK    1  A    between atoms: C_2  and  C_3 
REMARK    2  A    between atoms: C_3  and  O_6 
REMARK    3  A    between atoms: C_3  and  C_4 
REMARK    4  A    between atoms: C_7  and  O_6 
REMARK    5  A    between atoms: C_9  and  C_10 
REMARK    6  A    between atoms: N_15  and  C_14 
REMARK    7  A    between atoms: N_20  and  C_19 
REMARK       I    between atoms: C_22  and  N_20 
ROOT
ATOM      1  C   LIG d   1      -5.225  93.043 117.302  0.00  0.00     0.161 C 
ATOM      2  C   LIG d   1      -5.661  94.249 117.877  0.00  0.00     0.016 C 
ATOM      3  C   LIG d   1      -6.877  94.881 117.530  0.00  0.00     0.038 C 
ATOM      4  C   LIG d   1      -7.818  94.269 116.689  0.00  0.00     0.028 C 
ATOM      5  C   LIG d   1      -7.197  93.292 115.696  0.00  0.00    -0.047 C 
ATOM      6  C   LIG d   1      -6.289  92.304 116.465  0.00  0.00     0.091 C 
ENDROOT
BRANCH   1   7
ATOM      7  O   LIG d   1      -4.701  92.175 118.326  0.00  0.00    -0.368 OA
BRANCH   7   8
ATOM      8  C   LIG d   1      -3.356  91.679 118.114  0.00  0.00     0.119 C 
BRANCH   8   9
ATOM      9  C   LIG d   1      -3.326  90.210 118.580  0.00  0.00     0.028 C 
ATOM     10  C   LIG d   1      -2.505  89.313 117.639  0.00  0.00     0.006 C 
ENDBRANCH   8   9
BRANCH   8  11
ATOM     11  C   LIG d   1      -2.346  92.408 119.006  0.00  0.00     0.028 C 
ATOM     12  C   LIG d   1      -1.439  93.365 118.218  0.00  0.00     0.006 C 
ENDBRANCH   8  11
ENDBRANCH   7   8
ENDBRANCH   1   7
BRANCH   6  13
ATOM     13  N   LIG d   1      -5.577  91.366 115.558  0.00  0.00    -0.311 N 
ATOM     14  C   LIG d   1      -5.645  90.041 115.674  0.00  0.00     0.210 C 
ATOM     15  C   LIG d   1      -4.818  89.259 114.648  0.00  0.00     0.109 C 
ATOM     16  O   LIG d   1      -6.337  89.438 116.508  0.00  0.00    -0.276 OA
ATOM     17  H   LIG d   1      -5.017  91.770 114.833  0.00  0.00     0.149 HD
ENDBRANCH   6  13
BRANCH   5  18
ATOM     18  N   LIG d   1      -8.300  92.625 114.979  0.00  0.00     0.381 N 
ATOM     19  H   LIG d   1      -8.014  91.709 114.694  0.00  0.00    -0.090 HD
ATOM     20  H   LIG d   1      -8.521  93.157 114.155  0.00  0.00    -0.090 HD
ATOM     21  H   LIG d   1      -9.101  92.562 115.567  0.00  0.00    -0.090 HD
ENDBRANCH   5  18
BRANCH   3  22
ATOM     22  C   LIG d   1      -7.144  96.159 117.996  0.00  0.00     0.382 C 
ATOM     23  O   LIG d   1      -7.381  96.346 119.214  0.00  0.00    -0.241 OA
ATOM     24  O   LIG d   1      -7.194  97.122 117.207  0.00  0.00    -0.241 OA
ENDBRANCH   3  22
TORSDOF 7
ENDMDL
MODEL 2
REMARK VINA RESULT:      -5.4     32.748     34.084
REMARK  7 active torsions:
REMARK  status: ('A' for Active; 'I' for Inactive)
REMARK    1  A    between atoms: C_2  and  C_3 
REMARK    2  A    between atoms: C_3  and  O_6 
REMARK    3  A    between atoms: C_3  and  C_4 
REMARK    4  A    between atoms: C_7  and  O_6 
REMARK    5  A    between atoms: C_9  and  C_10 
REMARK    6  A    between atoms: N_15  and  C_14 
REMARK    7  A    between atoms: N_20  and  C_19 
REMARK       I    between atoms: C_22  and  N_20 
ROOT
ATOM      1  C   LIG d   1      -2.233  58.923 118.245  0.00  0.00     0.161 C 
ATOM      2  C   LIG d   1      -3.390  58.660 117.494  0.00  0.00     0.016 C 
ATOM      3  C   LIG d   1      -4.700  58.880 117.979  0.00  0.00     0.038 C 
ATOM      4  C   LIG d   1      -4.939  59.524 119.202  0.00  0.00     0.028 C 
ATOM      5  C   LIG d   1      -3.809  59.348 120.211  0.00  0.00    -0.047 C 
ATOM      6  C   LIG d   1      -2.471  59.731 119.538  0.00  0.00     0.091 C 
ENDROOT
BRANCH   1   7
ATOM      7  O   LIG d   1      -1.253  59.580 117.417  0.00  0.00    -0.368 OA
BRANCH   7   8
ATOM      8  C   LIG d   1      -0.157  58.755 116.951  0.00  0.00     0.119 C 
BRANCH   8   9
ATOM      9  C   LIG d   1      -0.349  58.542 115.437  0.00  0.00     0.028 C 
ATOM     10  C   LIG d   1       0.640  59.369 114.597  0.00  0.00     0.006 C 
ENDBRANCH   8   9
BRANCH   8  11
ATOM     11  C   LIG d   1      -0.212  57.355 117.568  0.00  0.00     0.028 C 
ATOM     12  C   LIG d   1      -0.294  56.241 116.511  0.00  0.00     0.006 C 
ENDBRANCH   8  11
ENDBRANCH   7   8
ENDBRANCH   1   7
BRANCH   6  13
ATOM     13  N   LIG d   1      -1.303  59.506 120.430  0.00  0.00    -0.311 N 
ATOM     14  C   LIG d   1      -0.841  60.424 121.277  0.00  0.00     0.210 C 
ATOM     15  C   LIG d   1       0.385  59.995 122.089  0.00  0.00     0.109 C 
ATOM     16  O   LIG d   1      -1.349  61.541 121.456  0.00  0.00    -0.276 OA
ATOM     17  H   LIG d   1      -0.850  58.616 120.372  0.00  0.00     0.149 HD
ENDBRANCH   6  13
BRANCH   5  18
ATOM     18  N   LIG d   1      -4.125  60.183 121.385  0.00  0.00     0.381 N 
ATOM     19  H   LIG d   1      -5.117  60.292 121.465  0.00  0.00    -0.090 HD
ATOM     20  H   LIG d   1      -3.717  61.092 121.257  0.00  0.00    -0.090 HD
ATOM     21  H   LIG d   1      -3.763  59.760 122.211  0.00  0.00    -0.090 HD
ENDBRANCH   5  18
BRANCH   3  22
ATOM     22  C   LIG d   1      -5.788  58.416 117.256  0.00  0.00     0.382 C 
ATOM     23  O   LIG d   1      -6.153  57.221 117.369  0.00  0.00    -0.241 OA
ATOM     24  O   LIG d   1      -6.382  59.165 116.458  0.00  0.00    -0.241 OA
ENDBRANCH   3  22
TORSDOF 7
ENDMDL
MODEL 3
REMARK VINA RESULT:      -5.4      2.203      4.010
REMARK  7 active torsions:
REMARK  status: ('A' for Active; 'I' for Inactive)
REMARK    1  A    between atoms: C_2  and  C_3 
REMARK    2  A    between atoms: C_3  and  O_6 
REMARK    3  A    between atoms: C_3  and  C_4 
REMARK    4  A    between atoms: C_7  and  O_6 
REMARK    5  A    between atoms: C_9  and  C_10 
REMARK    6  A    between atoms: N_15  and  C_14 
REMARK    7  A    between atoms: N_20  and  C_19 
REMARK       I    between atoms: C_22  and  N_20 
ROOT
ATOM      1  C   LIG d   1      -5.617  92.902 116.941  0.00  0.00     0.161 C 
ATOM      2  C   LIG d   1      -6.868  93.351 117.394  0.00  0.00     0.016 C 
ATOM      3  C   LIG d   1      -7.026  94.382 118.349  0.00  0.00     0.038 C 
ATOM      4  C   LIG d   1      -5.938  95.141 118.806  0.00  0.00     0.028 C 
ATOM      5  C   LIG d   1      -4.612  94.390 118.759  0.00  0.00    -0.047 C 
ATOM      6  C   LIG d   1      -4.424  93.793 117.345  0.00  0.00     0.091 C 
ENDROOT
BRANCH   1   7
ATOM      7  O   LIG d   1      -5.649  92.727 115.510  0.00  0.00    -0.368 OA
BRANCH   7   8
ATOM      8  C   LIG d   1      -5.761  91.362 115.038  0.00  0.00     0.119 C 
BRANCH   8   9
ATOM      9  C   LIG d   1      -7.210  91.156 114.555  0.00  0.00     0.028 C 
ATOM     10  C   LIG d   1      -7.884  89.944 115.219  0.00  0.00     0.006 C 
ENDBRANCH   8   9
BRANCH   8  11
ATOM     11  C   LIG d   1      -5.568  90.359 116.179  0.00  0.00     0.028 C 
ATOM     12  C   LIG d   1      -4.376  89.417 115.950  0.00  0.00     0.006 C 
ENDBRANCH   8  11
ENDBRANCH   7   8
ENDBRANCH   1   7
BRANCH   6  13
ATOM     13  N   LIG d   1      -3.191  92.971 117.237  0.00  0.00    -0.311 N 
ATOM     14  C   LIG d   1      -2.901  91.971 118.068  0.00  0.00     0.210 C 
ATOM     15  C   LIG d   1      -1.570  91.266 117.791  0.00  0.00     0.109 C 
ATOM     16  O   LIG d   1      -3.635  91.581 118.988  0.00  0.00    -0.276 OA
ATOM     17  H   LIG d   1      -2.554  93.199 116.499  0.00  0.00     0.149 HD
ENDBRANCH   6  13
BRANCH   5  18
ATOM     18  N   LIG d   1      -3.548  95.341 119.131  0.00  0.00     0.381 N 
ATOM     19  H   LIG d   1      -3.036  95.613 118.316  0.00  0.00    -0.090 HD
ATOM     20  H   LIG d   1      -2.913  94.887 119.765  0.00  0.00    -0.090 HD
ATOM     21  H   LIG d   1      -3.945  96.144 119.566  0.00  0.00    -0.090 HD
ENDBRANCH   5  18
BRANCH   3  22
ATOM     22  C   LIG d   1      -8.278  94.635 118.886  0.00  0.00     0.382 C 
ATOM     23  O   LIG d   1      -9.240  93.873 118.623  0.00  0.00    -0.241 OA
ATOM     24  O   LIG d   1      -8.470  95.641 119.595  0.00  0.00    -0.241 OA
ENDBRANCH   3  22
TORSDOF 7
ENDMDL
MODEL 4
REMARK VINA RESULT:      -5.4     32.466     34.221
REMARK  7 active torsions:
REMARK  status: ('A' for Active; 'I' for Inactive)
REMARK    1  A    between atoms: C_2  and  C_3 
REMARK    2  A    between atoms: C_3  and  O_6 
REMARK    3  A    between atoms: C_3  and  C_4 
REMARK    4  A    between atoms: C_7  and  O_6 
REMARK    5  A    between atoms: C_9  and  C_10 
REMARK    6  A    between atoms: N_15  and  C_14 
REMARK    7  A    between atoms: N_20  and  C_19 
REMARK       I    between atoms: C_22  and  N_20 
ROOT
ATOM      1  C   LIG d   1      -2.306  58.690 118.599  0.00  0.00     0.161 C 
ATOM      2  C   LIG d   1      -2.073  58.572 117.219  0.00  0.00     0.016 C 
ATOM      3  C   LIG d   1      -0.793  58.705 116.632  0.00  0.00     0.038 C 
ATOM      4  C   LIG d   1       0.370  58.815 117.407  0.00  0.00     0.028 C 
ATOM      5  C   LIG d   1       0.129  59.444 118.776  0.00  0.00    -0.047 C 
ATOM      6  C   LIG d   1      -1.033  58.700 119.472  0.00  0.00     0.091 C 
ENDROOT
BRANCH   1   7
ATOM      7  O   LIG d   1      -3.203  57.649 119.034  0.00  0.00    -0.368 OA
BRANCH   7   8
ATOM      8  C   LIG d   1      -4.612  57.987 119.048  0.00  0.00     0.119 C 
BRANCH   8   9
ATOM      9  C   LIG d   1      -5.166  57.718 117.635  0.00  0.00     0.028 C 
ATOM     10  C   LIG d   1      -5.871  58.948 117.038  0.00  0.00     0.006 C 
ENDBRANCH   8   9
BRANCH   8  11
ATOM     11  C   LIG d   1      -4.824  59.484 119.289  0.00  0.00     0.028 C 
ATOM     12  C   LIG d   1      -5.189  59.807 120.746  0.00  0.00     0.006 C 
ENDBRANCH   8  11
ENDBRANCH   7   8
ENDBRANCH   1   7
BRANCH   6  13
ATOM     13  N   LIG d   1      -1.390  59.305 120.781  0.00  0.00    -0.311 N 
ATOM     14  C   LIG d   1      -1.740  60.582 120.928  0.00  0.00     0.210 C 
ATOM     15  C   LIG d   1      -2.049  61.006 122.367  0.00  0.00     0.109 C 
ATOM     16  O   LIG d   1      -1.855  61.395 119.998  0.00  0.00    -0.276 OA
ATOM     17  H   LIG d   1      -1.354  58.708 121.585  0.00  0.00     0.149 HD
ENDBRANCH   6  13
BRANCH   5  18
ATOM     18  N   LIG d   1       1.396  59.371 119.529  0.00  0.00     0.381 N 
ATOM     19  H   LIG d   1       1.275  59.780 120.434  0.00  0.00    -0.090 HD
ATOM     20  H   LIG d   1       2.097  59.896 119.036  0.00  0.00    -0.090 HD
ATOM     21  H   LIG d   1       1.684  58.422 119.620  0.00  0.00    -0.090 HD
ENDBRANCH   5  18
BRANCH   3  22
ATOM     22  C   LIG d   1      -0.674  58.768 115.252  0.00  0.00     0.382 C 
ATOM     23  O   LIG d   1      -1.639  59.168 114.557  0.00  0.00    -0.241 OA
ATOM     24  O   LIG d   1       0.371  58.388 114.690  0.00  0.00    -0.241 OA
ENDBRANCH   3  22
TORSDOF 7
ENDMDL
MODEL 5
REMARK VINA RESULT:      -5.4     33.092     34.824
REMARK  7 active torsions:
REMARK  status: ('A' for Active; 'I' for Inactive)
REMARK    1  A    between atoms: C_2  and  C_3 
REMARK    2  A    between atoms: C_3  and  O_6 
REMARK    3  A    between atoms: C_3  and  C_4 
REMARK    4  A    between atoms: C_7  and  O_6 
REMARK    5  A    between atoms: C_9  and  C_10 
REMARK    6  A    between atoms: N_15  and  C_14 
REMARK    7  A    between atoms: N_20  and  C_19 
REMARK       I    between atoms: C_22  and  N_20 
ROOT
ATOM      1  C   LIG d   1      -2.185  59.386 118.281  0.00  0.00     0.161 C 
ATOM      2  C   LIG d   1      -0.965  58.916 117.766  0.00  0.00     0.016 C 
ATOM      3  C   LIG d   1      -0.070  58.106 118.502  0.00  0.00     0.038 C 
ATOM      4  C   LIG d   1      -0.405  57.584 119.760  0.00  0.00     0.028 C 
ATOM      5  C   LIG d   1      -1.406  58.443 120.525  0.00  0.00    -0.047 C 
ATOM      6  C   LIG d   1      -2.618  58.735 119.611  0.00  0.00     0.091 C 
ENDROOT
BRANCH   1   7
ATOM      7  O   LIG d   1      -3.222  59.242 117.291  0.00  0.00    -0.368 OA
BRANCH   7   8
ATOM      8  C   LIG d   1      -3.746  57.904 117.107  0.00  0.00     0.119 C 
BRANCH   8   9
ATOM      9  C   LIG d   1      -3.362  57.447 115.687  0.00  0.00     0.028 C 
ATOM     10  C   LIG d   1      -3.129  58.630 114.732  0.00  0.00     0.006 C 
ENDBRANCH   8   9
BRANCH   8  11
ATOM     11  C   LIG d   1      -5.278  57.897 117.135  0.00  0.00     0.028 C 
ATOM     12  C   LIG d   1      -5.881  59.310 117.092  0.00  0.00     0.006 C 
ENDBRANCH   8  11
ENDBRANCH   7   8
ENDBRANCH   1   7
BRANCH   6  13
ATOM     13  N   LIG d   1      -3.607  59.640 120.253  0.00  0.00    -0.311 N 
ATOM     14  C   LIG d   1      -4.639  59.205 120.974  0.00  0.00     0.210 C 
ATOM     15  C   LIG d   1      -5.549  60.305 121.531  0.00  0.00     0.109 C 
ATOM     16  O   LIG d   1      -4.869  58.014 121.233  0.00  0.00    -0.276 OA
ATOM     17  H   LIG d   1      -3.478  60.624 120.121  0.00  0.00     0.149 HD
ENDBRANCH   6  13
BRANCH   5  18
ATOM     18  N   LIG d   1      -1.771  57.714 121.754  0.00  0.00     0.381 N 
ATOM     19  H   LIG d   1      -1.187  58.011 122.510  0.00  0.00    -0.090 HD
ATOM     20  H   LIG d   1      -1.621  56.731 121.606  0.00  0.00    -0.090 HD
ATOM     21  H   LIG d   1      -2.728  57.881 121.978  0.00  0.00    -0.090 HD
ENDBRANCH   5  18
BRANCH   3  22
ATOM     22  C   LIG d   1       1.194  57.844 117.996  0.00  0.00     0.382 C 
ATOM     23  O   LIG d   1       1.843  56.854 118.411  0.00  0.00    -0.241 OA
ATOM     24  O   LIG d   1       1.712  58.611 117.161  0.00  0.00    -0.241 OA
ENDBRANCH   3  22
TORSDOF 7
ENDMDL
MODEL 6
REMARK VINA RESULT:      -5.3     32.334     34.254
REMARK  7 active torsions:
REMARK  status: ('A' for Active; 'I' for Inactive)
REMARK    1  A    between atoms: C_2  and  C_3 
REMARK    2  A    between atoms: C_3  and  O_6 
REMARK    3  A    between atoms: C_3  and  C_4 
REMARK    4  A    between atoms: C_7  and  O_6 
REMARK    5  A    between atoms: C_9  and  C_10 
REMARK    6  A    between atoms: N_15  and  C_14 
REMARK    7  A    between atoms: N_20  and  C_19 
REMARK       I    between atoms: C_22  and  N_20 
ROOT
ATOM      1  C   LIG d   1      -2.661  58.728 118.724  0.00  0.00     0.161 C 
ATOM      2  C   LIG d   1      -2.954  59.712 119.682  0.00  0.00     0.016 C 
ATOM      3  C   LIG d   1      -1.972  60.322 120.496  0.00  0.00     0.038 C 
ATOM      4  C   LIG d   1      -0.601  60.096 120.300  0.00  0.00     0.028 C 
ATOM      5  C   LIG d   1      -0.294  58.734 119.686  0.00  0.00    -0.047 C 
ATOM      6  C   LIG d   1      -1.160  58.549 118.418  0.00  0.00     0.091 C 
ENDROOT
BRANCH   1   7
ATOM      7  O   LIG d   1      -3.391  58.996 117.510  0.00  0.00    -0.368 OA
BRANCH   7   8
ATOM      8  C   LIG d   1      -4.244  57.927 117.030  0.00  0.00     0.119 C 
BRANCH   8   9
ATOM      9  C   LIG d   1      -3.735  57.520 115.634  0.00  0.00     0.028 C 
ATOM     10  C   LIG d   1      -3.083  58.692 114.882  0.00  0.00     0.006 C 
ENDBRANCH   8   9
BRANCH   8  11
ATOM     11  C   LIG d   1      -5.679  58.416 116.812  0.00  0.00     0.028 C 
ATOM     12  C   LIG d   1      -5.903  59.851 117.313  0.00  0.00     0.006 C 
ENDBRANCH   8  11
ENDBRANCH   7   8
ENDBRANCH   1   7
BRANCH   6  13
ATOM     13  N   LIG d   1      -0.983  57.207 117.803  0.00  0.00    -0.311 N 
ATOM     14  C   LIG d   1      -0.232  56.989 116.724  0.00  0.00     0.210 C 
ATOM     15  C   LIG d   1      -0.202  55.536 116.241  0.00  0.00     0.109 C 
ATOM     16  O   LIG d   1       0.437  57.855 116.141  0.00  0.00    -0.276 OA
ATOM     17  H   LIG d   1      -1.465  56.442 118.230  0.00  0.00     0.149 HD
ENDBRANCH   6  13
BRANCH   5  18
ATOM     18  N   LIG d   1       1.154  58.686 119.409  0.00  0.00     0.381 N 
ATOM     19  H   LIG d   1       1.637  58.301 120.196  0.00  0.00    -0.090 HD
ATOM     20  H   LIG d   1       1.488  59.622 119.262  0.00  0.00    -0.090 HD
ATOM     21  H   LIG d   1       1.328  58.132 118.600  0.00  0.00    -0.090 HD
ENDBRANCH   5  18
BRANCH   3  22
ATOM     22  C   LIG d   1      -2.361  61.139 121.546  0.00  0.00     0.382 C 
ATOM     23  O   LIG d   1      -1.510  61.845 122.140  0.00  0.00    -0.241 OA
ATOM     24  O   LIG d   1      -3.544  61.147 121.937  0.00  0.00    -0.241 OA
ENDBRANCH   3  22
TORSDOF 7
ENDMDL
MODEL 7
REMARK VINA RESULT:      -5.3      1.782      4.952
REMARK  7 active torsions:
REMARK  status: ('A' for Active; 'I' for Inactive)
REMARK    1  A    between atoms: C_2  and  C_3 
REMARK    2  A    between atoms: C_3  and  O_6 
REMARK    3  A    between atoms: C_3  and  C_4 
REMARK    4  A    between atoms: C_7  and  O_6 
REMARK    5  A    between atoms: C_9  and  C_10 
REMARK    6  A    between atoms: N_15  and  C_14 
REMARK    7  A    between atoms: N_20  and  C_19 
REMARK       I    between atoms: C_22  and  N_20 
ROOT
ATOM      1  C   LIG d   1      -5.273  91.548 118.024  0.00  0.00     0.161 C 
ATOM      2  C   LIG d   1      -4.529  90.519 117.423  0.00  0.00     0.016 C 
ATOM      3  C   LIG d   1      -4.821  89.993 116.144  0.00  0.00     0.038 C 
ATOM      4  C   LIG d   1      -5.791  90.568 115.309  0.00  0.00     0.028 C 
ATOM      5  C   LIG d   1      -6.902  91.280 116.073  0.00  0.00    -0.047 C 
ATOM      6  C   LIG d   1      -6.266  92.263 117.083  0.00  0.00     0.091 C 
ENDROOT
BRANCH   1   7
ATOM      7  O   LIG d   1      -4.383  92.505 118.632  0.00  0.00    -0.368 OA
BRANCH   7   8
ATOM      8  C   LIG d   1      -3.210  92.864 117.861  0.00  0.00     0.119 C 
BRANCH   8   9
ATOM      9  C   LIG d   1      -1.977  92.623 118.753  0.00  0.00     0.028 C 
ATOM     10  C   LIG d   1      -0.698  92.385 117.934  0.00  0.00     0.006 C 
ENDBRANCH   8   9
BRANCH   8  11
ATOM     11  C   LIG d   1      -3.192  94.361 117.540  0.00  0.00     0.028 C 
ATOM     12  C   LIG d   1      -3.820  95.217 118.651  0.00  0.00     0.006 C 
ENDBRANCH   8  11
ENDBRANCH   7   8
ENDBRANCH   1   7
BRANCH   6  13
ATOM     13  N   LIG d   1      -7.281  92.940 117.931  0.00  0.00    -0.311 N 
ATOM     14  C   LIG d   1      -7.526  94.248 117.877  0.00  0.00     0.210 C 
ATOM     15  C   LIG d   1      -8.599  94.745 118.852  0.00  0.00     0.109 C 
ATOM     16  O   LIG d   1      -6.980  95.039 117.093  0.00  0.00    -0.276 OA
ATOM     17  H   LIG d   1      -7.793  92.369 118.574  0.00  0.00     0.149 HD
ENDBRANCH   6  13
BRANCH   5  18
ATOM     18  N   LIG d   1      -7.766  91.948 115.082  0.00  0.00     0.381 N 
ATOM     19  H   LIG d   1      -8.682  92.078 115.464  0.00  0.00    -0.090 HD
ATOM     20  H   LIG d   1      -7.844  91.362 114.270  0.00  0.00    -0.090 HD
ATOM     21  H   LIG d   1      -7.377  92.829 114.829  0.00  0.00    -0.090 HD
ENDBRANCH   5  18
BRANCH   3  22
ATOM     22  C   LIG d   1      -4.164  88.854 115.703  0.00  0.00     0.382 C 
ATOM     23  O   LIG d   1      -3.288  88.317 116.423  0.00  0.00    -0.241 OA
ATOM     24  O   LIG d   1      -4.405  88.382 114.576  0.00  0.00    -0.241 OA
ENDBRANCH   3  22
TORSDOF 7
ENDMDL
MODEL 8
REMARK VINA RESULT:      -5.3      2.306      5.489
REMARK  7 active torsions:
REMARK  status: ('A' for Active; 'I' for Inactive)
REMARK    1  A    between atoms: C_2  and  C_3 
REMARK    2  A    between atoms: C_3  and  O_6 
REMARK    3  A    between atoms: C_3  and  C_4 
REMARK    4  A    between atoms: C_7  and  O_6 
REMARK    5  A    between atoms: C_9  and  C_10 
REMARK    6  A    between atoms: N_15  and  C_14 
REMARK    7  A    between atoms: N_20  and  C_19 
REMARK       I    between atoms: C_22  and  N_20 
ROOT
ATOM      1  C   LIG d   1      -5.540  92.809 117.214  0.00  0.00     0.161 C 
ATOM      2  C   LIG d   1      -6.574  91.957 116.794  0.00  0.00     0.016 C 
ATOM      3  C   LIG d   1      -6.369  90.609 116.421  0.00  0.00     0.038 C 
ATOM      4  C   LIG d   1      -5.130  89.974 116.590  0.00  0.00     0.028 C 
ATOM      5  C   LIG d   1      -3.945  90.932 116.533  0.00  0.00    -0.047 C 
ATOM      6  C   LIG d   1      -4.200  92.103 117.510  0.00  0.00     0.091 C 
ENDROOT
BRANCH   1   7
ATOM      7  O   LIG d   1      -5.969  93.571 118.360  0.00  0.00    -0.368 OA
BRANCH   7   8
ATOM      8  C   LIG d   1      -6.109  94.999 118.161  0.00  0.00     0.119 C 
BRANCH   8   9
ATOM      9  C   LIG d   1      -5.486  95.700 119.383  0.00  0.00     0.028 C 
ATOM     10  C   LIG d   1      -4.832  94.708 120.359  0.00  0.00     0.006 C 
ENDBRANCH   8   9
BRANCH   8  11
ATOM     11  C   LIG d   1      -7.582  95.419 118.159  0.00  0.00     0.028 C 
ATOM     12  C   LIG d   1      -8.477  94.457 118.957  0.00  0.00     0.006 C 
ENDBRANCH   8  11
ENDBRANCH   7   8
ENDBRANCH   1   7
BRANCH   6  13
ATOM     13  N   LIG d   1      -3.128  93.131 117.455  0.00  0.00    -0.311 N 
ATOM     14  C   LIG d   1      -2.116  93.181 118.320  0.00  0.00     0.210 C 
ATOM     15  C   LIG d   1      -1.131  94.333 118.096  0.00  0.00     0.109 C 
ATOM     16  O   LIG d   1      -1.922  92.362 119.231  0.00  0.00    -0.276 OA
ATOM     17  H   LIG d   1      -3.190  93.816 116.728  0.00  0.00     0.149 HD
ENDBRANCH   6  13
BRANCH   5  18
ATOM     18  N   LIG d   1      -2.731  90.160 116.860  0.00  0.00     0.381 N 
ATOM     19  H   LIG d   1      -2.824  89.224 116.522  0.00  0.00    -0.090 HD
ATOM     20  H   LIG d   1      -2.627  90.126 117.859  0.00  0.00    -0.090 HD
ATOM     21  H   LIG d   1      -1.932  90.592 116.450  0.00  0.00    -0.090 HD
ENDBRANCH   5  18
BRANCH   3  22
ATOM     22  C   LIG d   1      -7.402  89.893 115.836  0.00  0.00     0.382 C 
ATOM     23  O   LIG d   1      -7.698  90.089 114.633  0.00  0.00    -0.241 OA
ATOM     24  O   LIG d   1      -8.071  89.085 116.509  0.00  0.00    -0.241 OA
ENDBRANCH   3  22
TORSDOF 7
ENDMDL
MODEL 9
REMARK VINA RESULT:      -5.0      2.447      6.080
REMARK  7 active torsions:
REMARK  status: ('A' for Active; 'I' for Inactive)
REMARK    1  A    between atoms: C_2  and  C_3 
REMARK    2  A    between atoms: C_3  and  O_6 
REMARK    3  A    between atoms: C_3  and  C_4 
REMARK    4  A    between atoms: C_7  and  O_6 
REMARK    5  A    between atoms: C_9  and  C_10 
REMARK    6  A    between atoms: N_15  and  C_14 
REMARK    7  A    between atoms: N_20  and  C_19 
REMARK       I    between atoms: C_22  and  N_20 
ROOT
ATOM      1  C   LIG d   1      -6.077  93.382 117.659  0.00  0.00     0.161 C 
ATOM      2  C   LIG d   1      -6.688  92.183 117.255  0.00  0.00     0.016 C 
ATOM      3  C   LIG d   1      -5.967  91.003 116.959  0.00  0.00     0.038 C 
ATOM      4  C   LIG d   1      -4.588  90.899 117.193  0.00  0.00     0.028 C 
ATOM      5  C   LIG d   1      -3.858  92.235 117.119  0.00  0.00    -0.047 C 
ATOM      6  C   LIG d   1      -4.584  93.255 118.027  0.00  0.00     0.091 C 
ENDROOT
BRANCH   1   7
ATOM      7  O   LIG d   1      -6.814  93.963 118.752  0.00  0.00    -0.368 OA
BRANCH   7   8
ATOM      8  C   LIG d   1      -7.858  94.900 118.390  0.00  0.00     0.119 C 
BRANCH   8   9
ATOM      9  C   LIG d   1      -7.206  96.019 117.555  0.00  0.00     0.028 C 
ATOM     10  C   LIG d   1      -6.824  97.241 118.408  0.00  0.00     0.006 C 
ENDBRANCH   8   9
BRANCH   8  11
ATOM     11  C   LIG d   1      -8.433  95.599 119.625  0.00  0.00     0.028 C 
ATOM     12  C   LIG d   1      -8.832  94.613 120.735  0.00  0.00     0.006 C 
ENDBRANCH   8  11
ENDBRANCH   7   8
ENDBRANCH   1   7
BRANCH   6  13
ATOM     13  N   LIG d   1      -3.984  94.612 117.947  0.00  0.00    -0.311 N 
ATOM     14  C   LIG d   1      -3.668  95.338 119.019  0.00  0.00     0.210 C 
ATOM     15  C   LIG d   1      -3.079  96.719 118.714  0.00  0.00     0.109 C 
ATOM     16  O   LIG d   1      -3.790  94.956 120.192  0.00  0.00    -0.276 OA
ATOM     17  H   LIG d   1      -3.821  94.986 117.033  0.00  0.00     0.149 HD
ENDBRANCH   6  13
BRANCH   5  18
ATOM     18  N   LIG d   1      -2.457  92.001 117.518  0.00  0.00     0.381 N 
ATOM     19  H   LIG d   1      -2.062  92.845 117.881  0.00  0.00    -0.090 HD
ATOM     20  H   LIG d   1      -1.929  91.729 116.707  0.00  0.00    -0.090 HD
ATOM     21  H   LIG d   1      -2.414  91.283 118.208  0.00  0.00    -0.090 HD
ENDBRANCH   5  18
BRANCH   3  22
ATOM     22  C   LIG d   1      -6.621  89.924 116.385  0.00  0.00     0.382 C 
ATOM     23  O   LIG d   1      -6.084  89.296 115.440  0.00  0.00    -0.241 OA
ATOM     24  O   LIG d   1      -7.760  89.598 116.769  0.00  0.00    -0.241 OA
ENDBRANCH   3  22
TORSDOF 7
ENDMDL
