MODEL 1
REMARK VINA RESULT:      -6.9      0.000      0.000
REMARK  7 active torsions:
REMARK  status: ('A' for Active; 'I' for Inactive)
REMARK    1  A    between atoms: C_2  and  C_3 
REMARK    2  A    between atoms: C_3  and  O_6 
REMARK    3  A    between atoms: C_3  and  C_4 
REMARK    4  A    between atoms: C_7  and  O_6 
REMARK    5  A    between atoms: C_9  and  C_10 
REMARK    6  A    between atoms: N_15  and  C_14 
REMARK    7  A    between atoms: N_20  and  C_19 
REMARK       I    between atoms: C_22  and  N_20 
ROOT
ATOM      1  C   LIG d   1       0.223  82.495 111.163  0.00  0.00     0.161 C 
ATOM      2  C   LIG d   1      -0.925  82.180 111.908  0.00  0.00     0.016 C 
ATOM      3  C   LIG d   1      -1.503  80.890 111.939  0.00  0.00     0.038 C 
ATOM      4  C   LIG d   1      -0.880  79.783 111.343  0.00  0.00     0.028 C 
ATOM      5  C   LIG d   1       0.009  80.154 110.161  0.00  0.00    -0.047 C 
ATOM      6  C   LIG d   1       0.980  81.276 110.595  0.00  0.00     0.091 C 
ENDROOT
BRANCH   1   7
ATOM      7  O   LIG d   1       1.110  83.311 111.954  0.00  0.00    -0.368 OA
BRANCH   7   8
ATOM      8  C   LIG d   1       1.027  84.741 111.732  0.00  0.00     0.119 C 
BRANCH   8   9
ATOM      9  C   LIG d   1       0.786  84.963 110.227  0.00  0.00     0.028 C 
ATOM     10  C   LIG d   1      -0.502  85.757 109.949  0.00  0.00     0.006 C 
ENDBRANCH   8   9
BRANCH   8  11
ATOM     11  C   LIG d   1       2.360  85.430 112.036  0.00  0.00     0.028 C 
ATOM     12  C   LIG d   1       3.419  85.185 110.949  0.00  0.00     0.006 C 
ENDBRANCH   8  11
ENDBRANCH   7   8
ENDBRANCH   1   7
BRANCH   6  13
ATOM     13  N   LIG d   1       1.829  81.756 109.474  0.00  0.00    -0.311 N 
ATOM     14  C   LIG d   1       3.161  81.732 109.501  0.00  0.00     0.210 C 
ATOM     15  C   LIG d   1       3.843  82.293 108.249  0.00  0.00     0.109 C 
ATOM     16  O   LIG d   1       3.841  81.269 110.428  0.00  0.00    -0.276 OA
ATOM     17  H   LIG d   1       1.359  82.119 108.669  0.00  0.00     0.149 HD
ENDBRANCH   6  13
BRANCH   5  18
ATOM     18  N   LIG d   1       0.702  78.928 109.722  0.00  0.00     0.381 N 
ATOM     19  H   LIG d   1       1.340  78.627 110.432  0.00  0.00    -0.090 HD
ATOM     20  H   LIG d   1       1.228  79.131 108.891  0.00  0.00    -0.090 HD
ATOM     21  H   LIG d   1       0.038  78.209 109.536  0.00  0.00    -0.090 HD
ENDBRANCH   5  18
BRANCH   3  22
ATOM     22  C   LIG d   1      -2.739  80.705 112.540  0.00  0.00     0.382 C 
ATOM     23  O   LIG d   1      -3.690  81.477 112.269  0.00  0.00    -0.241 OA
ATOM     24  O   LIG d   1      -2.904  79.802 113.382  0.00  0.00    -0.241 OA
ENDBRANCH   3  22
TORSDOF 7
ENDMDL
MODEL 2
REMARK VINA RESULT:      -6.6      1.559      4.993
REMARK  7 active torsions:
REMARK  status: ('A' for Active; 'I' for Inactive)
REMARK    1  A    between atoms: C_2  and  C_3 
REMARK    2  A    between atoms: C_3  and  O_6 
REMARK    3  A    between atoms: C_3  and  C_4 
REMARK    4  A    between atoms: C_7  and  O_6 
REMARK    5  A    between atoms: C_9  and  C_10 
REMARK    6  A    between atoms: N_15  and  C_14 
REMARK    7  A    between atoms: N_20  and  C_19 
REMARK       I    between atoms: C_22  and  N_20 
ROOT
ATOM      1  C   LIG d   1       1.288  81.590 111.845  0.00  0.00     0.161 C 
ATOM      2  C   LIG d   1       2.408  82.039 111.125  0.00  0.00     0.016 C 
ATOM      3  C   LIG d   1       2.594  81.798 109.744  0.00  0.00     0.038 C 
ATOM      4  C   LIG d   1       1.592  81.219 108.952  0.00  0.00     0.028 C 
ATOM      5  C   LIG d   1       0.659  80.299 109.732  0.00  0.00    -0.047 C 
ATOM      6  C   LIG d   1       0.133  81.053 110.974  0.00  0.00     0.091 C 
ENDROOT
BRANCH   1   7
ATOM      7  O   LIG d   1       0.815  82.637 112.715  0.00  0.00    -0.368 OA
BRANCH   7   8
ATOM      8  C   LIG d   1       1.045  83.994 112.262  0.00  0.00     0.119 C 
BRANCH   8   9
ATOM      9  C   LIG d   1       1.479  84.823 113.487  0.00  0.00     0.028 C 
ATOM     10  C   LIG d   1       3.008  84.879 113.645  0.00  0.00     0.006 C 
ENDBRANCH   8   9
BRANCH   8  11
ATOM     11  C   LIG d   1      -0.252  84.645 111.772  0.00  0.00     0.028 C 
ATOM     12  C   LIG d   1      -0.279  84.845 110.248  0.00  0.00     0.006 C 
ENDBRANCH   8  11
ENDBRANCH   7   8
ENDBRANCH   1   7
BRANCH   6  13
ATOM     13  N   LIG d   1      -0.721  80.197 111.838  0.00  0.00    -0.311 N 
ATOM     14  C   LIG d   1      -1.857  80.617 112.393  0.00  0.00     0.210 C 
ATOM     15  C   LIG d   1      -2.572  79.580 113.264  0.00  0.00     0.109 C 
ATOM     16  O   LIG d   1      -2.356  81.739 112.220  0.00  0.00    -0.276 OA
ATOM     17  H   LIG d   1      -0.406  79.261 112.006  0.00  0.00     0.149 HD
ENDBRANCH   6  13
BRANCH   5  18
ATOM     18  N   LIG d   1      -0.416  79.873 108.816  0.00  0.00     0.381 N 
ATOM     19  H   LIG d   1      -0.170  79.005 108.385  0.00  0.00    -0.090 HD
ATOM     20  H   LIG d   1      -0.521  80.565 108.094  0.00  0.00    -0.090 HD
ATOM     21  H   LIG d   1      -1.271  79.773 109.317  0.00  0.00    -0.090 HD
ENDBRANCH   5  18
BRANCH   3  22
ATOM     22  C   LIG d   1       3.809  82.103 109.151  0.00  0.00     0.382 C 
ATOM     23  O   LIG d   1       4.814  82.338 109.864  0.00  0.00    -0.241 OA
ATOM     24  O   LIG d   1       3.903  82.190 107.912  0.00  0.00    -0.241 OA
ENDBRANCH   3  22
TORSDOF 7
ENDMDL
MODEL 3
REMARK VINA RESULT:      -5.5      1.944      4.594
REMARK  7 active torsions:
REMARK  status: ('A' for Active; 'I' for Inactive)
REMARK    1  A    between atoms: C_2  and  C_3 
REMARK    2  A    between atoms: C_3  and  O_6 
REMARK    3  A    between atoms: C_3  and  C_4 
REMARK    4  A    between atoms: C_7  and  O_6 
REMARK    5  A    between atoms: C_9  and  C_10 
REMARK    6  A    between atoms: N_15  and  C_14 
REMARK    7  A    between atoms: N_20  and  C_19 
REMARK       I    between atoms: C_22  and  N_20 
ROOT
ATOM      1  C   LIG d   1       0.642  82.472 110.901  0.00  0.00     0.161 C 
ATOM      2  C   LIG d   1       1.840  83.030 110.425  0.00  0.00     0.016 C 
ATOM      3  C   LIG d   1       2.755  82.326 109.609  0.00  0.00     0.038 C 
ATOM      4  C   LIG d   1       2.460  81.058 109.087  0.00  0.00     0.028 C 
ATOM      5  C   LIG d   1       1.491  80.258 109.950  0.00  0.00    -0.047 C 
ATOM      6  C   LIG d   1       0.250  81.129 110.251  0.00  0.00     0.091 C 
ENDROOT
BRANCH   1   7
ATOM      7  O   LIG d   1      -0.430  83.427 110.764  0.00  0.00    -0.368 OA
BRANCH   7   8
ATOM      8  C   LIG d   1      -0.522  84.435 111.801  0.00  0.00     0.119 C 
BRANCH   8   9
ATOM      9  C   LIG d   1      -0.364  85.810 111.125  0.00  0.00     0.028 C 
ATOM     10  C   LIG d   1      -0.647  85.757 109.614  0.00  0.00     0.006 C 
ENDBRANCH   8   9
BRANCH   8  11
ATOM     11  C   LIG d   1       0.646  84.330 112.786  0.00  0.00     0.028 C 
ATOM     12  C   LIG d   1       1.208  85.701 113.192  0.00  0.00     0.006 C 
ENDBRANCH   8  11
ENDBRANCH   7   8
ENDBRANCH   1   7
BRANCH   6  13
ATOM     13  N   LIG d   1      -0.711  80.452 111.160  0.00  0.00    -0.311 N 
ATOM     14  C   LIG d   1      -0.471  80.239 112.453  0.00  0.00     0.210 C 
ATOM     15  C   LIG d   1      -1.586  79.506 113.205  0.00  0.00     0.109 C 
ATOM     16  O   LIG d   1       0.546  80.615 113.055  0.00  0.00    -0.276 OA
ATOM     17  H   LIG d   1      -1.576  80.142 110.762  0.00  0.00     0.149 HD
ENDBRANCH   6  13
BRANCH   5  18
ATOM     18  N   LIG d   1       1.164  79.018 109.222  0.00  0.00     0.381 N 
ATOM     19  H   LIG d   1       0.773  79.243 108.329  0.00  0.00    -0.090 HD
ATOM     20  H   LIG d   1       0.479  78.504 109.746  0.00  0.00    -0.090 HD
ATOM     21  H   LIG d   1       1.985  78.466 109.103  0.00  0.00    -0.090 HD
ENDBRANCH   5  18
BRANCH   3  22
ATOM     22  C   LIG d   1       4.000  82.876 109.341  0.00  0.00     0.382 C 
ATOM     23  O   LIG d   1       4.297  84.007 109.795  0.00  0.00    -0.241 OA
ATOM     24  O   LIG d   1       4.813  82.274 108.614  0.00  0.00    -0.241 OA
ENDBRANCH   3  22
TORSDOF 7
ENDMDL
MODEL 4
REMARK VINA RESULT:      -4.0     27.311     30.050
REMARK  7 active torsions:
REMARK  status: ('A' for Active; 'I' for Inactive)
REMARK    1  A    between atoms: C_2  and  C_3 
REMARK    2  A    between atoms: C_3  and  O_6 
REMARK    3  A    between atoms: C_3  and  C_4 
REMARK    4  A    between atoms: C_7  and  O_6 
REMARK    5  A    between atoms: C_9  and  C_10 
REMARK    6  A    between atoms: N_15  and  C_14 
REMARK    7  A    between atoms: N_20  and  C_19 
REMARK       I    between atoms: C_22  and  N_20 
ROOT
ATOM      1  C   LIG d   1     -26.707  72.176 109.360  0.00  0.00     0.161 C 
ATOM      2  C   LIG d   1     -25.963  73.141 110.060  0.00  0.00     0.016 C 
ATOM      3  C   LIG d   1     -26.377  74.485 110.209  0.00  0.00     0.038 C 
ATOM      4  C   LIG d   1     -27.644  74.921 109.793  0.00  0.00     0.028 C 
ATOM      5  C   LIG d   1     -28.215  74.108 108.637  0.00  0.00    -0.047 C 
ATOM      6  C   LIG d   1     -28.143  72.606 108.996  0.00  0.00     0.091 C 
ENDROOT
BRANCH   1   7
ATOM      7  O   LIG d   1     -26.726  70.941 110.103  0.00  0.00    -0.368 OA
BRANCH   7   8
ATOM      8  C   LIG d   1     -26.618  71.062 111.543  0.00  0.00     0.119 C 
BRANCH   8   9
ATOM      9  C   LIG d   1     -25.681  69.940 112.032  0.00  0.00     0.028 C 
ATOM     10  C   LIG d   1     -25.679  68.725 111.090  0.00  0.00     0.006 C 
ENDBRANCH   8   9
BRANCH   8  11
ATOM     11  C   LIG d   1     -27.962  70.795 112.227  0.00  0.00     0.028 C 
ATOM     12  C   LIG d   1     -28.746  72.083 112.524  0.00  0.00     0.006 C 
ENDBRANCH   8  11
ENDBRANCH   7   8
ENDBRANCH   1   7
BRANCH   6  13
ATOM     13  N   LIG d   1     -28.605  71.735 107.884  0.00  0.00    -0.311 N 
ATOM     14  C   LIG d   1     -29.498  70.759 108.040  0.00  0.00     0.210 C 
ATOM     15  C   LIG d   1     -29.819  69.968 106.768  0.00  0.00     0.109 C 
ATOM     16  O   LIG d   1     -30.079  70.495 109.103  0.00  0.00    -0.276 OA
ATOM     17  H   LIG d   1     -28.208  71.900 106.980  0.00  0.00     0.149 HD
ENDBRANCH   6  13
BRANCH   5  18
ATOM     18  N   LIG d   1     -29.592  74.580 108.398  0.00  0.00     0.381 N 
ATOM     19  H   LIG d   1     -29.705  75.500 108.773  0.00  0.00    -0.090 HD
ATOM     20  H   LIG d   1     -30.233  73.966 108.870  0.00  0.00    -0.090 HD
ATOM     21  H   LIG d   1     -29.786  74.586 107.420  0.00  0.00    -0.090 HD
ENDBRANCH   5  18
BRANCH   3  22
ATOM     22  C   LIG d   1     -25.502  75.418 110.743  0.00  0.00     0.382 C 
ATOM     23  O   LIG d   1     -24.592  75.906 110.030  0.00  0.00    -0.241 OA
ATOM     24  O   LIG d   1     -25.582  75.746 111.942  0.00  0.00    -0.241 OA
ENDBRANCH   3  22
TORSDOF 7
ENDMDL
