MODEL 1
REMARK VINA RESULT:      -6.7      0.000      0.000
REMARK  7 active torsions:
REMARK  status: ('A' for Active; 'I' for Inactive)
REMARK    1  A    between atoms: C_2  and  C_3 
REMARK    2  A    between atoms: C_3  and  O_6 
REMARK    3  A    between atoms: C_3  and  C_4 
REMARK    4  A    between atoms: C_7  and  O_6 
REMARK    5  A    between atoms: C_9  and  C_10 
REMARK    6  A    between atoms: N_15  and  C_14 
REMARK    7  A    between atoms: N_20  and  C_19 
REMARK       I    between atoms: C_22  and  N_20 
ROOT
ATOM      1  C   LIG d   1       0.796  83.917 109.571  0.00  0.00     0.161 C 
ATOM      2  C   LIG d   1       0.597  85.217 110.065  0.00  0.00     0.016 C 
ATOM      3  C   LIG d   1      -0.055  85.493 111.289  0.00  0.00     0.038 C 
ATOM      4  C   LIG d   1      -0.422  84.474 112.180  0.00  0.00     0.028 C 
ATOM      5  C   LIG d   1      -0.696  83.139 111.495  0.00  0.00    -0.047 C 
ATOM      6  C   LIG d   1       0.502  82.789 110.582  0.00  0.00     0.091 C 
ENDROOT
BRANCH   1   7
ATOM      7  O   LIG d   1       2.136  83.790 109.055  0.00  0.00    -0.368 OA
BRANCH   7   8
ATOM      8  C   LIG d   1       3.170  83.508 110.029  0.00  0.00     0.119 C 
BRANCH   8   9
ATOM      9  C   LIG d   1       3.722  84.859 110.522  0.00  0.00     0.028 C 
ATOM     10  C   LIG d   1       3.647  85.001 112.052  0.00  0.00     0.006 C 
ENDBRANCH   8   9
BRANCH   8  11
ATOM     11  C   LIG d   1       4.362  82.793 109.385  0.00  0.00     0.028 C 
ATOM     12  C   LIG d   1       3.971  81.988 108.137  0.00  0.00     0.006 C 
ENDBRANCH   8  11
ENDBRANCH   7   8
ENDBRANCH   1   7
BRANCH   6  13
ATOM     13  N   LIG d   1       0.279  81.539 109.810  0.00  0.00    -0.311 N 
ATOM     14  C   LIG d   1       1.082  80.479 109.883  0.00  0.00     0.210 C 
ATOM     15  C   LIG d   1       0.682  79.302 108.988  0.00  0.00     0.109 C 
ATOM     16  O   LIG d   1       2.069  80.389 110.628  0.00  0.00    -0.276 OA
ATOM     17  H   LIG d   1      -0.517  81.513 109.203  0.00  0.00     0.149 HD
ENDBRANCH   6  13
BRANCH   5  18
ATOM     18  N   LIG d   1      -0.932  82.136 112.550  0.00  0.00     0.381 N 
ATOM     19  H   LIG d   1      -0.754  82.541 113.448  0.00  0.00    -0.090 HD
ATOM     20  H   LIG d   1      -0.295  81.370 112.418  0.00  0.00    -0.090 HD
ATOM     21  H   LIG d   1      -1.871  81.809 112.506  0.00  0.00    -0.090 HD
ENDBRANCH   5  18
BRANCH   3  22
ATOM     22  C   LIG d   1      -0.383  86.801 111.613  0.00  0.00     0.382 C 
ATOM     23  O   LIG d   1      -1.529  87.242 111.356  0.00  0.00    -0.241 OA
ATOM     24  O   LIG d   1       0.467  87.558 112.117  0.00  0.00    -0.241 OA
ENDBRANCH   3  22
TORSDOF 7
ENDMDL
MODEL 2
REMARK VINA RESULT:      -6.4      2.537      4.189
REMARK  7 active torsions:
REMARK  status: ('A' for Active; 'I' for Inactive)
REMARK    1  A    between atoms: C_2  and  C_3 
REMARK    2  A    between atoms: C_3  and  O_6 
REMARK    3  A    between atoms: C_3  and  C_4 
REMARK    4  A    between atoms: C_7  and  O_6 
REMARK    5  A    between atoms: C_9  and  C_10 
REMARK    6  A    between atoms: N_15  and  C_14 
REMARK    7  A    between atoms: N_20  and  C_19 
REMARK       I    between atoms: C_22  and  N_20 
ROOT
ATOM      1  C   LIG d   1       0.339  82.525 111.160  0.00  0.00     0.161 C 
ATOM      2  C   LIG d   1      -0.744  82.359 112.039  0.00  0.00     0.016 C 
ATOM      3  C   LIG d   1      -1.381  81.117 112.263  0.00  0.00     0.038 C 
ATOM      4  C   LIG d   1      -0.877  79.919 111.734  0.00  0.00     0.028 C 
ATOM      5  C   LIG d   1      -0.092  80.111 110.441  0.00  0.00    -0.047 C 
ATOM      6  C   LIG d   1       0.973  81.210 110.659  0.00  0.00     0.091 C 
ENDROOT
BRANCH   1   7
ATOM      7  O   LIG d   1       1.340  83.363 111.771  0.00  0.00    -0.368 OA
BRANCH   7   8
ATOM      8  C   LIG d   1       1.482  84.694 111.216  0.00  0.00     0.119 C 
BRANCH   8   9
ATOM      9  C   LIG d   1       0.639  84.751 109.928  0.00  0.00     0.028 C 
ATOM     10  C   LIG d   1      -0.369  85.913 109.938  0.00  0.00     0.006 C 
ENDBRANCH   8   9
BRANCH   8  11
ATOM     11  C   LIG d   1       2.923  84.960 110.770  0.00  0.00     0.028 C 
ATOM     12  C   LIG d   1       3.604  86.072 111.584  0.00  0.00     0.006 C 
ENDBRANCH   8  11
ENDBRANCH   7   8
ENDBRANCH   1   7
BRANCH   6  13
ATOM     13  N   LIG d   1       1.730  81.520 109.418  0.00  0.00    -0.311 N 
ATOM     14  C   LIG d   1       3.060  81.532 109.355  0.00  0.00     0.210 C 
ATOM     15  C   LIG d   1       3.639  81.896 107.984  0.00  0.00     0.109 C 
ATOM     16  O   LIG d   1       3.816  81.245 110.295  0.00  0.00    -0.276 OA
ATOM     17  H   LIG d   1       1.195  81.734 108.599  0.00  0.00     0.149 HD
ENDBRANCH   6  13
BRANCH   5  18
ATOM     18  N   LIG d   1       0.490  78.806 110.076  0.00  0.00     0.381 N 
ATOM     19  H   LIG d   1       0.588  78.238 110.893  0.00  0.00    -0.090 HD
ATOM     20  H   LIG d   1       1.404  78.956 109.684  0.00  0.00    -0.090 HD
ATOM     21  H   LIG d   1      -0.093  78.347 109.411  0.00  0.00    -0.090 HD
ENDBRANCH   5  18
BRANCH   3  22
ATOM     22  C   LIG d   1      -2.559  81.071 112.993  0.00  0.00     0.382 C 
ATOM     23  O   LIG d   1      -2.603  80.435 114.074  0.00  0.00    -0.241 OA
ATOM     24  O   LIG d   1      -3.591  81.620 112.563  0.00  0.00    -0.241 OA
ENDBRANCH   3  22
TORSDOF 7
ENDMDL
MODEL 3
REMARK VINA RESULT:      -6.2      2.316      4.841
REMARK  7 active torsions:
REMARK  status: ('A' for Active; 'I' for Inactive)
REMARK    1  A    between atoms: C_2  and  C_3 
REMARK    2  A    between atoms: C_3  and  O_6 
REMARK    3  A    between atoms: C_3  and  C_4 
REMARK    4  A    between atoms: C_7  and  O_6 
REMARK    5  A    between atoms: C_9  and  C_10 
REMARK    6  A    between atoms: N_15  and  C_14 
REMARK    7  A    between atoms: N_20  and  C_19 
REMARK       I    between atoms: C_22  and  N_20 
ROOT
ATOM      1  C   LIG d   1       1.584  81.851 111.712  0.00  0.00     0.161 C 
ATOM      2  C   LIG d   1       2.627  82.150 110.819  0.00  0.00     0.016 C 
ATOM      3  C   LIG d   1       2.681  81.658 109.494  0.00  0.00     0.038 C 
ATOM      4  C   LIG d   1       1.612  80.953 108.920  0.00  0.00     0.028 C 
ATOM      5  C   LIG d   1       0.765  80.201 109.941  0.00  0.00    -0.047 C 
ATOM      6  C   LIG d   1       0.355  81.176 111.069  0.00  0.00     0.091 C 
ENDROOT
BRANCH   1   7
ATOM      7  O   LIG d   1       1.188  83.045 112.416  0.00  0.00    -0.368 OA
BRANCH   7   8
ATOM      8  C   LIG d   1       1.190  84.271 111.645  0.00  0.00     0.119 C 
BRANCH   8   9
ATOM      9  C   LIG d   1       1.991  85.318 112.442  0.00  0.00     0.028 C 
ATOM     10  C   LIG d   1       3.219  85.830 111.670  0.00  0.00     0.006 C 
ENDBRANCH   8   9
BRANCH   8  11
ATOM     11  C   LIG d   1      -0.221  84.851 111.517  0.00  0.00     0.028 C 
ATOM     12  C   LIG d   1      -0.450  85.574 110.180  0.00  0.00     0.006 C 
ENDBRANCH   8  11
ENDBRANCH   7   8
ENDBRANCH   1   7
BRANCH   6  13
ATOM     13  N   LIG d   1      -0.406  80.501 112.152  0.00  0.00    -0.311 N 
ATOM     14  C   LIG d   1      -1.564  80.955 112.628  0.00  0.00     0.210 C 
ATOM     15  C   LIG d   1      -2.171  80.119 113.758  0.00  0.00     0.109 C 
ATOM     16  O   LIG d   1      -2.162  81.953 112.198  0.00  0.00    -0.276 OA
ATOM     17  H   LIG d   1      -0.008  79.666 112.537  0.00  0.00     0.149 HD
ENDBRANCH   6  13
BRANCH   5  18
ATOM     18  N   LIG d   1      -0.389  79.626 109.225  0.00  0.00     0.381 N 
ATOM     19  H   LIG d   1      -1.229  80.088 109.511  0.00  0.00    -0.090 HD
ATOM     20  H   LIG d   1      -0.468  78.653 109.464  0.00  0.00    -0.090 HD
ATOM     21  H   LIG d   1      -0.264  79.725 108.242  0.00  0.00    -0.090 HD
ENDBRANCH   5  18
BRANCH   3  22
ATOM     22  C   LIG d   1       3.832  81.837 108.742  0.00  0.00     0.382 C 
ATOM     23  O   LIG d   1       4.957  81.779 109.293  0.00  0.00    -0.241 OA
ATOM     24  O   LIG d   1       3.757  82.100 107.526  0.00  0.00    -0.241 OA
ENDBRANCH   3  22
TORSDOF 7
ENDMDL
MODEL 4
REMARK VINA RESULT:      -6.2      2.742      4.832
REMARK  7 active torsions:
REMARK  status: ('A' for Active; 'I' for Inactive)
REMARK    1  A    between atoms: C_2  and  C_3 
REMARK    2  A    between atoms: C_3  and  O_6 
REMARK    3  A    between atoms: C_3  and  C_4 
REMARK    4  A    between atoms: C_7  and  O_6 
REMARK    5  A    between atoms: C_9  and  C_10 
REMARK    6  A    between atoms: N_15  and  C_14 
REMARK    7  A    between atoms: N_20  and  C_19 
REMARK       I    between atoms: C_22  and  N_20 
ROOT
ATOM      1  C   LIG d   1       2.259  83.334 112.463  0.00  0.00     0.161 C 
ATOM      2  C   LIG d   1       1.204  82.422 112.288  0.00  0.00     0.016 C 
ATOM      3  C   LIG d   1      -0.152  82.809 112.192  0.00  0.00     0.038 C 
ATOM      4  C   LIG d   1      -0.534  84.157 112.113  0.00  0.00     0.028 C 
ATOM      5  C   LIG d   1       0.447  85.106 112.792  0.00  0.00    -0.047 C 
ATOM      6  C   LIG d   1       1.872  84.815 112.267  0.00  0.00     0.091 C 
ENDROOT
BRANCH   1   7
ATOM      7  O   LIG d   1       3.356  82.984 111.596  0.00  0.00    -0.368 OA
BRANCH   7   8
ATOM      8  C   LIG d   1       3.030  82.143 110.463  0.00  0.00     0.119 C 
BRANCH   8   9
ATOM      9  C   LIG d   1       4.191  81.148 110.275  0.00  0.00     0.028 C 
ATOM     10  C   LIG d   1       4.959  81.381 108.963  0.00  0.00     0.006 C 
ENDBRANCH   8   9
BRANCH   8  11
ATOM     11  C   LIG d   1       2.977  82.953 109.164  0.00  0.00     0.028 C 
ATOM     12  C   LIG d   1       1.543  83.307 108.740  0.00  0.00     0.006 C 
ENDBRANCH   8  11
ENDBRANCH   7   8
ENDBRANCH   1   7
BRANCH   6  13
ATOM     13  N   LIG d   1       2.905  85.642 112.943  0.00  0.00    -0.311 N 
ATOM     14  C   LIG d   1       3.274  86.848 112.514  0.00  0.00     0.210 C 
ATOM     15  C   LIG d   1       4.370  87.522 113.345  0.00  0.00     0.109 C 
ATOM     16  O   LIG d   1       2.775  87.437 111.543  0.00  0.00    -0.276 OA
ATOM     17  H   LIG d   1       3.340  85.254 113.757  0.00  0.00     0.149 HD
ENDBRANCH   6  13
BRANCH   5  18
ATOM     18  N   LIG d   1      -0.001  86.484 112.515  0.00  0.00     0.381 N 
ATOM     19  H   LIG d   1      -1.000  86.525 112.534  0.00  0.00    -0.090 HD
ATOM     20  H   LIG d   1       0.309  86.748 111.597  0.00  0.00    -0.090 HD
ATOM     21  H   LIG d   1       0.377  87.108 113.194  0.00  0.00    -0.090 HD
ENDBRANCH   5  18
BRANCH   3  22
ATOM     22  C   LIG d   1      -1.146  81.843 112.215  0.00  0.00     0.382 C 
ATOM     23  O   LIG d   1      -2.286  82.126 112.656  0.00  0.00    -0.241 OA
ATOM     24  O   LIG d   1      -0.905  80.680 111.841  0.00  0.00    -0.241 OA
ENDBRANCH   3  22
TORSDOF 7
ENDMDL
MODEL 5
REMARK VINA RESULT:      -5.8      2.697      4.541
REMARK  7 active torsions:
REMARK  status: ('A' for Active; 'I' for Inactive)
REMARK    1  A    between atoms: C_2  and  C_3 
REMARK    2  A    between atoms: C_3  and  O_6 
REMARK    3  A    between atoms: C_3  and  C_4 
REMARK    4  A    between atoms: C_7  and  O_6 
REMARK    5  A    between atoms: C_9  and  C_10 
REMARK    6  A    between atoms: N_15  and  C_14 
REMARK    7  A    between atoms: N_20  and  C_19 
REMARK       I    between atoms: C_22  and  N_20 
ROOT
ATOM      1  C   LIG d   1       0.533  82.763 111.725  0.00  0.00     0.161 C 
ATOM      2  C   LIG d   1      -0.667  82.413 112.366  0.00  0.00     0.016 C 
ATOM      3  C   LIG d   1      -1.268  81.138 112.251  0.00  0.00     0.038 C 
ATOM      4  C   LIG d   1      -0.626  80.072 111.605  0.00  0.00     0.028 C 
ATOM      5  C   LIG d   1       0.345  80.519 110.517  0.00  0.00    -0.047 C 
ATOM      6  C   LIG d   1       1.304  81.578 111.106  0.00  0.00     0.091 C 
ENDROOT
BRANCH   1   7
ATOM      7  O   LIG d   1       1.380  83.490 112.637  0.00  0.00    -0.368 OA
BRANCH   7   8
ATOM      8  C   LIG d   1       1.615  84.883 112.314  0.00  0.00     0.119 C 
BRANCH   8   9
ATOM      9  C   LIG d   1       3.104  85.175 112.583  0.00  0.00     0.028 C 
ATOM     10  C   LIG d   1       3.825  85.734 111.344  0.00  0.00     0.006 C 
ENDBRANCH   8   9
BRANCH   8  11
ATOM     11  C   LIG d   1       0.843  85.811 113.257  0.00  0.00     0.028 C 
ATOM     12  C   LIG d   1       1.609  86.113 114.555  0.00  0.00     0.006 C 
ENDBRANCH   8  11
ENDBRANCH   7   8
ENDBRANCH   1   7
BRANCH   6  13
ATOM     13  N   LIG d   1       2.234  82.131 110.086  0.00  0.00    -0.311 N 
ATOM     14  C   LIG d   1       3.559  82.103 110.211  0.00  0.00     0.210 C 
ATOM     15  C   LIG d   1       4.331  82.745 109.054  0.00  0.00     0.109 C 
ATOM     16  O   LIG d   1       4.170  81.579 111.155  0.00  0.00    -0.276 OA
ATOM     17  H   LIG d   1       1.823  82.547 109.273  0.00  0.00     0.149 HD
ENDBRANCH   6  13
BRANCH   5  18
ATOM     18  N   LIG d   1       1.044  79.318 110.022  0.00  0.00     0.381 N 
ATOM     19  H   LIG d   1       1.157  78.660 110.768  0.00  0.00    -0.090 HD
ATOM     20  H   LIG d   1       1.956  79.584 109.695  0.00  0.00    -0.090 HD
ATOM     21  H   LIG d   1       0.525  78.903 109.280  0.00  0.00    -0.090 HD
ENDBRANCH   5  18
BRANCH   3  22
ATOM     22  C   LIG d   1      -2.544  80.932 112.754  0.00  0.00     0.382 C 
ATOM     23  O   LIG d   1      -3.290  81.912 112.991  0.00  0.00    -0.241 OA
ATOM     24  O   LIG d   1      -2.942  79.781 113.015  0.00  0.00    -0.241 OA
ENDBRANCH   3  22
TORSDOF 7
ENDMDL
MODEL 6
REMARK VINA RESULT:      -5.7      2.346      5.690
REMARK  7 active torsions:
REMARK  status: ('A' for Active; 'I' for Inactive)
REMARK    1  A    between atoms: C_2  and  C_3 
REMARK    2  A    between atoms: C_3  and  O_6 
REMARK    3  A    between atoms: C_3  and  C_4 
REMARK    4  A    between atoms: C_7  and  O_6 
REMARK    5  A    between atoms: C_9  and  C_10 
REMARK    6  A    between atoms: N_15  and  C_14 
REMARK    7  A    between atoms: N_20  and  C_19 
REMARK       I    between atoms: C_22  and  N_20 
ROOT
ATOM      1  C   LIG d   1       1.061  83.157 109.808  0.00  0.00     0.161 C 
ATOM      2  C   LIG d   1       2.129  82.372 109.345  0.00  0.00     0.016 C 
ATOM      3  C   LIG d   1       3.487  82.720 109.526  0.00  0.00     0.038 C 
ATOM      4  C   LIG d   1       3.873  83.810 110.321  0.00  0.00     0.028 C 
ATOM      5  C   LIG d   1       2.824  84.914 110.386  0.00  0.00    -0.047 C 
ATOM      6  C   LIG d   1       1.463  84.292 110.774  0.00  0.00     0.091 C 
ENDROOT
BRANCH   1   7
ATOM      7  O   LIG d   1       0.061  82.314 110.415  0.00  0.00    -0.368 OA
BRANCH   7   8
ATOM      8  C   LIG d   1       0.550  81.120 111.074  0.00  0.00     0.119 C 
BRANCH   8   9
ATOM      9  C   LIG d   1      -0.418  79.972 110.729  0.00  0.00     0.028 C 
ATOM     10  C   LIG d   1       0.029  79.182 109.487  0.00  0.00     0.006 C 
ENDBRANCH   8   9
BRANCH   8  11
ATOM     11  C   LIG d   1       0.486  81.260 112.598  0.00  0.00     0.028 C 
ATOM     12  C   LIG d   1       1.851  81.587 113.225  0.00  0.00     0.006 C 
ENDBRANCH   8  11
ENDBRANCH   7   8
ENDBRANCH   1   7
BRANCH   6  13
ATOM     13  N   LIG d   1       0.363  85.291 110.778  0.00  0.00    -0.311 N 
ATOM     14  C   LIG d   1       0.010  85.988 111.856  0.00  0.00     0.210 C 
ATOM     15  C   LIG d   1      -1.163  86.951 111.648  0.00  0.00     0.109 C 
ATOM     16  O   LIG d   1       0.577  85.924 112.957  0.00  0.00    -0.276 OA
ATOM     17  H   LIG d   1      -0.130  85.429 109.918  0.00  0.00     0.149 HD
ENDBRANCH   6  13
BRANCH   5  18
ATOM     18  N   LIG d   1       3.296  85.921 111.354  0.00  0.00     0.381 N 
ATOM     19  H   LIG d   1       3.068  85.631 112.284  0.00  0.00    -0.090 HD
ATOM     20  H   LIG d   1       2.829  86.792 111.172  0.00  0.00    -0.090 HD
ATOM     21  H   LIG d   1       4.282  86.041 111.269  0.00  0.00    -0.090 HD
ENDBRANCH   5  18
BRANCH   3  22
ATOM     22  C   LIG d   1       4.475  81.997 108.875  0.00  0.00     0.382 C 
ATOM     23  O   LIG d   1       4.812  80.867 109.305  0.00  0.00    -0.241 OA
ATOM     24  O   LIG d   1       5.065  82.479 107.889  0.00  0.00    -0.241 OA
ENDBRANCH   3  22
TORSDOF 7
ENDMDL
MODEL 7
REMARK VINA RESULT:      -5.7      1.457      2.384
REMARK  7 active torsions:
REMARK  status: ('A' for Active; 'I' for Inactive)
REMARK    1  A    between atoms: C_2  and  C_3 
REMARK    2  A    between atoms: C_3  and  O_6 
REMARK    3  A    between atoms: C_3  and  C_4 
REMARK    4  A    between atoms: C_7  and  O_6 
REMARK    5  A    between atoms: C_9  and  C_10 
REMARK    6  A    between atoms: N_15  and  C_14 
REMARK    7  A    between atoms: N_20  and  C_19 
REMARK       I    between atoms: C_22  and  N_20 
ROOT
ATOM      1  C   LIG d   1       1.235  82.083 109.966  0.00  0.00     0.161 C 
ATOM      2  C   LIG d   1       1.108  83.468 109.774  0.00  0.00     0.016 C 
ATOM      3  C   LIG d   1       0.222  84.279 110.520  0.00  0.00     0.038 C 
ATOM      4  C   LIG d   1      -0.493  83.780 111.619  0.00  0.00     0.028 C 
ATOM      5  C   LIG d   1      -0.777  82.284 111.528  0.00  0.00    -0.047 C 
ATOM      6  C   LIG d   1       0.545  81.539 111.235  0.00  0.00     0.091 C 
ENDROOT
BRANCH   1   7
ATOM      7  O   LIG d   1       2.629  81.714 109.957  0.00  0.00    -0.368 OA
BRANCH   7   8
ATOM      8  C   LIG d   1       3.575  82.796 110.136  0.00  0.00     0.119 C 
BRANCH   8   9
ATOM      9  C   LIG d   1       4.862  82.415 109.379  0.00  0.00     0.028 C 
ATOM     10  C   LIG d   1       4.585  81.998 107.925  0.00  0.00     0.006 C 
ENDBRANCH   8   9
BRANCH   8  11
ATOM     11  C   LIG d   1       3.994  82.932 111.603  0.00  0.00     0.028 C 
ATOM     12  C   LIG d   1       3.701  84.326 112.180  0.00  0.00     0.006 C 
ENDBRANCH   8  11
ENDBRANCH   7   8
ENDBRANCH   1   7
BRANCH   6  13
ATOM     13  N   LIG d   1       0.344  80.079 111.047  0.00  0.00    -0.311 N 
ATOM     14  C   LIG d   1      -0.102  79.540 109.913  0.00  0.00     0.210 C 
ATOM     15  C   LIG d   1      -0.257  78.017 109.938  0.00  0.00     0.109 C 
ATOM     16  O   LIG d   1      -0.353  80.177 108.879  0.00  0.00    -0.276 OA
ATOM     17  H   LIG d   1       0.553  79.486 111.826  0.00  0.00     0.149 HD
ENDBRANCH   6  13
BRANCH   5  18
ATOM     18  N   LIG d   1      -1.404  81.872 112.797  0.00  0.00     0.381 N 
ATOM     19  H   LIG d   1      -1.361  82.623 113.456  0.00  0.00    -0.090 HD
ATOM     20  H   LIG d   1      -0.894  81.093 113.174  0.00  0.00    -0.090 HD
ATOM     21  H   LIG d   1      -2.353  81.612 112.640  0.00  0.00    -0.090 HD
ENDBRANCH   5  18
BRANCH   3  22
ATOM     22  C   LIG d   1       0.013  85.597 110.142  0.00  0.00     0.382 C 
ATOM     23  O   LIG d   1      -1.136  85.983 109.821  0.00  0.00    -0.241 OA
ATOM     24  O   LIG d   1       0.969  86.394 110.077  0.00  0.00    -0.241 OA
ENDBRANCH   3  22
TORSDOF 7
ENDMDL
MODEL 8
REMARK VINA RESULT:      -5.6      2.107      3.278
REMARK  7 active torsions:
REMARK  status: ('A' for Active; 'I' for Inactive)
REMARK    1  A    between atoms: C_2  and  C_3 
REMARK    2  A    between atoms: C_3  and  O_6 
REMARK    3  A    between atoms: C_3  and  C_4 
REMARK    4  A    between atoms: C_7  and  O_6 
REMARK    5  A    between atoms: C_9  and  C_10 
REMARK    6  A    between atoms: N_15  and  C_14 
REMARK    7  A    between atoms: N_20  and  C_19 
REMARK       I    between atoms: C_22  and  N_20 
ROOT
ATOM      1  C   LIG d   1       1.223  83.775 110.697  0.00  0.00     0.161 C 
ATOM      2  C   LIG d   1       1.902  85.005 110.671  0.00  0.00     0.016 C 
ATOM      3  C   LIG d   1       2.648  85.505 111.763  0.00  0.00     0.038 C 
ATOM      4  C   LIG d   1       2.893  84.734 112.909  0.00  0.00     0.028 C 
ATOM      5  C   LIG d   1       1.810  83.695 113.183  0.00  0.00    -0.047 C 
ATOM      6  C   LIG d   1       1.570  82.870 111.898  0.00  0.00     0.091 C 
ENDROOT
BRANCH   1   7
ATOM      7  O   LIG d   1       1.442  83.070 109.459  0.00  0.00    -0.368 OA
BRANCH   7   8
ATOM      8  C   LIG d   1       2.437  82.018 109.492  0.00  0.00     0.119 C 
BRANCH   8   9
ATOM      9  C   LIG d   1       3.720  82.574 108.845  0.00  0.00     0.028 C 
ATOM     10  C   LIG d   1       4.988  81.867 109.353  0.00  0.00     0.006 C 
ENDBRANCH   8   9
BRANCH   8  11
ATOM     11  C   LIG d   1       2.023  80.832 108.616  0.00  0.00     0.028 C 
ATOM     12  C   LIG d   1       1.769  79.552 109.428  0.00  0.00     0.006 C 
ENDBRANCH   8  11
ENDBRANCH   7   8
ENDBRANCH   1   7
BRANCH   6  13
ATOM     13  N   LIG d   1       0.467  81.886 112.054  0.00  0.00    -0.311 N 
ATOM     14  C   LIG d   1      -0.792  82.232 112.318  0.00  0.00     0.210 C 
ATOM     15  C   LIG d   1      -1.768  81.061 112.459  0.00  0.00     0.109 C 
ATOM     16  O   LIG d   1      -1.198  83.400 112.417  0.00  0.00    -0.276 OA
ATOM     17  H   LIG d   1       0.702  80.918 111.958  0.00  0.00     0.149 HD
ENDBRANCH   6  13
BRANCH   5  18
ATOM     18  N   LIG d   1       2.259  82.873 114.323  0.00  0.00     0.381 N 
ATOM     19  H   LIG d   1       3.077  83.279 114.732  0.00  0.00    -0.090 HD
ATOM     20  H   LIG d   1       2.496  81.956 113.988  0.00  0.00    -0.090 HD
ATOM     21  H   LIG d   1       1.535  82.810 115.004  0.00  0.00    -0.090 HD
ENDBRANCH   5  18
BRANCH   3  22
ATOM     22  C   LIG d   1       3.125  86.806 111.731  0.00  0.00     0.382 C 
ATOM     23  O   LIG d   1       4.358  87.020 111.634  0.00  0.00    -0.241 OA
ATOM     24  O   LIG d   1       2.343  87.769 111.842  0.00  0.00    -0.241 OA
ENDBRANCH   3  22
TORSDOF 7
ENDMDL
MODEL 9
REMARK VINA RESULT:      -5.3      2.346      4.053
REMARK  7 active torsions:
REMARK  status: ('A' for Active; 'I' for Inactive)
REMARK    1  A    between atoms: C_2  and  C_3 
REMARK    2  A    between atoms: C_3  and  O_6 
REMARK    3  A    between atoms: C_3  and  C_4 
REMARK    4  A    between atoms: C_7  and  O_6 
REMARK    5  A    between atoms: C_9  and  C_10 
REMARK    6  A    between atoms: N_15  and  C_14 
REMARK    7  A    between atoms: N_20  and  C_19 
REMARK       I    between atoms: C_22  and  N_20 
ROOT
ATOM      1  C   LIG d   1       0.978  83.620 110.445  0.00  0.00     0.161 C 
ATOM      2  C   LIG d   1      -0.150  83.260 111.202  0.00  0.00     0.016 C 
ATOM      3  C   LIG d   1      -0.366  81.956 111.704  0.00  0.00     0.038 C 
ATOM      4  C   LIG d   1       0.611  80.955 111.611  0.00  0.00     0.028 C 
ATOM      5  C   LIG d   1       1.547  81.129 110.420  0.00  0.00    -0.047 C 
ATOM      6  C   LIG d   1       2.108  82.569 110.429  0.00  0.00     0.091 C 
ENDROOT
BRANCH   1   7
ATOM      7  O   LIG d   1       1.483  84.892 110.896  0.00  0.00    -0.368 OA
BRANCH   7   8
ATOM      8  C   LIG d   1       2.637  84.846 111.772  0.00  0.00     0.119 C 
BRANCH   8   9
ATOM      9  C   LIG d   1       2.173  85.295 113.172  0.00  0.00     0.028 C 
ATOM     10  C   LIG d   1       2.124  84.131 114.175  0.00  0.00     0.006 C 
ENDBRANCH   8   9
BRANCH   8  11
ATOM     11  C   LIG d   1       3.699  85.865 111.350  0.00  0.00     0.028 C 
ATOM     12  C   LIG d   1       4.055  86.853 112.472  0.00  0.00     0.006 C 
ENDBRANCH   8  11
ENDBRANCH   7   8
ENDBRANCH   1   7
BRANCH   6  13
ATOM     13  N   LIG d   1       2.967  82.850 109.249  0.00  0.00    -0.311 N 
ATOM     14  C   LIG d   1       4.263  82.551 109.198  0.00  0.00     0.210 C 
ATOM     15  C   LIG d   1       4.967  82.945 107.895  0.00  0.00     0.109 C 
ATOM     16  O   LIG d   1       4.890  81.968 110.095  0.00  0.00    -0.276 OA
ATOM     17  H   LIG d   1       2.532  83.294 108.464  0.00  0.00     0.149 HD
ENDBRANCH   6  13
BRANCH   5  18
ATOM     18  N   LIG d   1       2.597  80.098 110.523  0.00  0.00     0.381 N 
ATOM     19  H   LIG d   1       2.649  79.761 111.463  0.00  0.00    -0.090 HD
ATOM     20  H   LIG d   1       3.482  80.511 110.286  0.00  0.00    -0.090 HD
ATOM     21  H   LIG d   1       2.398  79.345 109.903  0.00  0.00    -0.090 HD
ENDBRANCH   5  18
BRANCH   3  22
ATOM     22  C   LIG d   1      -1.589  81.633 112.273  0.00  0.00     0.382 C 
ATOM     23  O   LIG d   1      -2.226  82.497 112.923  0.00  0.00    -0.241 OA
ATOM     24  O   LIG d   1      -2.042  80.476 112.181  0.00  0.00    -0.241 OA
ENDBRANCH   3  22
TORSDOF 7
ENDMDL
