MODEL 1
REMARK VINA RESULT:      -6.3      0.000      0.000
REMARK  7 active torsions:
REMARK  status: ('A' for Active; 'I' for Inactive)
REMARK    1  A    between atoms: C_2  and  C_3 
REMARK    2  A    between atoms: C_3  and  O_6 
REMARK    3  A    between atoms: C_3  and  C_4 
REMARK    4  A    between atoms: C_7  and  O_6 
REMARK    5  A    between atoms: C_9  and  C_10 
REMARK    6  A    between atoms: N_15  and  C_14 
REMARK    7  A    between atoms: N_20  and  C_19 
REMARK       I    between atoms: C_22  and  N_20 
ROOT
ATOM      1  C   LIG d   1       0.072  82.409 111.621  0.00  0.00     0.161 C 
ATOM      2  C   LIG d   1      -1.164  82.113 112.220  0.00  0.00     0.016 C 
ATOM      3  C   LIG d   1      -1.718  80.813 112.258  0.00  0.00     0.038 C 
ATOM      4  C   LIG d   1      -1.000  79.687 111.828  0.00  0.00     0.028 C 
ATOM      5  C   LIG d   1       0.040  80.004 110.758  0.00  0.00    -0.047 C 
ATOM      6  C   LIG d   1       0.921  81.177 111.246  0.00  0.00     0.091 C 
ENDROOT
BRANCH   1   7
ATOM      7  O   LIG d   1       0.826  83.298 112.470  0.00  0.00    -0.368 OA
BRANCH   7   8
ATOM      8  C   LIG d   1       0.804  84.699 112.104  0.00  0.00     0.119 C 
BRANCH   8   9
ATOM      9  C   LIG d   1       0.477  84.781 110.600  0.00  0.00     0.028 C 
ATOM     10  C   LIG d   1      -0.755  85.655 110.314  0.00  0.00     0.006 C 
ENDBRANCH   8   9
BRANCH   8  11
ATOM     11  C   LIG d   1       2.189  85.336 112.253  0.00  0.00     0.028 C 
ATOM     12  C   LIG d   1       2.885  85.571 110.903  0.00  0.00     0.006 C 
ENDBRANCH   8  11
ENDBRANCH   7   8
ENDBRANCH   1   7
BRANCH   6  13
ATOM     13  N   LIG d   1       1.910  81.606 110.223  0.00  0.00    -0.311 N 
ATOM     14  C   LIG d   1       3.178  81.900 110.508  0.00  0.00     0.210 C 
ATOM     15  C   LIG d   1       4.024  82.341 109.309  0.00  0.00     0.109 C 
ATOM     16  O   LIG d   1       3.690  81.807 111.633  0.00  0.00    -0.276 OA
ATOM     17  H   LIG d   1       1.587  81.678 109.279  0.00  0.00     0.149 HD
ENDBRANCH   6  13
BRANCH   5  18
ATOM     18  N   LIG d   1       0.807  78.771 110.503  0.00  0.00     0.381 N 
ATOM     19  H   LIG d   1       1.786  78.976 110.500  0.00  0.00    -0.090 HD
ATOM     20  H   LIG d   1       0.557  78.414 109.598  0.00  0.00    -0.090 HD
ATOM     21  H   LIG d   1       0.604  78.092 111.204  0.00  0.00    -0.090 HD
ENDBRANCH   5  18
BRANCH   3  22
ATOM     22  C   LIG d   1      -3.023  80.635 112.693  0.00  0.00     0.382 C 
ATOM     23  O   LIG d   1      -3.844  81.581 112.617  0.00  0.00    -0.241 OA
ATOM     24  O   LIG d   1      -3.378  79.554 113.200  0.00  0.00    -0.241 OA
ENDBRANCH   3  22
TORSDOF 7
ENDMDL
MODEL 2
REMARK VINA RESULT:      -5.9      8.842     12.789
REMARK  7 active torsions:
REMARK  status: ('A' for Active; 'I' for Inactive)
REMARK    1  A    between atoms: C_2  and  C_3 
REMARK    2  A    between atoms: C_3  and  O_6 
REMARK    3  A    between atoms: C_3  and  C_4 
REMARK    4  A    between atoms: C_7  and  O_6 
REMARK    5  A    between atoms: C_9  and  C_10 
REMARK    6  A    between atoms: N_15  and  C_14 
REMARK    7  A    between atoms: N_20  and  C_19 
REMARK       I    between atoms: C_22  and  N_20 
ROOT
ATOM      1  C   LIG d   1      -6.940  75.394 116.492  0.00  0.00     0.161 C 
ATOM      2  C   LIG d   1      -5.747  75.220 115.772  0.00  0.00     0.016 C 
ATOM      3  C   LIG d   1      -4.734  76.203 115.695  0.00  0.00     0.038 C 
ATOM      4  C   LIG d   1      -4.781  77.377 116.462  0.00  0.00     0.028 C 
ATOM      5  C   LIG d   1      -6.198  77.818 116.809  0.00  0.00    -0.047 C 
ATOM      6  C   LIG d   1      -6.959  76.622 117.426  0.00  0.00     0.091 C 
ENDROOT
BRANCH   1   7
ATOM      7  O   LIG d   1      -7.242  74.196 117.235  0.00  0.00    -0.368 OA
BRANCH   7   8
ATOM      8  C   LIG d   1      -8.340  73.395 116.733  0.00  0.00     0.119 C 
BRANCH   8   9
ATOM      9  C   LIG d   1      -9.478  73.468 117.770  0.00  0.00     0.028 C 
ATOM     10  C   LIG d   1     -10.612  74.410 117.331  0.00  0.00     0.006 C 
ENDBRANCH   8   9
BRANCH   8  11
ATOM     11  C   LIG d   1      -7.959  71.914 116.654  0.00  0.00     0.028 C 
ATOM     12  C   LIG d   1      -9.070  70.984 117.167  0.00  0.00     0.006 C 
ENDBRANCH   8  11
ENDBRANCH   7   8
ENDBRANCH   1   7
BRANCH   6  13
ATOM     13  N   LIG d   1      -8.381  76.944 117.717  0.00  0.00    -0.311 N 
ATOM     14  C   LIG d   1      -8.792  77.470 118.869  0.00  0.00     0.210 C 
ATOM     15  C   LIG d   1     -10.303  77.705 118.970  0.00  0.00     0.109 C 
ATOM     16  O   LIG d   1      -8.046  77.794 119.805  0.00  0.00    -0.276 OA
ATOM     17  H   LIG d   1      -9.050  76.742 117.000  0.00  0.00     0.149 HD
ENDBRANCH   6  13
BRANCH   5  18
ATOM     18  N   LIG d   1      -6.095  78.971 117.724  0.00  0.00     0.381 N 
ATOM     19  H   LIG d   1      -5.213  79.426 117.597  0.00  0.00    -0.090 HD
ATOM     20  H   LIG d   1      -6.146  78.640 118.671  0.00  0.00    -0.090 HD
ATOM     21  H   LIG d   1      -6.836  79.613 117.548  0.00  0.00    -0.090 HD
ENDBRANCH   5  18
BRANCH   3  22
ATOM     22  C   LIG d   1      -3.679  76.035 114.812  0.00  0.00     0.382 C 
ATOM     23  O   LIG d   1      -3.668  76.657 113.722  0.00  0.00    -0.241 OA
ATOM     24  O   LIG d   1      -2.759  75.236 115.071  0.00  0.00    -0.241 OA
ENDBRANCH   3  22
TORSDOF 7
ENDMDL
MODEL 3
REMARK VINA RESULT:      -5.9      2.353      5.188
REMARK  7 active torsions:
REMARK  status: ('A' for Active; 'I' for Inactive)
REMARK    1  A    between atoms: C_2  and  C_3 
REMARK    2  A    between atoms: C_3  and  O_6 
REMARK    3  A    between atoms: C_3  and  C_4 
REMARK    4  A    between atoms: C_7  and  O_6 
REMARK    5  A    between atoms: C_9  and  C_10 
REMARK    6  A    between atoms: N_15  and  C_14 
REMARK    7  A    between atoms: N_20  and  C_19 
REMARK       I    between atoms: C_22  and  N_20 
ROOT
ATOM      1  C   LIG d   1       1.046  82.974 110.291  0.00  0.00     0.161 C 
ATOM      2  C   LIG d   1       1.372  84.340 110.321  0.00  0.00     0.016 C 
ATOM      3  C   LIG d   1       0.813  85.254 111.242  0.00  0.00     0.038 C 
ATOM      4  C   LIG d   1      -0.004  84.832 112.302  0.00  0.00     0.028 C 
ATOM      5  C   LIG d   1      -0.761  83.541 112.007  0.00  0.00    -0.047 C 
ATOM      6  C   LIG d   1       0.242  82.475 111.509  0.00  0.00     0.091 C 
ENDROOT
BRANCH   1   7
ATOM      7  O   LIG d   1       2.243  82.189 110.125  0.00  0.00    -0.368 OA
BRANCH   7   8
ATOM      8  C   LIG d   1       3.478  82.809 110.559  0.00  0.00     0.119 C 
BRANCH   8   9
ATOM      9  C   LIG d   1       4.618  82.215 109.711  0.00  0.00     0.028 C 
ATOM     10  C   LIG d   1       4.571  80.678 109.658  0.00  0.00     0.006 C 
ENDBRANCH   8   9
BRANCH   8  11
ATOM     11  C   LIG d   1       3.811  82.434 112.006  0.00  0.00     0.028 C 
ATOM     12  C   LIG d   1       4.828  83.390 112.650  0.00  0.00     0.006 C 
ENDBRANCH   8  11
ENDBRANCH   7   8
ENDBRANCH   1   7
BRANCH   6  13
ATOM     13  N   LIG d   1      -0.428  81.207 111.118  0.00  0.00    -0.311 N 
ATOM     14  C   LIG d   1      -0.660  80.208 111.967  0.00  0.00     0.210 C 
ATOM     15  C   LIG d   1      -1.344  78.982 111.353  0.00  0.00     0.109 C 
ATOM     16  O   LIG d   1      -0.393  80.232 113.178  0.00  0.00    -0.276 OA
ATOM     17  H   LIG d   1      -0.706  81.115 110.160  0.00  0.00     0.149 HD
ENDBRANCH   6  13
BRANCH   5  18
ATOM     18  N   LIG d   1      -1.463  83.144 113.242  0.00  0.00     0.381 N 
ATOM     19  H   LIG d   1      -2.393  83.511 113.236  0.00  0.00    -0.090 HD
ATOM     20  H   LIG d   1      -0.976  83.531 114.031  0.00  0.00    -0.090 HD
ATOM     21  H   LIG d   1      -1.491  82.150 113.313  0.00  0.00    -0.090 HD
ENDBRANCH   5  18
BRANCH   3  22
ATOM     22  C   LIG d   1       1.037  86.613 111.085  0.00  0.00     0.382 C 
ATOM     23  O   LIG d   1       2.204  87.040 110.909  0.00  0.00    -0.241 OA
ATOM     24  O   LIG d   1       0.093  87.422 111.160  0.00  0.00    -0.241 OA
ENDBRANCH   3  22
TORSDOF 7
ENDMDL
MODEL 4
REMARK VINA RESULT:      -5.8      6.004      9.168
REMARK  7 active torsions:
REMARK  status: ('A' for Active; 'I' for Inactive)
REMARK    1  A    between atoms: C_2  and  C_3 
REMARK    2  A    between atoms: C_3  and  O_6 
REMARK    3  A    between atoms: C_3  and  C_4 
REMARK    4  A    between atoms: C_7  and  O_6 
REMARK    5  A    between atoms: C_9  and  C_10 
REMARK    6  A    between atoms: N_15  and  C_14 
REMARK    7  A    between atoms: N_20  and  C_19 
REMARK       I    between atoms: C_22  and  N_20 
ROOT
ATOM      1  C   LIG d   1      -2.335  75.598 115.120  0.00  0.00     0.161 C 
ATOM      2  C   LIG d   1      -2.229  74.861 116.311  0.00  0.00     0.016 C 
ATOM      3  C   LIG d   1      -1.356  75.211 117.367  0.00  0.00     0.038 C 
ATOM      4  C   LIG d   1      -0.636  76.414 117.366  0.00  0.00     0.028 C 
ATOM      5  C   LIG d   1      -0.329  76.936 115.966  0.00  0.00    -0.047 C 
ATOM      6  C   LIG d   1      -1.639  76.975 115.147  0.00  0.00     0.091 C 
ENDROOT
BRANCH   1   7
ATOM      7  O   LIG d   1      -3.723  75.745 114.758  0.00  0.00    -0.368 OA
BRANCH   7   8
ATOM      8  C   LIG d   1      -4.679  75.627 115.840  0.00  0.00     0.119 C 
BRANCH   8   9
ATOM      9  C   LIG d   1      -5.918  74.897 115.286  0.00  0.00     0.028 C 
ATOM     10  C   LIG d   1      -6.518  73.907 116.299  0.00  0.00     0.006 C 
ENDBRANCH   8   9
BRANCH   8  11
ATOM     11  C   LIG d   1      -5.186  77.002 116.288  0.00  0.00     0.028 C 
ATOM     12  C   LIG d   1      -4.517  77.490 117.583  0.00  0.00     0.006 C 
ENDBRANCH   8  11
ENDBRANCH   7   8
ENDBRANCH   1   7
BRANCH   6  13
ATOM     13  N   LIG d   1      -1.415  77.394 113.739  0.00  0.00    -0.311 N 
ATOM     14  C   LIG d   1      -2.193  78.266 113.100  0.00  0.00     0.210 C 
ATOM     15  C   LIG d   1      -1.797  78.543 111.647  0.00  0.00     0.109 C 
ATOM     16  O   LIG d   1      -3.155  78.860 113.610  0.00  0.00    -0.276 OA
ATOM     17  H   LIG d   1      -0.637  76.984 113.260  0.00  0.00     0.149 HD
ENDBRANCH   6  13
BRANCH   5  18
ATOM     18  N   LIG d   1       0.302  78.261 116.113  0.00  0.00     0.381 N 
ATOM     19  H   LIG d   1       0.283  78.743 115.236  0.00  0.00    -0.090 HD
ATOM     20  H   LIG d   1       1.261  78.136 116.384  0.00  0.00    -0.090 HD
ATOM     21  H   LIG d   1      -0.179  78.793 116.803  0.00  0.00    -0.090 HD
ENDBRANCH   5  18
BRANCH   3  22
ATOM     22  C   LIG d   1      -1.168  74.331 118.422  0.00  0.00     0.382 C 
ATOM     23  O   LIG d   1      -2.046  73.476 118.691  0.00  0.00    -0.241 OA
ATOM     24  O   LIG d   1      -0.150  74.410 119.137  0.00  0.00    -0.241 OA
ENDBRANCH   3  22
TORSDOF 7
ENDMDL
MODEL 5
REMARK VINA RESULT:      -5.7      2.907      3.940
REMARK  7 active torsions:
REMARK  status: ('A' for Active; 'I' for Inactive)
REMARK    1  A    between atoms: C_2  and  C_3 
REMARK    2  A    between atoms: C_3  and  O_6 
REMARK    3  A    between atoms: C_3  and  C_4 
REMARK    4  A    between atoms: C_7  and  O_6 
REMARK    5  A    between atoms: C_9  and  C_10 
REMARK    6  A    between atoms: N_15  and  C_14 
REMARK    7  A    between atoms: N_20  and  C_19 
REMARK       I    between atoms: C_22  and  N_20 
ROOT
ATOM      1  C   LIG d   1       2.266  84.379 110.190  0.00  0.00     0.161 C 
ATOM      2  C   LIG d   1       1.242  85.321 110.384  0.00  0.00     0.016 C 
ATOM      3  C   LIG d   1      -0.084  84.971 110.727  0.00  0.00     0.038 C 
ATOM      4  C   LIG d   1      -0.442  83.653 111.050  0.00  0.00     0.028 C 
ATOM      5  C   LIG d   1       0.437  82.604 110.377  0.00  0.00    -0.047 C 
ATOM      6  C   LIG d   1       1.920  82.946 110.646  0.00  0.00     0.091 C 
ENDROOT
BRANCH   1   7
ATOM      7  O   LIG d   1       3.475  84.831 110.832  0.00  0.00    -0.368 OA
BRANCH   7   8
ATOM      8  C   LIG d   1       3.300  85.668 112.002  0.00  0.00     0.119 C 
BRANCH   8   9
ATOM      9  C   LIG d   1       4.372  86.773 111.945  0.00  0.00     0.028 C 
ATOM     10  C   LIG d   1       4.048  87.954 112.875  0.00  0.00     0.006 C 
ENDBRANCH   8   9
BRANCH   8  11
ATOM     11  C   LIG d   1       3.587  84.890 113.290  0.00  0.00     0.028 C 
ATOM     12  C   LIG d   1       2.307  84.466 114.028  0.00  0.00     0.006 C 
ENDBRANCH   8  11
ENDBRANCH   7   8
ENDBRANCH   1   7
BRANCH   6  13
ATOM     13  N   LIG d   1       2.851  82.017 109.953  0.00  0.00    -0.311 N 
ATOM     14  C   LIG d   1       3.938  81.505 110.527  0.00  0.00     0.210 C 
ATOM     15  C   LIG d   1       4.771  80.585 109.629  0.00  0.00     0.109 C 
ATOM     16  O   LIG d   1       4.276  81.701 111.704  0.00  0.00    -0.276 OA
ATOM     17  H   LIG d   1       2.636  81.780 109.004  0.00  0.00     0.149 HD
ENDBRANCH   6  13
BRANCH   5  18
ATOM     18  N   LIG d   1       0.042  81.286 110.907  0.00  0.00     0.381 N 
ATOM     19  H   LIG d   1      -0.798  80.978 110.460  0.00  0.00    -0.090 HD
ATOM     20  H   LIG d   1      -0.138  81.372 111.892  0.00  0.00    -0.090 HD
ATOM     21  H   LIG d   1       0.770  80.624 110.752  0.00  0.00    -0.090 HD
ENDBRANCH   5  18
BRANCH   3  22
ATOM     22  C   LIG d   1      -1.077  85.938 110.711  0.00  0.00     0.382 C 
ATOM     23  O   LIG d   1      -1.544  86.375 111.791  0.00  0.00    -0.241 OA
ATOM     24  O   LIG d   1      -1.542  86.348 109.631  0.00  0.00    -0.241 OA
ENDBRANCH   3  22
TORSDOF 7
ENDMDL
MODEL 6
REMARK VINA RESULT:      -5.7      3.569      6.860
REMARK  7 active torsions:
REMARK  status: ('A' for Active; 'I' for Inactive)
REMARK    1  A    between atoms: C_2  and  C_3 
REMARK    2  A    between atoms: C_3  and  O_6 
REMARK    3  A    between atoms: C_3  and  C_4 
REMARK    4  A    between atoms: C_7  and  O_6 
REMARK    5  A    between atoms: C_9  and  C_10 
REMARK    6  A    between atoms: N_15  and  C_14 
REMARK    7  A    between atoms: N_20  and  C_19 
REMARK       I    between atoms: C_22  and  N_20 
ROOT
ATOM      1  C   LIG d   1       2.563  86.111 112.019  0.00  0.00     0.161 C 
ATOM      2  C   LIG d   1       3.284  87.317 112.022  0.00  0.00     0.016 C 
ATOM      3  C   LIG d   1       4.311  87.606 112.950  0.00  0.00     0.038 C 
ATOM      4  C   LIG d   1       4.792  86.642 113.848  0.00  0.00     0.028 C 
ATOM      5  C   LIG d   1       3.755  85.587 114.217  0.00  0.00    -0.047 C 
ATOM      6  C   LIG d   1       3.149  85.004 112.920  0.00  0.00     0.091 C 
ENDROOT
BRANCH   1   7
ATOM      7  O   LIG d   1       2.418  85.632 110.667  0.00  0.00    -0.368 OA
BRANCH   7   8
ATOM      8  C   LIG d   1       1.138  85.039 110.335  0.00  0.00     0.119 C 
BRANCH   8   9
ATOM      9  C   LIG d   1       1.399  83.923 109.305  0.00  0.00     0.028 C 
ATOM     10  C   LIG d   1       2.783  83.275 109.479  0.00  0.00     0.006 C 
ENDBRANCH   8   9
BRANCH   8  11
ATOM     11  C   LIG d   1       0.227  86.043 109.622  0.00  0.00     0.028 C 
ATOM     12  C   LIG d   1      -1.020  86.404 110.445  0.00  0.00     0.006 C 
ENDBRANCH   8  11
ENDBRANCH   7   8
ENDBRANCH   1   7
BRANCH   6  13
ATOM     13  N   LIG d   1       2.065  84.025 113.192  0.00  0.00    -0.311 N 
ATOM     14  C   LIG d   1       2.255  82.706 113.209  0.00  0.00     0.210 C 
ATOM     15  C   LIG d   1       1.000  81.875 113.489  0.00  0.00     0.109 C 
ATOM     16  O   LIG d   1       3.352  82.148 113.051  0.00  0.00    -0.276 OA
ATOM     17  H   LIG d   1       1.149  84.393 113.362  0.00  0.00     0.149 HD
ENDBRANCH   6  13
BRANCH   5  18
ATOM     18  N   LIG d   1       4.429  84.571 115.048  0.00  0.00     0.381 N 
ATOM     19  H   LIG d   1       3.962  83.692 114.952  0.00  0.00    -0.090 HD
ATOM     20  H   LIG d   1       4.377  84.853 116.011  0.00  0.00    -0.090 HD
ATOM     21  H   LIG d   1       5.382  84.482 114.771  0.00  0.00    -0.090 HD
ENDBRANCH   5  18
BRANCH   3  22
ATOM     22  C   LIG d   1       4.841  88.886 113.011  0.00  0.00     0.382 C 
ATOM     23  O   LIG d   1       4.087  89.867 113.222  0.00  0.00    -0.241 OA
ATOM     24  O   LIG d   1       6.055  89.077 112.813  0.00  0.00    -0.241 OA
ENDBRANCH   3  22
TORSDOF 7
ENDMDL
MODEL 7
REMARK VINA RESULT:      -5.7      3.681      7.214
REMARK  7 active torsions:
REMARK  status: ('A' for Active; 'I' for Inactive)
REMARK    1  A    between atoms: C_2  and  C_3 
REMARK    2  A    between atoms: C_3  and  O_6 
REMARK    3  A    between atoms: C_3  and  C_4 
REMARK    4  A    between atoms: C_7  and  O_6 
REMARK    5  A    between atoms: C_9  and  C_10 
REMARK    6  A    between atoms: N_15  and  C_14 
REMARK    7  A    between atoms: N_20  and  C_19 
REMARK       I    between atoms: C_22  and  N_20 
ROOT
ATOM      1  C   LIG d   1       3.214  85.633 112.201  0.00  0.00     0.161 C 
ATOM      2  C   LIG d   1       4.026  86.778 112.129  0.00  0.00     0.016 C 
ATOM      3  C   LIG d   1       4.208  87.672 113.209  0.00  0.00     0.038 C 
ATOM      4  C   LIG d   1       3.708  87.399 114.491  0.00  0.00     0.028 C 
ATOM      5  C   LIG d   1       2.465  86.515 114.480  0.00  0.00    -0.047 C 
ATOM      6  C   LIG d   1       2.749  85.259 113.624  0.00  0.00     0.091 C 
ENDROOT
BRANCH   1   7
ATOM      7  O   LIG d   1       3.887  84.518 111.584  0.00  0.00    -0.368 OA
BRANCH   7   8
ATOM      8  C   LIG d   1       3.640  84.329 110.169  0.00  0.00     0.119 C 
BRANCH   8   9
ATOM      9  C   LIG d   1       2.276  83.626 110.027  0.00  0.00     0.028 C 
ATOM     10  C   LIG d   1       1.237  84.503 109.307  0.00  0.00     0.006 C 
ENDBRANCH   8   9
BRANCH   8  11
ATOM     11  C   LIG d   1       4.658  83.366 109.550  0.00  0.00     0.028 C 
ATOM     12  C   LIG d   1       4.477  81.918 110.031  0.00  0.00     0.006 C 
ENDBRANCH   8  11
ENDBRANCH   7   8
ENDBRANCH   1   7
BRANCH   6  13
ATOM     13  N   LIG d   1       1.557  84.382 113.492  0.00  0.00    -0.311 N 
ATOM     14  C   LIG d   1       0.393  84.796 112.996  0.00  0.00     0.210 C 
ATOM     15  C   LIG d   1      -0.712  83.736 112.966  0.00  0.00     0.109 C 
ATOM     16  O   LIG d   1       0.180  85.933 112.548  0.00  0.00    -0.276 OA
ATOM     17  H   LIG d   1       1.652  83.434 113.803  0.00  0.00     0.149 HD
ENDBRANCH   6  13
BRANCH   5  18
ATOM     18  N   LIG d   1       2.132  86.197 115.881  0.00  0.00     0.381 N 
ATOM     19  H   LIG d   1       1.272  86.641 116.134  0.00  0.00    -0.090 HD
ATOM     20  H   LIG d   1       2.858  86.553 116.477  0.00  0.00    -0.090 HD
ATOM     21  H   LIG d   1       2.051  85.210 115.997  0.00  0.00    -0.090 HD
ENDBRANCH   5  18
BRANCH   3  22
ATOM     22  C   LIG d   1       4.865  88.875 113.001  0.00  0.00     0.382 C 
ATOM     23  O   LIG d   1       6.074  88.880 112.666  0.00  0.00    -0.241 OA
ATOM     24  O   LIG d   1       4.276  89.957 113.188  0.00  0.00    -0.241 OA
ENDBRANCH   3  22
TORSDOF 7
ENDMDL
MODEL 8
REMARK VINA RESULT:      -5.7      2.558      5.927
REMARK  7 active torsions:
REMARK  status: ('A' for Active; 'I' for Inactive)
REMARK    1  A    between atoms: C_2  and  C_3 
REMARK    2  A    between atoms: C_3  and  O_6 
REMARK    3  A    between atoms: C_3  and  C_4 
REMARK    4  A    between atoms: C_7  and  O_6 
REMARK    5  A    between atoms: C_9  and  C_10 
REMARK    6  A    between atoms: N_15  and  C_14 
REMARK    7  A    between atoms: N_20  and  C_19 
REMARK       I    between atoms: C_22  and  N_20 
ROOT
ATOM      1  C   LIG d   1       0.734  84.412 110.832  0.00  0.00     0.161 C 
ATOM      2  C   LIG d   1       1.589  85.526 110.847  0.00  0.00     0.016 C 
ATOM      3  C   LIG d   1       1.978  86.192 112.032  0.00  0.00     0.038 C 
ATOM      4  C   LIG d   1       1.655  85.694 113.303  0.00  0.00     0.028 C 
ATOM      5  C   LIG d   1       0.376  84.864 113.321  0.00  0.00    -0.047 C 
ATOM      6  C   LIG d   1       0.461  83.787 112.216  0.00  0.00     0.091 C 
ENDROOT
BRANCH   1   7
ATOM      7  O   LIG d   1       1.244  83.416 109.924  0.00  0.00    -0.368 OA
BRANCH   7   8
ATOM      8  C   LIG d   1       2.333  82.599 110.420  0.00  0.00     0.119 C 
BRANCH   8   9
ATOM      9  C   LIG d   1       3.518  82.768 109.450  0.00  0.00     0.028 C 
ATOM     10  C   LIG d   1       4.871  82.820 110.180  0.00  0.00     0.006 C 
ENDBRANCH   8   9
BRANCH   8  11
ATOM     11  C   LIG d   1       1.979  81.110 110.373  0.00  0.00     0.028 C 
ATOM     12  C   LIG d   1       0.775  80.812 109.465  0.00  0.00     0.006 C 
ENDBRANCH   8  11
ENDBRANCH   7   8
ENDBRANCH   1   7
BRANCH   6  13
ATOM     13  N   LIG d   1      -0.786  82.984 112.109  0.00  0.00    -0.311 N 
ATOM     14  C   LIG d   1      -0.936  81.786 112.669  0.00  0.00     0.210 C 
ATOM     15  C   LIG d   1      -2.293  81.121 112.420  0.00  0.00     0.109 C 
ATOM     16  O   LIG d   1      -0.086  81.224 113.376  0.00  0.00    -0.276 OA
ATOM     17  H   LIG d   1      -1.538  83.379 111.579  0.00  0.00     0.149 HD
ENDBRANCH   6  13
BRANCH   5  18
ATOM     18  N   LIG d   1       0.233  84.294 114.674  0.00  0.00     0.381 N 
ATOM     19  H   LIG d   1      -0.303  84.914 115.248  0.00  0.00    -0.090 HD
ATOM     20  H   LIG d   1       1.146  84.196 115.083  0.00  0.00    -0.090 HD
ATOM     21  H   LIG d   1      -0.213  83.405 114.624  0.00  0.00    -0.090 HD
ENDBRANCH   5  18
BRANCH   3  22
ATOM     22  C   LIG d   1       2.665  87.394 111.951  0.00  0.00     0.382 C 
ATOM     23  O   LIG d   1       2.031  88.476 111.891  0.00  0.00    -0.241 OA
ATOM     24  O   LIG d   1       3.909  87.408 111.892  0.00  0.00    -0.241 OA
ENDBRANCH   3  22
TORSDOF 7
ENDMDL
MODEL 9
REMARK VINA RESULT:      -5.6      3.551      5.335
REMARK  7 active torsions:
REMARK  status: ('A' for Active; 'I' for Inactive)
REMARK    1  A    between atoms: C_2  and  C_3 
REMARK    2  A    between atoms: C_3  and  O_6 
REMARK    3  A    between atoms: C_3  and  C_4 
REMARK    4  A    between atoms: C_7  and  O_6 
REMARK    5  A    between atoms: C_9  and  C_10 
REMARK    6  A    between atoms: N_15  and  C_14 
REMARK    7  A    between atoms: N_20  and  C_19 
REMARK       I    between atoms: C_22  and  N_20 
ROOT
ATOM      1  C   LIG d   1       3.189  84.371 110.061  0.00  0.00     0.161 C 
ATOM      2  C   LIG d   1       3.114  83.040 109.617  0.00  0.00     0.016 C 
ATOM      3  C   LIG d   1       3.654  81.949 110.335  0.00  0.00     0.038 C 
ATOM      4  C   LIG d   1       4.177  82.098 111.629  0.00  0.00     0.028 C 
ATOM      5  C   LIG d   1       4.729  83.493 111.902  0.00  0.00    -0.047 C 
ATOM      6  C   LIG d   1       3.657  84.540 111.522  0.00  0.00     0.091 C 
ENDROOT
BRANCH   1   7
ATOM      7  O   LIG d   1       1.920  85.025 109.863  0.00  0.00    -0.368 OA
BRANCH   7   8
ATOM      8  C   LIG d   1       0.986  84.951 110.967  0.00  0.00     0.119 C 
BRANCH   8   9
ATOM      9  C   LIG d   1      -0.135  83.974 110.561  0.00  0.00     0.028 C 
ATOM     10  C   LIG d   1      -0.359  82.870 111.609  0.00  0.00     0.006 C 
ENDBRANCH   8   9
BRANCH   8  11
ATOM     11  C   LIG d   1       0.288  86.295 111.198  0.00  0.00     0.028 C 
ATOM     12  C   LIG d   1      -1.035  86.419 110.425  0.00  0.00     0.006 C 
ENDBRANCH   8  11
ENDBRANCH   7   8
ENDBRANCH   1   7
BRANCH   6  13
ATOM     13  N   LIG d   1       4.146  85.935 111.679  0.00  0.00    -0.311 N 
ATOM     14  C   LIG d   1       3.986  86.647 112.792  0.00  0.00     0.210 C 
ATOM     15  C   LIG d   1       4.548  88.071 112.736  0.00  0.00     0.109 C 
ATOM     16  O   LIG d   1       3.460  86.224 113.833  0.00  0.00    -0.276 OA
ATOM     17  H   LIG d   1       4.613  86.345 110.894  0.00  0.00     0.149 HD
ENDBRANCH   6  13
BRANCH   5  18
ATOM     18  N   LIG d   1       5.114  83.549 113.324  0.00  0.00     0.381 N 
ATOM     19  H   LIG d   1       5.722  82.785 113.541  0.00  0.00    -0.090 HD
ATOM     20  H   LIG d   1       4.286  83.464 113.888  0.00  0.00    -0.090 HD
ATOM     21  H   LIG d   1       5.570  84.413 113.520  0.00  0.00    -0.090 HD
ENDBRANCH   5  18
BRANCH   3  22
ATOM     22  C   LIG d   1       3.711  80.697 109.743  0.00  0.00     0.382 C 
ATOM     23  O   LIG d   1       2.663  80.162 109.306  0.00  0.00    -0.241 OA
ATOM     24  O   LIG d   1       4.788  80.076 109.679  0.00  0.00    -0.241 OA
ENDBRANCH   3  22
TORSDOF 7
ENDMDL
