MODEL 1
REMARK VINA RESULT:      -6.9      0.000      0.000
REMARK  7 active torsions:
REMARK  status: ('A' for Active; 'I' for Inactive)
REMARK    1  A    between atoms: C_2  and  C_3 
REMARK    2  A    between atoms: C_3  and  O_6 
REMARK    3  A    between atoms: C_3  and  C_4 
REMARK    4  A    between atoms: C_7  and  O_6 
REMARK    5  A    between atoms: C_9  and  C_10 
REMARK    6  A    between atoms: N_15  and  C_14 
REMARK    7  A    between atoms: N_20  and  C_19 
REMARK       I    between atoms: C_22  and  N_20 
ROOT
ATOM      1  C   LIG d   1       0.232  82.512 111.134  0.00  0.00     0.161 C 
ATOM      2  C   LIG d   1      -0.914  82.205 111.887  0.00  0.00     0.016 C 
ATOM      3  C   LIG d   1      -1.495  80.917 111.929  0.00  0.00     0.038 C 
ATOM      4  C   LIG d   1      -0.878  79.805 111.336  0.00  0.00     0.028 C 
ATOM      5  C   LIG d   1       0.006  80.166 110.147  0.00  0.00    -0.047 C 
ATOM      6  C   LIG d   1       0.982  81.287 110.570  0.00  0.00     0.091 C 
ENDROOT
BRANCH   1   7
ATOM      7  O   LIG d   1       1.125  83.331 111.915  0.00  0.00    -0.368 OA
BRANCH   7   8
ATOM      8  C   LIG d   1       1.039  84.760 111.692  0.00  0.00     0.119 C 
BRANCH   8   9
ATOM      9  C   LIG d   1       0.776  84.979 110.189  0.00  0.00     0.028 C 
ATOM     10  C   LIG d   1      -0.504  85.790 109.929  0.00  0.00     0.006 C 
ENDBRANCH   8   9
BRANCH   8  11
ATOM     11  C   LIG d   1       2.376  85.450 111.975  0.00  0.00     0.028 C 
ATOM     12  C   LIG d   1       3.440  85.147 110.908  0.00  0.00     0.006 C 
ENDBRANCH   8  11
ENDBRANCH   7   8
ENDBRANCH   1   7
BRANCH   6  13
ATOM     13  N   LIG d   1       1.827  81.758 109.442  0.00  0.00    -0.311 N 
ATOM     14  C   LIG d   1       3.159  81.744 109.467  0.00  0.00     0.210 C 
ATOM     15  C   LIG d   1       3.836  82.293 108.207  0.00  0.00     0.109 C 
ATOM     16  O   LIG d   1       3.843  81.299 110.401  0.00  0.00    -0.276 OA
ATOM     17  H   LIG d   1       1.353  82.107 108.631  0.00  0.00     0.149 HD
ENDBRANCH   6  13
BRANCH   5  18
ATOM     18  N   LIG d   1       0.693  78.935 109.713  0.00  0.00     0.381 N 
ATOM     19  H   LIG d   1       1.642  78.948 110.028  0.00  0.00    -0.090 HD
ATOM     20  H   LIG d   1       0.694  78.900 108.709  0.00  0.00    -0.090 HD
ATOM     21  H   LIG d   1       0.224  78.136 110.080  0.00  0.00    -0.090 HD
ENDBRANCH   5  18
BRANCH   3  22
ATOM     22  C   LIG d   1      -2.729  80.740 112.537  0.00  0.00     0.382 C 
ATOM     23  O   LIG d   1      -2.893  79.809 113.362  0.00  0.00    -0.241 OA
ATOM     24  O   LIG d   1      -3.692  81.471 112.237  0.00  0.00    -0.241 OA
ENDBRANCH   3  22
TORSDOF 7
ENDMDL
MODEL 2
REMARK VINA RESULT:      -6.6      1.581      4.980
REMARK  7 active torsions:
REMARK  status: ('A' for Active; 'I' for Inactive)
REMARK    1  A    between atoms: C_2  and  C_3 
REMARK    2  A    between atoms: C_3  and  O_6 
REMARK    3  A    between atoms: C_3  and  C_4 
REMARK    4  A    between atoms: C_7  and  O_6 
REMARK    5  A    between atoms: C_9  and  C_10 
REMARK    6  A    between atoms: N_15  and  C_14 
REMARK    7  A    between atoms: N_20  and  C_19 
REMARK       I    between atoms: C_22  and  N_20 
ROOT
ATOM      1  C   LIG d   1       1.287  81.592 111.833  0.00  0.00     0.161 C 
ATOM      2  C   LIG d   1       2.410  82.035 111.113  0.00  0.00     0.016 C 
ATOM      3  C   LIG d   1       2.598  81.786 109.734  0.00  0.00     0.038 C 
ATOM      4  C   LIG d   1       1.597  81.203 108.943  0.00  0.00     0.028 C 
ATOM      5  C   LIG d   1       0.661  80.289 109.726  0.00  0.00    -0.047 C 
ATOM      6  C   LIG d   1       0.133  81.052 110.963  0.00  0.00     0.091 C 
ENDROOT
BRANCH   1   7
ATOM      7  O   LIG d   1       0.814  82.645 112.696  0.00  0.00    -0.368 OA
BRANCH   7   8
ATOM      8  C   LIG d   1       1.035  83.999 112.230  0.00  0.00     0.119 C 
BRANCH   8   9
ATOM      9  C   LIG d   1       1.419  84.853 113.453  0.00  0.00     0.028 C 
ATOM     10  C   LIG d   1       2.689  84.339 114.152  0.00  0.00     0.006 C 
ENDBRANCH   8   9
BRANCH   8  11
ATOM     11  C   LIG d   1      -0.257  84.621 111.690  0.00  0.00     0.028 C 
ATOM     12  C   LIG d   1      -0.199  84.899 110.180  0.00  0.00     0.006 C 
ENDBRANCH   8  11
ENDBRANCH   7   8
ENDBRANCH   1   7
BRANCH   6  13
ATOM     13  N   LIG d   1      -0.724  80.202 111.830  0.00  0.00    -0.311 N 
ATOM     14  C   LIG d   1      -1.853  80.632 112.391  0.00  0.00     0.210 C 
ATOM     15  C   LIG d   1      -2.574  79.600 113.264  0.00  0.00     0.109 C 
ATOM     16  O   LIG d   1      -2.343  81.759 112.222  0.00  0.00    -0.276 OA
ATOM     17  H   LIG d   1      -0.418  79.264 111.994  0.00  0.00     0.149 HD
ENDBRANCH   6  13
BRANCH   5  18
ATOM     18  N   LIG d   1      -0.413  79.861 108.810  0.00  0.00     0.381 N 
ATOM     19  H   LIG d   1      -1.070  80.605 108.686  0.00  0.00    -0.090 HD
ATOM     20  H   LIG d   1      -0.895  79.079 109.217  0.00  0.00    -0.090 HD
ATOM     21  H   LIG d   1      -0.026  79.599 107.930  0.00  0.00    -0.090 HD
ENDBRANCH   5  18
BRANCH   3  22
ATOM     22  C   LIG d   1       3.815  82.085 109.142  0.00  0.00     0.382 C 
ATOM     23  O   LIG d   1       4.820  82.319 109.857  0.00  0.00    -0.241 OA
ATOM     24  O   LIG d   1       3.912  82.167 107.903  0.00  0.00    -0.241 OA
ENDBRANCH   3  22
TORSDOF 7
ENDMDL
MODEL 3
REMARK VINA RESULT:      -6.4      3.034      5.956
REMARK  7 active torsions:
REMARK  status: ('A' for Active; 'I' for Inactive)
REMARK    1  A    between atoms: C_2  and  C_3 
REMARK    2  A    between atoms: C_3  and  O_6 
REMARK    3  A    between atoms: C_3  and  C_4 
REMARK    4  A    between atoms: C_7  and  O_6 
REMARK    5  A    between atoms: C_9  and  C_10 
REMARK    6  A    between atoms: N_15  and  C_14 
REMARK    7  A    between atoms: N_20  and  C_19 
REMARK       I    between atoms: C_22  and  N_20 
ROOT
ATOM      1  C   LIG d   1       2.447  84.723 111.651  0.00  0.00     0.161 C 
ATOM      2  C   LIG d   1       3.027  85.993 111.805  0.00  0.00     0.016 C 
ATOM      3  C   LIG d   1       3.255  86.597 113.062  0.00  0.00     0.038 C 
ATOM      4  C   LIG d   1       3.055  85.904 114.265  0.00  0.00     0.028 C 
ATOM      5  C   LIG d   1       1.999  84.808 114.165  0.00  0.00    -0.047 C 
ATOM      6  C   LIG d   1       2.326  83.905 112.954  0.00  0.00     0.091 C 
ENDROOT
BRANCH   1   7
ATOM      7  O   LIG d   1       3.171  83.973 110.655  0.00  0.00    -0.368 OA
BRANCH   7   8
ATOM      8  C   LIG d   1       2.520  83.828 109.369  0.00  0.00     0.119 C 
BRANCH   8   9
ATOM      9  C   LIG d   1       1.023  84.136 109.570  0.00  0.00     0.028 C 
ATOM     10  C   LIG d   1       0.548  85.322 108.714  0.00  0.00     0.006 C 
ENDBRANCH   8   9
BRANCH   8  11
ATOM     11  C   LIG d   1       2.573  82.379 108.877  0.00  0.00     0.028 C 
ATOM     12  C   LIG d   1       3.994  81.930 108.500  0.00  0.00     0.006 C 
ENDBRANCH   8  11
ENDBRANCH   7   8
ENDBRANCH   1   7
BRANCH   6  13
ATOM     13  N   LIG d   1       1.295  82.858 112.733  0.00  0.00    -0.311 N 
ATOM     14  C   LIG d   1       1.587  81.595 112.425  0.00  0.00     0.210 C 
ATOM     15  C   LIG d   1       0.373  80.683 112.220  0.00  0.00     0.109 C 
ATOM     16  O   LIG d   1       2.735  81.137 112.334  0.00  0.00    -0.276 OA
ATOM     17  H   LIG d   1       0.337  83.136 112.818  0.00  0.00     0.149 HD
ENDBRANCH   6  13
BRANCH   5  18
ATOM     18  N   LIG d   1       1.991  84.078 115.446  0.00  0.00     0.381 N 
ATOM     19  H   LIG d   1       2.628  83.307 115.400  0.00  0.00    -0.090 HD
ATOM     20  H   LIG d   1       1.068  83.715 115.608  0.00  0.00    -0.090 HD
ATOM     21  H   LIG d   1       2.251  84.689 116.189  0.00  0.00    -0.090 HD
ENDBRANCH   5  18
BRANCH   3  22
ATOM     22  C   LIG d   1       3.650  87.925 113.126  0.00  0.00     0.382 C 
ATOM     23  O   LIG d   1       4.837  88.239 112.871  0.00  0.00    -0.241 OA
ATOM     24  O   LIG d   1       2.844  88.808 113.477  0.00  0.00    -0.241 OA
ENDBRANCH   3  22
TORSDOF 7
ENDMDL
MODEL 4
REMARK VINA RESULT:      -6.1      2.818      3.909
REMARK  7 active torsions:
REMARK  status: ('A' for Active; 'I' for Inactive)
REMARK    1  A    between atoms: C_2  and  C_3 
REMARK    2  A    between atoms: C_3  and  O_6 
REMARK    3  A    between atoms: C_3  and  C_4 
REMARK    4  A    between atoms: C_7  and  O_6 
REMARK    5  A    between atoms: C_9  and  C_10 
REMARK    6  A    between atoms: N_15  and  C_14 
REMARK    7  A    between atoms: N_20  and  C_19 
REMARK       I    between atoms: C_22  and  N_20 
ROOT
ATOM      1  C   LIG d   1       2.708  82.762 110.562  0.00  0.00     0.161 C 
ATOM      2  C   LIG d   1       2.169  81.973 109.532  0.00  0.00     0.016 C 
ATOM      3  C   LIG d   1       1.272  80.904 109.758  0.00  0.00     0.038 C 
ATOM      4  C   LIG d   1       0.732  80.646 111.027  0.00  0.00     0.028 C 
ATOM      5  C   LIG d   1       1.634  81.094 112.172  0.00  0.00    -0.047 C 
ATOM      6  C   LIG d   1       2.044  82.566 111.941  0.00  0.00     0.091 C 
ENDROOT
BRANCH   1   7
ATOM      7  O   LIG d   1       2.673  84.152 110.182  0.00  0.00    -0.368 OA
BRANCH   7   8
ATOM      8  C   LIG d   1       1.486  84.888 110.565  0.00  0.00     0.119 C 
BRANCH   8   9
ATOM      9  C   LIG d   1       0.744  85.277 109.272  0.00  0.00     0.028 C 
ATOM     10  C   LIG d   1      -0.715  85.687 109.532  0.00  0.00     0.006 C 
ENDBRANCH   8   9
BRANCH   8  11
ATOM     11  C   LIG d   1       1.846  86.215 111.241  0.00  0.00     0.028 C 
ATOM     12  C   LIG d   1       3.333  86.307 111.618  0.00  0.00     0.006 C 
ENDBRANCH   8  11
ENDBRANCH   7   8
ENDBRANCH   1   7
BRANCH   6  13
ATOM     13  N   LIG d   1       2.995  83.058 112.972  0.00  0.00    -0.311 N 
ATOM     14  C   LIG d   1       2.620  83.761 114.039  0.00  0.00     0.210 C 
ATOM     15  C   LIG d   1       3.762  84.187 114.967  0.00  0.00     0.109 C 
ATOM     16  O   LIG d   1       1.446  84.044 114.323  0.00  0.00    -0.276 OA
ATOM     17  H   LIG d   1       3.964  82.847 112.836  0.00  0.00     0.149 HD
ENDBRANCH   6  13
BRANCH   5  18
ATOM     18  N   LIG d   1       0.891  80.892 113.430  0.00  0.00     0.381 N 
ATOM     19  H   LIG d   1       1.324  80.166 113.966  0.00  0.00    -0.090 HD
ATOM     20  H   LIG d   1      -0.047  80.605 113.211  0.00  0.00    -0.090 HD
ATOM     21  H   LIG d   1       0.873  81.738 113.956  0.00  0.00    -0.090 HD
ENDBRANCH   5  18
BRANCH   3  22
ATOM     22  C   LIG d   1       0.938  80.055 108.715  0.00  0.00     0.382 C 
ATOM     23  O   LIG d   1       1.813  79.316 108.203  0.00  0.00    -0.241 OA
ATOM     24  O   LIG d   1      -0.217  80.050 108.249  0.00  0.00    -0.241 OA
ENDBRANCH   3  22
TORSDOF 7
ENDMDL
MODEL 5
REMARK VINA RESULT:      -6.1      2.297      5.693
REMARK  7 active torsions:
REMARK  status: ('A' for Active; 'I' for Inactive)
REMARK    1  A    between atoms: C_2  and  C_3 
REMARK    2  A    between atoms: C_3  and  O_6 
REMARK    3  A    between atoms: C_3  and  C_4 
REMARK    4  A    between atoms: C_7  and  O_6 
REMARK    5  A    between atoms: C_9  and  C_10 
REMARK    6  A    between atoms: N_15  and  C_14 
REMARK    7  A    between atoms: N_20  and  C_19 
REMARK       I    between atoms: C_22  and  N_20 
ROOT
ATOM      1  C   LIG d   1       1.108  82.897 110.361  0.00  0.00     0.161 C 
ATOM      2  C   LIG d   1       1.721  84.159 110.283  0.00  0.00     0.016 C 
ATOM      3  C   LIG d   1       2.423  84.751 111.358  0.00  0.00     0.038 C 
ATOM      4  C   LIG d   1       2.692  84.050 112.543  0.00  0.00     0.028 C 
ATOM      5  C   LIG d   1       1.662  82.969 112.854  0.00  0.00    -0.047 C 
ATOM      6  C   LIG d   1       1.485  82.071 111.608  0.00  0.00     0.091 C 
ENDROOT
BRANCH   1   7
ATOM      7  O   LIG d   1       1.381  82.146 109.161  0.00  0.00    -0.368 OA
BRANCH   7   8
ATOM      8  C   LIG d   1       2.353  81.079 109.285  0.00  0.00     0.119 C 
BRANCH   8   9
ATOM      9  C   LIG d   1       3.562  81.449 108.405  0.00  0.00     0.028 C 
ATOM     10  C   LIG d   1       4.635  82.231 109.181  0.00  0.00     0.006 C 
ENDBRANCH   8   9
BRANCH   8  11
ATOM     11  C   LIG d   1       1.816  79.767 108.706  0.00  0.00     0.028 C 
ATOM     12  C   LIG d   1       0.332  79.850 108.317  0.00  0.00     0.006 C 
ENDBRANCH   8  11
ENDBRANCH   7   8
ENDBRANCH   1   7
BRANCH   6  13
ATOM     13  N   LIG d   1       0.433  81.039 111.799  0.00  0.00    -0.311 N 
ATOM     14  C   LIG d   1      -0.863  81.324 111.908  0.00  0.00     0.210 C 
ATOM     15  C   LIG d   1      -1.776  80.113 112.119  0.00  0.00     0.109 C 
ATOM     16  O   LIG d   1      -1.347  82.463 111.817  0.00  0.00    -0.276 OA
ATOM     17  H   LIG d   1       0.734  80.085 111.852  0.00  0.00     0.149 HD
ENDBRANCH   6  13
BRANCH   5  18
ATOM     18  N   LIG d   1       2.137  82.229 114.038  0.00  0.00     0.381 N 
ATOM     19  H   LIG d   1       3.102  81.987 113.922  0.00  0.00    -0.090 HD
ATOM     20  H   LIG d   1       1.608  81.379 114.124  0.00  0.00    -0.090 HD
ATOM     21  H   LIG d   1       2.023  82.784 114.857  0.00  0.00    -0.090 HD
ENDBRANCH   5  18
BRANCH   3  22
ATOM     22  C   LIG d   1       2.832  86.073 111.267  0.00  0.00     0.382 C 
ATOM     23  O   LIG d   1       2.008  86.962 110.945  0.00  0.00    -0.241 OA
ATOM     24  O   LIG d   1       4.023  86.381 111.460  0.00  0.00    -0.241 OA
ENDBRANCH   3  22
TORSDOF 7
ENDMDL
MODEL 6
REMARK VINA RESULT:      -5.9      3.139      5.372
REMARK  7 active torsions:
REMARK  status: ('A' for Active; 'I' for Inactive)
REMARK    1  A    between atoms: C_2  and  C_3 
REMARK    2  A    between atoms: C_3  and  O_6 
REMARK    3  A    between atoms: C_3  and  C_4 
REMARK    4  A    between atoms: C_7  and  O_6 
REMARK    5  A    between atoms: C_9  and  C_10 
REMARK    6  A    between atoms: N_15  and  C_14 
REMARK    7  A    between atoms: N_20  and  C_19 
REMARK       I    between atoms: C_22  and  N_20 
ROOT
ATOM      1  C   LIG d   1       1.392  82.586 111.801  0.00  0.00     0.161 C 
ATOM      2  C   LIG d   1       0.900  83.260 110.671  0.00  0.00     0.016 C 
ATOM      3  C   LIG d   1       0.720  84.661 110.617  0.00  0.00     0.038 C 
ATOM      4  C   LIG d   1       1.165  85.505 111.645  0.00  0.00     0.028 C 
ATOM      5  C   LIG d   1       1.205  84.829 113.011  0.00  0.00    -0.047 C 
ATOM      6  C   LIG d   1       1.988  83.502 112.891  0.00  0.00     0.091 C 
ENDROOT
BRANCH   1   7
ATOM      7  O   LIG d   1       2.358  81.595 111.397  0.00  0.00    -0.368 OA
BRANCH   7   8
ATOM      8  C   LIG d   1       2.493  81.382 109.970  0.00  0.00     0.119 C 
BRANCH   8   9
ATOM      9  C   LIG d   1       1.837  80.027 109.640  0.00  0.00     0.028 C 
ATOM     10  C   LIG d   1       0.672  80.165 108.646  0.00  0.00     0.006 C 
ENDBRANCH   8   9
BRANCH   8  11
ATOM     11  C   LIG d   1       3.962  81.230 109.566  0.00  0.00     0.028 C 
ATOM     12  C   LIG d   1       4.421  82.308 108.570  0.00  0.00     0.006 C 
ENDBRANCH   8  11
ENDBRANCH   7   8
ENDBRANCH   1   7
BRANCH   6  13
ATOM     13  N   LIG d   1       2.003  82.735 114.164  0.00  0.00    -0.311 N 
ATOM     14  C   LIG d   1       3.023  82.754 115.020  0.00  0.00     0.210 C 
ATOM     15  C   LIG d   1       2.841  81.876 116.262  0.00  0.00     0.109 C 
ATOM     16  O   LIG d   1       4.047  83.440 114.884  0.00  0.00    -0.276 OA
ATOM     17  H   LIG d   1       1.198  82.175 114.368  0.00  0.00     0.149 HD
ENDBRANCH   6  13
BRANCH   5  18
ATOM     18  N   LIG d   1       1.817  85.777 113.961  0.00  0.00     0.381 N 
ATOM     19  H   LIG d   1       1.676  85.456 114.898  0.00  0.00    -0.090 HD
ATOM     20  H   LIG d   1       1.368  86.671 113.862  0.00  0.00    -0.090 HD
ATOM     21  H   LIG d   1       2.792  85.865 113.774  0.00  0.00    -0.090 HD
ENDBRANCH   5  18
BRANCH   3  22
ATOM     22  C   LIG d   1       0.051  85.227 109.543  0.00  0.00     0.382 C 
ATOM     23  O   LIG d   1       0.628  85.343 108.435  0.00  0.00    -0.241 OA
ATOM     24  O   LIG d   1      -1.108  85.665 109.679  0.00  0.00    -0.241 OA
ENDBRANCH   3  22
TORSDOF 7
ENDMDL
MODEL 7
REMARK VINA RESULT:      -5.9      2.231      5.087
REMARK  7 active torsions:
REMARK  status: ('A' for Active; 'I' for Inactive)
REMARK    1  A    between atoms: C_2  and  C_3 
REMARK    2  A    between atoms: C_3  and  O_6 
REMARK    3  A    between atoms: C_3  and  C_4 
REMARK    4  A    between atoms: C_7  and  O_6 
REMARK    5  A    between atoms: C_9  and  C_10 
REMARK    6  A    between atoms: N_15  and  C_14 
REMARK    7  A    between atoms: N_20  and  C_19 
REMARK       I    between atoms: C_22  and  N_20 
ROOT
ATOM      1  C   LIG d   1      -0.063  82.102 111.229  0.00  0.00     0.161 C 
ATOM      2  C   LIG d   1      -0.510  83.343 111.712  0.00  0.00     0.016 C 
ATOM      3  C   LIG d   1      -0.114  84.582 111.159  0.00  0.00     0.038 C 
ATOM      4  C   LIG d   1       0.643  84.660 109.981  0.00  0.00     0.028 C 
ATOM      5  C   LIG d   1       1.533  83.442 109.751  0.00  0.00    -0.047 C 
ATOM      6  C   LIG d   1       0.674  82.163 109.875  0.00  0.00     0.091 C 
ENDROOT
BRANCH   1   7
ATOM      7  O   LIG d   1      -1.168  81.179 111.156  0.00  0.00    -0.368 OA
BRANCH   7   8
ATOM      8  C   LIG d   1      -1.566  80.561 112.405  0.00  0.00     0.119 C 
BRANCH   8   9
ATOM      9  C   LIG d   1      -0.310  79.914 113.021  0.00  0.00     0.028 C 
ATOM     10  C   LIG d   1      -0.607  79.213 114.357  0.00  0.00     0.006 C 
ENDBRANCH   8   9
BRANCH   8  11
ATOM     11  C   LIG d   1      -2.543  79.405 112.168  0.00  0.00     0.028 C 
ATOM     12  C   LIG d   1      -2.022  78.385 111.143  0.00  0.00     0.006 C 
ENDBRANCH   8  11
ENDBRANCH   7   8
ENDBRANCH   1   7
BRANCH   6  13
ATOM     13  N   LIG d   1       1.483  80.923 109.747  0.00  0.00    -0.311 N 
ATOM     14  C   LIG d   1       1.202  79.950 108.881  0.00  0.00     0.210 C 
ATOM     15  C   LIG d   1       2.153  78.750 108.927  0.00  0.00     0.109 C 
ATOM     16  O   LIG d   1       0.275  79.982 108.058  0.00  0.00    -0.276 OA
ATOM     17  H   LIG d   1       2.273  80.828 110.355  0.00  0.00     0.149 HD
ENDBRANCH   6  13
BRANCH   5  18
ATOM     18  N   LIG d   1       2.159  83.592 108.424  0.00  0.00     0.381 N 
ATOM     19  H   LIG d   1       3.153  83.641 108.522  0.00  0.00    -0.090 HD
ATOM     20  H   LIG d   1       1.840  84.451 108.009  0.00  0.00    -0.090 HD
ATOM     21  H   LIG d   1       1.912  82.822 107.841  0.00  0.00    -0.090 HD
ENDBRANCH   5  18
BRANCH   3  22
ATOM     22  C   LIG d   1      -0.442  85.761 111.810  0.00  0.00     0.382 C 
ATOM     23  O   LIG d   1      -0.081  86.863 111.331  0.00  0.00    -0.241 OA
ATOM     24  O   LIG d   1      -1.057  85.735 112.893  0.00  0.00    -0.241 OA
ENDBRANCH   3  22
TORSDOF 7
ENDMDL
MODEL 8
REMARK VINA RESULT:      -5.6      2.355      4.478
REMARK  7 active torsions:
REMARK  status: ('A' for Active; 'I' for Inactive)
REMARK    1  A    between atoms: C_2  and  C_3 
REMARK    2  A    between atoms: C_3  and  O_6 
REMARK    3  A    between atoms: C_3  and  C_4 
REMARK    4  A    between atoms: C_7  and  O_6 
REMARK    5  A    between atoms: C_9  and  C_10 
REMARK    6  A    between atoms: N_15  and  C_14 
REMARK    7  A    between atoms: N_20  and  C_19 
REMARK       I    between atoms: C_22  and  N_20 
ROOT
ATOM      1  C   LIG d   1       1.981  82.793 111.940  0.00  0.00     0.161 C 
ATOM      2  C   LIG d   1       0.939  81.855 111.851  0.00  0.00     0.016 C 
ATOM      3  C   LIG d   1      -0.428  82.213 111.811  0.00  0.00     0.038 C 
ATOM      4  C   LIG d   1      -0.842  83.549 111.704  0.00  0.00     0.028 C 
ATOM      5  C   LIG d   1       0.152  84.541 112.299  0.00  0.00    -0.047 C 
ATOM      6  C   LIG d   1       1.554  84.258 111.712  0.00  0.00     0.091 C 
ENDROOT
BRANCH   1   7
ATOM      7  O   LIG d   1       3.041  82.433 111.031  0.00  0.00    -0.368 OA
BRANCH   7   8
ATOM      8  C   LIG d   1       2.832  81.229 110.253  0.00  0.00     0.119 C 
BRANCH   8   9
ATOM      9  C   LIG d   1       4.177  80.863 109.596  0.00  0.00     0.028 C 
ATOM     10  C   LIG d   1       4.755  82.017 108.759  0.00  0.00     0.006 C 
ENDBRANCH   8   9
BRANCH   8  11
ATOM     11  C   LIG d   1       1.867  81.478 109.090  0.00  0.00     0.028 C 
ATOM     12  C   LIG d   1       1.086  80.219 108.683  0.00  0.00     0.006 C 
ENDBRANCH   8  11
ENDBRANCH   7   8
ENDBRANCH   1   7
BRANCH   6  13
ATOM     13  N   LIG d   1       2.602  85.130 112.304  0.00  0.00    -0.311 N 
ATOM     14  C   LIG d   1       2.889  86.347 111.846  0.00  0.00     0.210 C 
ATOM     15  C   LIG d   1       4.018  87.068 112.589  0.00  0.00     0.109 C 
ATOM     16  O   LIG d   1       2.293  86.911 110.916  0.00  0.00    -0.276 OA
ATOM     17  H   LIG d   1       3.114  84.763 113.083  0.00  0.00     0.149 HD
ENDBRANCH   6  13
BRANCH   5  18
ATOM     18  N   LIG d   1      -0.338  85.899 111.997  0.00  0.00     0.381 N 
ATOM     19  H   LIG d   1      -1.248  85.846 111.584  0.00  0.00    -0.090 HD
ATOM     20  H   LIG d   1       0.284  86.330 111.336  0.00  0.00    -0.090 HD
ATOM     21  H   LIG d   1      -0.375  86.442 112.831  0.00  0.00    -0.090 HD
ENDBRANCH   5  18
BRANCH   3  22
ATOM     22  C   LIG d   1      -1.399  81.229 111.918  0.00  0.00     0.382 C 
ATOM     23  O   LIG d   1      -1.159  80.065 111.517  0.00  0.00    -0.241 OA
ATOM     24  O   LIG d   1      -2.527  81.502 112.371  0.00  0.00    -0.241 OA
ENDBRANCH   3  22
TORSDOF 7
ENDMDL
MODEL 9
REMARK VINA RESULT:      -5.5      1.760      4.690
REMARK  7 active torsions:
REMARK  status: ('A' for Active; 'I' for Inactive)
REMARK    1  A    between atoms: C_2  and  C_3 
REMARK    2  A    between atoms: C_3  and  O_6 
REMARK    3  A    between atoms: C_3  and  C_4 
REMARK    4  A    between atoms: C_7  and  O_6 
REMARK    5  A    between atoms: C_9  and  C_10 
REMARK    6  A    between atoms: N_15  and  C_14 
REMARK    7  A    between atoms: N_20  and  C_19 
REMARK       I    between atoms: C_22  and  N_20 
ROOT
ATOM      1  C   LIG d   1       1.249  82.639 111.117  0.00  0.00     0.161 C 
ATOM      2  C   LIG d   1       2.564  82.480 110.648  0.00  0.00     0.016 C 
ATOM      3  C   LIG d   1       2.922  81.566 109.632  0.00  0.00     0.038 C 
ATOM      4  C   LIG d   1       1.959  80.851 108.905  0.00  0.00     0.028 C 
ATOM      5  C   LIG d   1       0.671  80.605 109.684  0.00  0.00    -0.047 C 
ATOM      6  C   LIG d   1       0.168  81.948 110.259  0.00  0.00     0.091 C 
ENDROOT
BRANCH   1   7
ATOM      7  O   LIG d   1       0.949  84.041 111.266  0.00  0.00    -0.368 OA
BRANCH   7   8
ATOM      8  C   LIG d   1       0.719  84.504 112.620  0.00  0.00     0.119 C 
BRANCH   8   9
ATOM      9  C   LIG d   1      -0.423  85.538 112.568  0.00  0.00     0.028 C 
ATOM     10  C   LIG d   1      -0.537  86.217 111.192  0.00  0.00     0.006 C 
ENDBRANCH   8   9
BRANCH   8  11
ATOM     11  C   LIG d   1       1.932  85.265 113.163  0.00  0.00     0.028 C 
ATOM     12  C   LIG d   1       1.952  85.336 114.698  0.00  0.00     0.006 C 
ENDBRANCH   8  11
ENDBRANCH   7   8
ENDBRANCH   1   7
BRANCH   6  13
ATOM     13  N   LIG d   1      -1.042  81.785 111.106  0.00  0.00    -0.311 N 
ATOM     14  C   LIG d   1      -1.217  80.765 111.945  0.00  0.00     0.210 C 
ATOM     15  C   LIG d   1      -2.545  80.777 112.709  0.00  0.00     0.109 C 
ATOM     16  O   LIG d   1      -0.385  79.869 112.153  0.00  0.00    -0.276 OA
ATOM     17  H   LIG d   1      -1.754  82.484 111.024  0.00  0.00     0.149 HD
ENDBRANCH   6  13
BRANCH   5  18
ATOM     18  N   LIG d   1      -0.293  79.973 108.763  0.00  0.00     0.381 N 
ATOM     19  H   LIG d   1       0.181  79.657 107.941  0.00  0.00    -0.090 HD
ATOM     20  H   LIG d   1      -0.977  80.657 108.489  0.00  0.00    -0.090 HD
ATOM     21  H   LIG d   1      -0.742  79.206 109.213  0.00  0.00    -0.090 HD
ENDBRANCH   5  18
BRANCH   3  22
ATOM     22  C   LIG d   1       4.261  81.330 109.361  0.00  0.00     0.382 C 
ATOM     23  O   LIG d   1       5.024  82.288 109.089  0.00  0.00    -0.241 OA
ATOM     24  O   LIG d   1       4.706  80.166 109.341  0.00  0.00    -0.241 OA
ENDBRANCH   3  22
TORSDOF 7
ENDMDL
