MODEL 1
REMARK VINA RESULT:      -5.7      0.000      0.000
REMARK  7 active torsions:
REMARK  status: ('A' for Active; 'I' for Inactive)
REMARK    1  A    between atoms: C_2  and  C_3 
REMARK    2  A    between atoms: C_3  and  O_6 
REMARK    3  A    between atoms: C_3  and  C_4 
REMARK    4  A    between atoms: C_7  and  O_6 
REMARK    5  A    between atoms: C_9  and  C_10 
REMARK    6  A    between atoms: N_15  and  C_14 
REMARK    7  A    between atoms: N_20  and  C_19 
REMARK       I    between atoms: C_22  and  N_20 
ROOT
ATOM      1  C   LIG d   1      -5.787  76.058 116.932  0.00  0.00     0.161 C 
ATOM      2  C   LIG d   1      -6.115  74.787 116.431  0.00  0.00     0.016 C 
ATOM      3  C   LIG d   1      -7.428  74.261 116.443  0.00  0.00     0.038 C 
ATOM      4  C   LIG d   1      -8.533  75.037 116.822  0.00  0.00     0.028 C 
ATOM      5  C   LIG d   1      -8.185  76.147 117.808  0.00  0.00    -0.047 C 
ATOM      6  C   LIG d   1      -6.997  76.961 117.247  0.00  0.00     0.091 C 
ENDROOT
BRANCH   1   7
ATOM      7  O   LIG d   1      -4.887  76.724 116.023  0.00  0.00    -0.368 OA
BRANCH   7   8
ATOM      8  C   LIG d   1      -3.695  75.989 115.654  0.00  0.00     0.119 C 
BRANCH   8   9
ATOM      9  C   LIG d   1      -2.648  76.218 116.762  0.00  0.00     0.028 C 
ATOM     10  C   LIG d   1      -2.342  74.936 117.554  0.00  0.00     0.006 C 
ENDBRANCH   8   9
BRANCH   8  11
ATOM     11  C   LIG d   1      -3.064  76.555 114.378  0.00  0.00     0.028 C 
ATOM     12  C   LIG d   1      -1.533  76.648 114.461  0.00  0.00     0.006 C 
ENDBRANCH   8  11
ENDBRANCH   7   8
ENDBRANCH   1   7
BRANCH   6  13
ATOM     13  N   LIG d   1      -6.538  78.015 118.189  0.00  0.00    -0.311 N 
ATOM     14  C   LIG d   1      -6.994  79.266 118.168  0.00  0.00     0.210 C 
ATOM     15  C   LIG d   1      -6.374  80.199 119.213  0.00  0.00     0.109 C 
ATOM     16  O   LIG d   1      -7.878  79.684 117.404  0.00  0.00    -0.276 OA
ATOM     17  H   LIG d   1      -5.845  77.755 118.863  0.00  0.00     0.149 HD
ENDBRANCH   6  13
BRANCH   5  18
ATOM     18  N   LIG d   1      -9.399  76.960 118.010  0.00  0.00     0.381 N 
ATOM     19  H   LIG d   1      -9.151  77.925 118.092  0.00  0.00    -0.090 HD
ATOM     20  H   LIG d   1      -9.843  76.675 118.865  0.00  0.00    -0.090 HD
ATOM     21  H   LIG d   1     -10.025  76.835 117.245  0.00  0.00    -0.090 HD
ENDBRANCH   5  18
BRANCH   3  22
ATOM     22  C   LIG d   1      -7.638  72.932 116.110  0.00  0.00     0.382 C 
ATOM     23  O   LIG d   1      -6.760  72.297 115.477  0.00  0.00    -0.241 OA
ATOM     24  O   LIG d   1      -8.714  72.372 116.395  0.00  0.00    -0.241 OA
ENDBRANCH   3  22
TORSDOF 7
ENDMDL
MODEL 2
REMARK VINA RESULT:      -5.7     13.340     14.722
REMARK  7 active torsions:
REMARK  status: ('A' for Active; 'I' for Inactive)
REMARK    1  A    between atoms: C_2  and  C_3 
REMARK    2  A    between atoms: C_3  and  O_6 
REMARK    3  A    between atoms: C_3  and  C_4 
REMARK    4  A    between atoms: C_7  and  O_6 
REMARK    5  A    between atoms: C_9  and  C_10 
REMARK    6  A    between atoms: N_15  and  C_14 
REMARK    7  A    between atoms: N_20  and  C_19 
REMARK       I    between atoms: C_22  and  N_20 
ROOT
ATOM      1  C   LIG d   1      -3.304  89.949 117.871  0.00  0.00     0.161 C 
ATOM      2  C   LIG d   1      -3.734  89.209 116.757  0.00  0.00     0.016 C 
ATOM      3  C   LIG d   1      -4.857  89.563 115.974  0.00  0.00     0.038 C 
ATOM      4  C   LIG d   1      -5.542  90.773 116.163  0.00  0.00     0.028 C 
ATOM      5  C   LIG d   1      -5.455  91.301 117.591  0.00  0.00    -0.047 C 
ATOM      6  C   LIG d   1      -3.972  91.332 118.026  0.00  0.00     0.091 C 
ENDROOT
BRANCH   1   7
ATOM      7  O   LIG d   1      -1.870  90.086 117.843  0.00  0.00    -0.368 OA
BRANCH   7   8
ATOM      8  C   LIG d   1      -1.119  89.068 118.550  0.00  0.00     0.119 C 
BRANCH   8   9
ATOM      9  C   LIG d   1      -0.851  89.595 119.973  0.00  0.00     0.028 C 
ATOM     10  C   LIG d   1      -1.814  88.996 121.012  0.00  0.00     0.006 C 
ENDBRANCH   8   9
BRANCH   8  11
ATOM     11  C   LIG d   1       0.264  88.862 117.926  0.00  0.00     0.028 C 
ATOM     12  C   LIG d   1       0.599  89.915 116.858  0.00  0.00     0.006 C 
ENDBRANCH   8  11
ENDBRANCH   7   8
ENDBRANCH   1   7
BRANCH   6  13
ATOM     13  N   LIG d   1      -3.804  91.757 119.440  0.00  0.00    -0.311 N 
ATOM     14  C   LIG d   1      -2.875  92.623 119.840  0.00  0.00     0.210 C 
ATOM     15  C   LIG d   1      -2.862  92.908 121.345  0.00  0.00     0.109 C 
ATOM     16  O   LIG d   1      -2.081  93.206 119.087  0.00  0.00    -0.276 OA
ATOM     17  H   LIG d   1      -4.427  91.356 120.113  0.00  0.00     0.149 HD
ENDBRANCH   6  13
BRANCH   5  18
ATOM     18  N   LIG d   1      -6.092  92.631 117.614  0.00  0.00     0.381 N 
ATOM     19  H   LIG d   1      -6.180  92.948 118.559  0.00  0.00    -0.090 HD
ATOM     20  H   LIG d   1      -7.014  92.557 117.220  0.00  0.00    -0.090 HD
ATOM     21  H   LIG d   1      -5.549  93.278 117.087  0.00  0.00    -0.090 HD
ENDBRANCH   5  18
BRANCH   3  22
ATOM     22  C   LIG d   1      -5.330  88.682 115.014  0.00  0.00     0.382 C 
ATOM     23  O   LIG d   1      -4.535  87.910 114.425  0.00  0.00    -0.241 OA
ATOM     24  O   LIG d   1      -6.535  88.679 114.697  0.00  0.00    -0.241 OA
ENDBRANCH   3  22
TORSDOF 7
ENDMDL
MODEL 3
REMARK VINA RESULT:      -5.6      2.225      4.755
REMARK  7 active torsions:
REMARK  status: ('A' for Active; 'I' for Inactive)
REMARK    1  A    between atoms: C_2  and  C_3 
REMARK    2  A    between atoms: C_3  and  O_6 
REMARK    3  A    between atoms: C_3  and  C_4 
REMARK    4  A    between atoms: C_7  and  O_6 
REMARK    5  A    between atoms: C_9  and  C_10 
REMARK    6  A    between atoms: N_15  and  C_14 
REMARK    7  A    between atoms: N_20  and  C_19 
REMARK       I    between atoms: C_22  and  N_20 
ROOT
ATOM      1  C   LIG d   1      -6.870  76.905 117.531  0.00  0.00     0.161 C 
ATOM      2  C   LIG d   1      -5.812  76.833 116.609  0.00  0.00     0.016 C 
ATOM      3  C   LIG d   1      -5.555  75.697 115.807  0.00  0.00     0.038 C 
ATOM      4  C   LIG d   1      -6.436  74.606 115.763  0.00  0.00     0.028 C 
ATOM      5  C   LIG d   1      -7.239  74.423 117.047  0.00  0.00    -0.047 C 
ATOM      6  C   LIG d   1      -7.906  75.768 117.416  0.00  0.00     0.091 C 
ENDROOT
BRANCH   1   7
ATOM      7  O   LIG d   1      -7.520  78.187 117.428  0.00  0.00    -0.368 OA
BRANCH   7   8
ATOM      8  C   LIG d   1      -7.205  79.146 118.468  0.00  0.00     0.119 C 
BRANCH   8   9
ATOM      9  C   LIG d   1      -8.514  79.464 119.217  0.00  0.00     0.028 C 
ATOM     10  C   LIG d   1      -9.700  79.677 118.261  0.00  0.00     0.006 C 
ENDBRANCH   8   9
BRANCH   8  11
ATOM     11  C   LIG d   1      -6.744  80.481 117.874  0.00  0.00     0.028 C 
ATOM     12  C   LIG d   1      -5.277  80.455 117.418  0.00  0.00     0.006 C 
ENDBRANCH   8  11
ENDBRANCH   7   8
ENDBRANCH   1   7
BRANCH   6  13
ATOM     13  N   LIG d   1      -8.643  75.699 118.705  0.00  0.00    -0.311 N 
ATOM     14  C   LIG d   1      -9.934  76.005 118.829  0.00  0.00     0.210 C 
ATOM     15  C   LIG d   1     -10.493  75.886 120.251  0.00  0.00     0.109 C 
ATOM     16  O   LIG d   1     -10.676  76.332 117.891  0.00  0.00    -0.276 OA
ATOM     17  H   LIG d   1      -8.125  75.413 119.512  0.00  0.00     0.149 HD
ENDBRANCH   6  13
BRANCH   5  18
ATOM     18  N   LIG d   1      -8.212  73.339 116.814  0.00  0.00     0.381 N 
ATOM     19  H   LIG d   1      -8.871  73.309 117.565  0.00  0.00    -0.090 HD
ATOM     20  H   LIG d   1      -7.722  72.463 116.789  0.00  0.00    -0.090 HD
ATOM     21  H   LIG d   1      -8.687  73.488 115.951  0.00  0.00    -0.090 HD
ENDBRANCH   5  18
BRANCH   3  22
ATOM     22  C   LIG d   1      -4.385  75.629 115.067  0.00  0.00     0.382 C 
ATOM     23  O   LIG d   1      -3.273  75.688 115.645  0.00  0.00    -0.241 OA
ATOM     24  O   LIG d   1      -4.426  75.554 113.824  0.00  0.00    -0.241 OA
ENDBRANCH   3  22
TORSDOF 7
ENDMDL
MODEL 4
REMARK VINA RESULT:      -5.6      2.650      4.634
REMARK  7 active torsions:
REMARK  status: ('A' for Active; 'I' for Inactive)
REMARK    1  A    between atoms: C_2  and  C_3 
REMARK    2  A    between atoms: C_3  and  O_6 
REMARK    3  A    between atoms: C_3  and  C_4 
REMARK    4  A    between atoms: C_7  and  O_6 
REMARK    5  A    between atoms: C_9  and  C_10 
REMARK    6  A    between atoms: N_15  and  C_14 
REMARK    7  A    between atoms: N_20  and  C_19 
REMARK       I    between atoms: C_22  and  N_20 
ROOT
ATOM      1  C   LIG d   1      -6.433  76.975 118.369  0.00  0.00     0.161 C 
ATOM      2  C   LIG d   1      -7.804  76.981 118.676  0.00  0.00     0.016 C 
ATOM      3  C   LIG d   1      -8.623  78.127 118.555  0.00  0.00     0.038 C 
ATOM      4  C   LIG d   1      -8.156  79.314 117.971  0.00  0.00     0.028 C 
ATOM      5  C   LIG d   1      -6.650  79.508 118.113  0.00  0.00    -0.047 C 
ATOM      6  C   LIG d   1      -5.932  78.230 117.624  0.00  0.00     0.091 C 
ENDROOT
BRANCH   1   7
ATOM      7  O   LIG d   1      -6.106  75.785 117.623  0.00  0.00    -0.368 OA
BRANCH   7   8
ATOM      8  C   LIG d   1      -7.191  75.181 116.877  0.00  0.00     0.119 C 
BRANCH   8   9
ATOM      9  C   LIG d   1      -7.235  73.687 117.252  0.00  0.00     0.028 C 
ATOM     10  C   LIG d   1      -8.120  72.869 116.297  0.00  0.00     0.006 C 
ENDBRANCH   8   9
BRANCH   8  11
ATOM     11  C   LIG d   1      -6.917  75.213 115.371  0.00  0.00     0.028 C 
ATOM     12  C   LIG d   1      -5.417  75.185 115.037  0.00  0.00     0.006 C 
ENDBRANCH   8  11
ENDBRANCH   7   8
ENDBRANCH   1   7
BRANCH   6  13
ATOM     13  N   LIG d   1      -4.458  78.302 117.807  0.00  0.00    -0.311 N 
ATOM     14  C   LIG d   1      -3.618  78.682 116.847  0.00  0.00     0.210 C 
ATOM     15  C   LIG d   1      -2.137  78.668 117.240  0.00  0.00     0.109 C 
ATOM     16  O   LIG d   1      -3.960  79.061 115.716  0.00  0.00    -0.276 OA
ATOM     17  H   LIG d   1      -4.097  78.043 118.704  0.00  0.00     0.149 HD
ENDBRANCH   6  13
BRANCH   5  18
ATOM     18  N   LIG d   1      -6.281  80.710 117.342  0.00  0.00     0.381 N 
ATOM     19  H   LIG d   1      -5.731  81.322 117.911  0.00  0.00    -0.090 HD
ATOM     20  H   LIG d   1      -7.119  81.195 117.075  0.00  0.00    -0.090 HD
ATOM     21  H   LIG d   1      -5.767  80.449 116.529  0.00  0.00    -0.090 HD
ENDBRANCH   5  18
BRANCH   3  22
ATOM     22  C   LIG d   1      -9.915  78.105 119.059  0.00  0.00     0.382 C 
ATOM     23  O   LIG d   1     -10.268  78.951 119.917  0.00  0.00    -0.241 OA
ATOM     24  O   LIG d   1     -10.718  77.223 118.701  0.00  0.00    -0.241 OA
ENDBRANCH   3  22
TORSDOF 7
ENDMDL
MODEL 5
REMARK VINA RESULT:      -5.5      2.482      4.193
REMARK  7 active torsions:
REMARK  status: ('A' for Active; 'I' for Inactive)
REMARK    1  A    between atoms: C_2  and  C_3 
REMARK    2  A    between atoms: C_3  and  O_6 
REMARK    3  A    between atoms: C_3  and  C_4 
REMARK    4  A    between atoms: C_7  and  O_6 
REMARK    5  A    between atoms: C_9  and  C_10 
REMARK    6  A    between atoms: N_15  and  C_14 
REMARK    7  A    between atoms: N_20  and  C_19 
REMARK       I    between atoms: C_22  and  N_20 
ROOT
ATOM      1  C   LIG d   1      -6.388  77.726 117.688  0.00  0.00     0.161 C 
ATOM      2  C   LIG d   1      -7.696  77.306 117.981  0.00  0.00     0.016 C 
ATOM      3  C   LIG d   1      -8.733  78.192 118.355  0.00  0.00     0.038 C 
ATOM      4  C   LIG d   1      -8.568  79.585 118.315  0.00  0.00     0.028 C 
ATOM      5  C   LIG d   1      -7.123  80.029 118.514  0.00  0.00    -0.047 C 
ATOM      6  C   LIG d   1      -6.218  79.251 117.532  0.00  0.00     0.091 C 
ENDROOT
BRANCH   1   7
ATOM      7  O   LIG d   1      -5.907  77.045 116.512  0.00  0.00    -0.368 OA
BRANCH   7   8
ATOM      8  C   LIG d   1      -5.583  75.642 116.676  0.00  0.00     0.119 C 
BRANCH   8   9
ATOM      9  C   LIG d   1      -4.050  75.508 116.593  0.00  0.00     0.028 C 
ATOM     10  C   LIG d   1      -3.405  76.647 115.786  0.00  0.00     0.006 C 
ENDBRANCH   8   9
BRANCH   8  11
ATOM     11  C   LIG d   1      -6.127  74.805 115.514  0.00  0.00     0.028 C 
ATOM     12  C   LIG d   1      -6.887  73.555 115.984  0.00  0.00     0.006 C 
ENDBRANCH   8  11
ENDBRANCH   7   8
ENDBRANCH   1   7
BRANCH   6  13
ATOM     13  N   LIG d   1      -4.777  79.565 117.718  0.00  0.00    -0.311 N 
ATOM     14  C   LIG d   1      -4.123  80.466 116.988  0.00  0.00     0.210 C 
ATOM     15  C   LIG d   1      -2.638  80.621 117.331  0.00  0.00     0.109 C 
ATOM     16  O   LIG d   1      -4.638  81.176 116.112  0.00  0.00    -0.276 OA
ATOM     17  H   LIG d   1      -4.288  79.057 118.430  0.00  0.00     0.149 HD
ENDBRANCH   6  13
BRANCH   5  18
ATOM     18  N   LIG d   1      -7.074  81.490 118.312  0.00  0.00     0.381 N 
ATOM     19  H   LIG d   1      -7.978  81.885 118.477  0.00  0.00    -0.090 HD
ATOM     20  H   LIG d   1      -6.817  81.678 117.359  0.00  0.00    -0.090 HD
ATOM     21  H   LIG d   1      -6.407  81.898 118.930  0.00  0.00    -0.090 HD
ENDBRANCH   5  18
BRANCH   3  22
ATOM     22  C   LIG d   1      -9.939  77.685 118.813  0.00  0.00     0.382 C 
ATOM     23  O   LIG d   1     -10.610  76.912 118.087  0.00  0.00    -0.241 OA
ATOM     24  O   LIG d   1     -10.386  78.025 119.924  0.00  0.00    -0.241 OA
ENDBRANCH   3  22
TORSDOF 7
ENDMDL
MODEL 6
REMARK VINA RESULT:      -5.5      1.887      4.803
REMARK  7 active torsions:
REMARK  status: ('A' for Active; 'I' for Inactive)
REMARK    1  A    between atoms: C_2  and  C_3 
REMARK    2  A    between atoms: C_3  and  O_6 
REMARK    3  A    between atoms: C_3  and  C_4 
REMARK    4  A    between atoms: C_7  and  O_6 
REMARK    5  A    between atoms: C_9  and  C_10 
REMARK    6  A    between atoms: N_15  and  C_14 
REMARK    7  A    between atoms: N_20  and  C_19 
REMARK       I    between atoms: C_22  and  N_20 
ROOT
ATOM      1  C   LIG d   1      -6.802  76.436 117.257  0.00  0.00     0.161 C 
ATOM      2  C   LIG d   1      -6.658  77.809 117.518  0.00  0.00     0.016 C 
ATOM      3  C   LIG d   1      -7.695  78.615 118.040  0.00  0.00     0.038 C 
ATOM      4  C   LIG d   1      -8.910  78.067 118.479  0.00  0.00     0.028 C 
ATOM      5  C   LIG d   1      -9.283  76.771 117.767  0.00  0.00    -0.047 C 
ATOM      6  C   LIG d   1      -8.083  75.799 117.834  0.00  0.00     0.091 C 
ENDROOT
BRANCH   1   7
ATOM      7  O   LIG d   1      -5.637  75.725 117.720  0.00  0.00    -0.368 OA
BRANCH   7   8
ATOM      8  C   LIG d   1      -4.842  75.071 116.700  0.00  0.00     0.119 C 
BRANCH   8   9
ATOM      9  C   LIG d   1      -3.492  75.809 116.621  0.00  0.00     0.028 C 
ATOM     10  C   LIG d   1      -2.381  75.085 117.400  0.00  0.00     0.006 C 
ENDBRANCH   8   9
BRANCH   8  11
ATOM     11  C   LIG d   1      -5.474  75.231 115.314  0.00  0.00     0.028 C 
ATOM     12  C   LIG d   1      -4.432  75.459 114.207  0.00  0.00     0.006 C 
ENDBRANCH   8  11
ENDBRANCH   7   8
ENDBRANCH   1   7
BRANCH   6  13
ATOM     13  N   LIG d   1      -8.334  74.538 117.088  0.00  0.00    -0.311 N 
ATOM     14  C   LIG d   1      -8.117  73.328 117.600  0.00  0.00     0.210 C 
ATOM     15  C   LIG d   1      -8.422  72.161 116.655  0.00  0.00     0.109 C 
ATOM     16  O   LIG d   1      -7.731  73.109 118.758  0.00  0.00    -0.276 OA
ATOM     17  H   LIG d   1      -8.678  74.623 116.151  0.00  0.00     0.149 HD
ENDBRANCH   6  13
BRANCH   5  18
ATOM     18  N   LIG d   1     -10.496  76.239 118.417  0.00  0.00     0.381 N 
ATOM     19  H   LIG d   1     -10.960  75.604 117.799  0.00  0.00    -0.090 HD
ATOM     20  H   LIG d   1     -11.120  77.001 118.614  0.00  0.00    -0.090 HD
ATOM     21  H   LIG d   1     -10.252  75.773 119.263  0.00  0.00    -0.090 HD
ENDBRANCH   5  18
BRANCH   3  22
ATOM     22  C   LIG d   1      -7.538  79.992 118.088  0.00  0.00     0.382 C 
ATOM     23  O   LIG d   1      -7.936  80.633 119.090  0.00  0.00    -0.241 OA
ATOM     24  O   LIG d   1      -7.042  80.605 117.124  0.00  0.00    -0.241 OA
ENDBRANCH   3  22
TORSDOF 7
ENDMDL
MODEL 7
REMARK VINA RESULT:      -5.5      2.013      4.705
REMARK  7 active torsions:
REMARK  status: ('A' for Active; 'I' for Inactive)
REMARK    1  A    between atoms: C_2  and  C_3 
REMARK    2  A    between atoms: C_3  and  O_6 
REMARK    3  A    between atoms: C_3  and  C_4 
REMARK    4  A    between atoms: C_7  and  O_6 
REMARK    5  A    between atoms: C_9  and  C_10 
REMARK    6  A    between atoms: N_15  and  C_14 
REMARK    7  A    between atoms: N_20  and  C_19 
REMARK       I    between atoms: C_22  and  N_20 
ROOT
ATOM      1  C   LIG d   1      -5.573  76.442 116.572  0.00  0.00     0.161 C 
ATOM      2  C   LIG d   1      -4.420  75.642 116.512  0.00  0.00     0.016 C 
ATOM      3  C   LIG d   1      -3.378  75.706 117.466  0.00  0.00     0.038 C 
ATOM      4  C   LIG d   1      -3.490  76.473 118.635  0.00  0.00     0.028 C 
ATOM      5  C   LIG d   1      -4.413  77.678 118.484  0.00  0.00    -0.047 C 
ATOM      6  C   LIG d   1      -5.763  77.204 117.900  0.00  0.00     0.091 C 
ENDROOT
BRANCH   1   7
ATOM      7  O   LIG d   1      -6.737  75.643 116.281  0.00  0.00    -0.368 OA
BRANCH   7   8
ATOM      8  C   LIG d   1      -6.937  74.479 117.120  0.00  0.00     0.119 C 
BRANCH   8   9
ATOM      9  C   LIG d   1      -6.990  73.247 116.196  0.00  0.00     0.028 C 
ATOM     10  C   LIG d   1      -8.224  72.367 116.462  0.00  0.00     0.006 C 
ENDBRANCH   8   9
BRANCH   8  11
ATOM     11  C   LIG d   1      -8.299  74.522 117.818  0.00  0.00     0.028 C 
ATOM     12  C   LIG d   1      -9.186  75.675 117.323  0.00  0.00     0.006 C 
ENDBRANCH   8  11
ENDBRANCH   7   8
ENDBRANCH   1   7
BRANCH   6  13
ATOM     13  N   LIG d   1      -6.696  78.333 117.641  0.00  0.00    -0.311 N 
ATOM     14  C   LIG d   1      -7.613  78.741 118.516  0.00  0.00     0.210 C 
ATOM     15  C   LIG d   1      -8.485  79.908 118.042  0.00  0.00     0.109 C 
ATOM     16  O   LIG d   1      -7.767  78.268 119.652  0.00  0.00    -0.276 OA
ATOM     17  H   LIG d   1      -6.619  78.794 116.756  0.00  0.00     0.149 HD
ENDBRANCH   6  13
BRANCH   5  18
ATOM     18  N   LIG d   1      -4.545  78.307 119.811  0.00  0.00     0.381 N 
ATOM     19  H   LIG d   1      -4.910  77.644 120.466  0.00  0.00    -0.090 HD
ATOM     20  H   LIG d   1      -5.193  79.073 119.745  0.00  0.00    -0.090 HD
ATOM     21  H   LIG d   1      -3.659  78.638 120.122  0.00  0.00    -0.090 HD
ENDBRANCH   5  18
BRANCH   3  22
ATOM     22  C   LIG d   1      -2.191  75.028 117.234  0.00  0.00     0.382 C 
ATOM     23  O   LIG d   1      -1.479  75.330 116.246  0.00  0.00    -0.241 OA
ATOM     24  O   LIG d   1      -1.846  74.088 117.974  0.00  0.00    -0.241 OA
ENDBRANCH   3  22
TORSDOF 7
ENDMDL
MODEL 8
REMARK VINA RESULT:      -5.3      1.784      4.865
REMARK  7 active torsions:
REMARK  status: ('A' for Active; 'I' for Inactive)
REMARK    1  A    between atoms: C_2  and  C_3 
REMARK    2  A    between atoms: C_3  and  O_6 
REMARK    3  A    between atoms: C_3  and  C_4 
REMARK    4  A    between atoms: C_7  and  O_6 
REMARK    5  A    between atoms: C_9  and  C_10 
REMARK    6  A    between atoms: N_15  and  C_14 
REMARK    7  A    between atoms: N_20  and  C_19 
REMARK       I    between atoms: C_22  and  N_20 
ROOT
ATOM      1  C   LIG d   1      -5.915  76.097 116.850  0.00  0.00     0.161 C 
ATOM      2  C   LIG d   1      -5.111  75.850 115.725  0.00  0.00     0.016 C 
ATOM      3  C   LIG d   1      -3.762  76.263 115.627  0.00  0.00     0.038 C 
ATOM      4  C   LIG d   1      -3.077  76.824 116.716  0.00  0.00     0.028 C 
ATOM      5  C   LIG d   1      -3.991  77.549 117.698  0.00  0.00    -0.047 C 
ATOM      6  C   LIG d   1      -5.153  76.608 118.091  0.00  0.00     0.091 C 
ENDROOT
BRANCH   1   7
ATOM      7  O   LIG d   1      -6.672  74.915 117.179  0.00  0.00    -0.368 OA
BRANCH   7   8
ATOM      8  C   LIG d   1      -7.394  74.297 116.087  0.00  0.00     0.119 C 
BRANCH   8   9
ATOM      9  C   LIG d   1      -8.899  74.496 116.355  0.00  0.00     0.028 C 
ATOM     10  C   LIG d   1      -9.172  75.641 117.344  0.00  0.00     0.006 C 
ENDBRANCH   8   9
BRANCH   8  11
ATOM     11  C   LIG d   1      -7.183  72.780 116.067  0.00  0.00     0.028 C 
ATOM     12  C   LIG d   1      -8.289  72.014 116.810  0.00  0.00     0.006 C 
ENDBRANCH   8  11
ENDBRANCH   7   8
ENDBRANCH   1   7
BRANCH   6  13
ATOM     13  N   LIG d   1      -6.139  77.269 118.984  0.00  0.00    -0.311 N 
ATOM     14  C   LIG d   1      -6.886  78.308 118.612  0.00  0.00     0.210 C 
ATOM     15  C   LIG d   1      -7.825  78.850 119.694  0.00  0.00     0.109 C 
ATOM     16  O   LIG d   1      -6.883  78.810 117.478  0.00  0.00    -0.276 OA
ATOM     17  H   LIG d   1      -6.229  76.905 119.913  0.00  0.00     0.149 HD
ENDBRANCH   6  13
BRANCH   5  18
ATOM     18  N   LIG d   1      -3.167  77.963 118.850  0.00  0.00     0.381 N 
ATOM     19  H   LIG d   1      -2.536  77.227 119.097  0.00  0.00    -0.090 HD
ATOM     20  H   LIG d   1      -3.770  78.138 119.634  0.00  0.00    -0.090 HD
ATOM     21  H   LIG d   1      -2.656  78.788 118.624  0.00  0.00    -0.090 HD
ENDBRANCH   5  18
BRANCH   3  22
ATOM     22  C   LIG d   1      -3.097  76.154 114.416  0.00  0.00     0.382 C 
ATOM     23  O   LIG d   1      -3.609  76.629 113.373  0.00  0.00    -0.241 OA
ATOM     24  O   LIG d   1      -2.011  75.548 114.344  0.00  0.00    -0.241 OA
ENDBRANCH   3  22
TORSDOF 7
ENDMDL
MODEL 9
REMARK VINA RESULT:      -5.2      1.862      2.142
REMARK  7 active torsions:
REMARK  status: ('A' for Active; 'I' for Inactive)
REMARK    1  A    between atoms: C_2  and  C_3 
REMARK    2  A    between atoms: C_3  and  O_6 
REMARK    3  A    between atoms: C_3  and  C_4 
REMARK    4  A    between atoms: C_7  and  O_6 
REMARK    5  A    between atoms: C_9  and  C_10 
REMARK    6  A    between atoms: N_15  and  C_14 
REMARK    7  A    between atoms: N_20  and  C_19 
REMARK       I    between atoms: C_22  and  N_20 
ROOT
ATOM      1  C   LIG d   1      -6.579  76.725 117.342  0.00  0.00     0.161 C 
ATOM      2  C   LIG d   1      -6.592  75.471 116.709  0.00  0.00     0.016 C 
ATOM      3  C   LIG d   1      -7.744  74.655 116.623  0.00  0.00     0.038 C 
ATOM      4  C   LIG d   1      -9.006  75.108 117.035  0.00  0.00     0.028 C 
ATOM      5  C   LIG d   1      -8.942  76.162 118.135  0.00  0.00    -0.047 C 
ATOM      6  C   LIG d   1      -7.972  77.284 117.699  0.00  0.00     0.091 C 
ENDROOT
BRANCH   1   7
ATOM      7  O   LIG d   1      -5.851  77.672 116.535  0.00  0.00    -0.368 OA
BRANCH   7   8
ATOM      8  C   LIG d   1      -4.579  78.118 117.067  0.00  0.00     0.119 C 
BRANCH   8   9
ATOM      9  C   LIG d   1      -4.402  77.465 118.451  0.00  0.00     0.028 C 
ATOM     10  C   LIG d   1      -4.211  78.504 119.569  0.00  0.00     0.006 C 
ENDBRANCH   8   9
BRANCH   8  11
ATOM     11  C   LIG d   1      -4.583  79.627 117.327  0.00  0.00     0.028 C 
ATOM     12  C   LIG d   1      -3.601  80.389 116.423  0.00  0.00     0.006 C 
ENDBRANCH   8  11
ENDBRANCH   7   8
ENDBRANCH   1   7
BRANCH   6  13
ATOM     13  N   LIG d   1      -7.787  78.315 118.753  0.00  0.00    -0.311 N 
ATOM     14  C   LIG d   1      -7.955  79.619 118.542  0.00  0.00     0.210 C 
ATOM     15  C   LIG d   1      -7.693  80.511 119.759  0.00  0.00     0.109 C 
ATOM     16  O   LIG d   1      -8.327  80.119 117.469  0.00  0.00    -0.276 OA
ATOM     17  H   LIG d   1      -7.515  77.994 119.662  0.00  0.00     0.149 HD
ENDBRANCH   6  13
BRANCH   5  18
ATOM     18  N   LIG d   1     -10.316  76.645 118.370  0.00  0.00     0.381 N 
ATOM     19  H   LIG d   1     -10.461  76.789 119.350  0.00  0.00    -0.090 HD
ATOM     20  H   LIG d   1     -10.965  75.945 118.055  0.00  0.00    -0.090 HD
ATOM     21  H   LIG d   1     -10.468  77.496 117.875  0.00  0.00    -0.090 HD
ENDBRANCH   5  18
BRANCH   3  22
ATOM     22  C   LIG d   1      -7.631  73.354 116.157  0.00  0.00     0.382 C 
ATOM     23  O   LIG d   1      -6.552  72.960 115.652  0.00  0.00    -0.241 OA
ATOM     24  O   LIG d   1      -8.608  72.582 116.194  0.00  0.00    -0.241 OA
ENDBRANCH   3  22
TORSDOF 7
ENDMDL
