MODEL 1
REMARK VINA RESULT:      -6.7      0.000      0.000
REMARK  7 active torsions:
REMARK  status: ('A' for Active; 'I' for Inactive)
REMARK    1  A    between atoms: C_2  and  C_3 
REMARK    2  A    between atoms: C_3  and  O_6 
REMARK    3  A    between atoms: C_3  and  C_4 
REMARK    4  A    between atoms: C_7  and  O_6 
REMARK    5  A    between atoms: C_9  and  C_10 
REMARK    6  A    between atoms: N_15  and  C_14 
REMARK    7  A    between atoms: N_20  and  C_19 
REMARK       I    between atoms: C_22  and  N_20 
ROOT
ATOM      1  C   LIG d   1       2.841  84.262 110.732  0.00  0.00     0.161 C 
ATOM      2  C   LIG d   1       3.283  85.591 110.840  0.00  0.00     0.016 C 
ATOM      3  C   LIG d   1       3.160  86.359 112.020  0.00  0.00     0.038 C 
ATOM      4  C   LIG d   1       2.719  85.797 113.228  0.00  0.00     0.028 C 
ATOM      5  C   LIG d   1       1.790  84.602 113.037  0.00  0.00    -0.047 C 
ATOM      6  C   LIG d   1       2.459  83.597 112.071  0.00  0.00     0.091 C 
ENDROOT
BRANCH   1   7
ATOM      7  O   LIG d   1       3.831  83.471 110.045  0.00  0.00    -0.368 OA
BRANCH   7   8
ATOM      8  C   LIG d   1       3.556  83.175 108.654  0.00  0.00     0.119 C 
BRANCH   8   9
ATOM      9  C   LIG d   1       2.025  83.148 108.480  0.00  0.00     0.028 C 
ATOM     10  C   LIG d   1       1.568  83.864 107.197  0.00  0.00     0.006 C 
ENDBRANCH   8   9
BRANCH   8  11
ATOM     11  C   LIG d   1       4.031  81.767 108.279  0.00  0.00     0.028 C 
ATOM     12  C   LIG d   1       3.830  80.750 109.414  0.00  0.00     0.006 C 
ENDBRANCH   8  11
ENDBRANCH   7   8
ENDBRANCH   1   7
BRANCH   6  13
ATOM     13  N   LIG d   1       1.582  82.437 111.763  0.00  0.00    -0.311 N 
ATOM     14  C   LIG d   1       1.615  81.292 112.443  0.00  0.00     0.210 C 
ATOM     15  C   LIG d   1       0.640  80.219 111.948  0.00  0.00     0.109 C 
ATOM     16  O   LIG d   1       2.336  81.075 113.428  0.00  0.00    -0.276 OA
ATOM     17  H   LIG d   1       0.944  82.538 110.999  0.00  0.00     0.149 HD
ENDBRANCH   6  13
BRANCH   5  18
ATOM     18  N   LIG d   1       1.519  84.031 114.369  0.00  0.00     0.381 N 
ATOM     19  H   LIG d   1       0.715  84.472 114.769  0.00  0.00    -0.090 HD
ATOM     20  H   LIG d   1       2.307  84.210 114.966  0.00  0.00    -0.090 HD
ATOM     21  H   LIG d   1       1.365  83.049 114.295  0.00  0.00    -0.090 HD
ENDBRANCH   5  18
BRANCH   3  22
ATOM     22  C   LIG d   1       3.442  87.716 111.990  0.00  0.00     0.382 C 
ATOM     23  O   LIG d   1       2.505  88.551 111.972  0.00  0.00    -0.241 OA
ATOM     24  O   LIG d   1       4.620  88.115 111.935  0.00  0.00    -0.241 OA
ENDBRANCH   3  22
TORSDOF 7
ENDMDL
MODEL 2
REMARK VINA RESULT:      -6.5      3.009      6.026
REMARK  7 active torsions:
REMARK  status: ('A' for Active; 'I' for Inactive)
REMARK    1  A    between atoms: C_2  and  C_3 
REMARK    2  A    between atoms: C_3  and  O_6 
REMARK    3  A    between atoms: C_3  and  C_4 
REMARK    4  A    between atoms: C_7  and  O_6 
REMARK    5  A    between atoms: C_9  and  C_10 
REMARK    6  A    between atoms: N_15  and  C_14 
REMARK    7  A    between atoms: N_20  and  C_19 
REMARK       I    between atoms: C_22  and  N_20 
ROOT
ATOM      1  C   LIG d   1       0.350  82.050 111.022  0.00  0.00     0.161 C 
ATOM      2  C   LIG d   1      -0.844  81.878 111.742  0.00  0.00     0.016 C 
ATOM      3  C   LIG d   1      -1.454  80.620 111.948  0.00  0.00     0.038 C 
ATOM      4  C   LIG d   1      -0.828  79.422 111.573  0.00  0.00     0.028 C 
ATOM      5  C   LIG d   1       0.132  79.582 110.398  0.00  0.00    -0.047 C 
ATOM      6  C   LIG d   1       1.106  80.744 110.701  0.00  0.00     0.091 C 
ENDROOT
BRANCH   1   7
ATOM      7  O   LIG d   1       1.214  82.970 111.720  0.00  0.00    -0.368 OA
BRANCH   7   8
ATOM      8  C   LIG d   1       1.307  84.304 111.163  0.00  0.00     0.119 C 
BRANCH   8   9
ATOM      9  C   LIG d   1       0.489  85.243 112.070  0.00  0.00     0.028 C 
ATOM     10  C   LIG d   1      -0.757  85.803 111.364  0.00  0.00     0.006 C 
ENDBRANCH   8   9
BRANCH   8  11
ATOM     11  C   LIG d   1       0.636  84.382 109.788  0.00  0.00     0.028 C 
ATOM     12  C   LIG d   1       1.644  84.568 108.643  0.00  0.00     0.006 C 
ENDBRANCH   8  11
ENDBRANCH   7   8
ENDBRANCH   1   7
BRANCH   6  13
ATOM     13  N   LIG d   1       2.025  81.023 109.567  0.00  0.00    -0.311 N 
ATOM     14  C   LIG d   1       3.316  81.313 109.724  0.00  0.00     0.210 C 
ATOM     15  C   LIG d   1       4.079  81.587 108.425  0.00  0.00     0.109 C 
ATOM     16  O   LIG d   1       3.907  81.338 110.814  0.00  0.00    -0.276 OA
ATOM     17  H   LIG d   1       1.635  80.993 108.646  0.00  0.00     0.149 HD
ENDBRANCH   6  13
BRANCH   5  18
ATOM     18  N   LIG d   1       0.816  78.290 110.203  0.00  0.00     0.381 N 
ATOM     19  H   LIG d   1       1.646  78.259 110.760  0.00  0.00    -0.090 HD
ATOM     20  H   LIG d   1       1.081  78.205 109.237  0.00  0.00    -0.090 HD
ATOM     21  H   LIG d   1       0.210  77.541 110.455  0.00  0.00    -0.090 HD
ENDBRANCH   5  18
BRANCH   3  22
ATOM     22  C   LIG d   1      -2.725  80.554 112.499  0.00  0.00     0.382 C 
ATOM     23  O   LIG d   1      -3.204  79.446 112.839  0.00  0.00    -0.241 OA
ATOM     24  O   LIG d   1      -3.415  81.584 112.620  0.00  0.00    -0.241 OA
ENDBRANCH   3  22
TORSDOF 7
ENDMDL
MODEL 3
REMARK VINA RESULT:      -6.5      2.208      5.210
REMARK  7 active torsions:
REMARK  status: ('A' for Active; 'I' for Inactive)
REMARK    1  A    between atoms: C_2  and  C_3 
REMARK    2  A    between atoms: C_3  and  O_6 
REMARK    3  A    between atoms: C_3  and  C_4 
REMARK    4  A    between atoms: C_7  and  O_6 
REMARK    5  A    between atoms: C_9  and  C_10 
REMARK    6  A    between atoms: N_15  and  C_14 
REMARK    7  A    between atoms: N_20  and  C_19 
REMARK       I    between atoms: C_22  and  N_20 
ROOT
ATOM      1  C   LIG d   1       2.124  83.135 111.589  0.00  0.00     0.161 C 
ATOM      2  C   LIG d   1       1.263  82.029 111.485  0.00  0.00     0.016 C 
ATOM      3  C   LIG d   1      -0.146  82.140 111.464  0.00  0.00     0.038 C 
ATOM      4  C   LIG d   1      -0.791  83.383 111.392  0.00  0.00     0.028 C 
ATOM      5  C   LIG d   1       0.018  84.522 112.003  0.00  0.00    -0.047 C 
ATOM      6  C   LIG d   1       1.442  84.506 111.400  0.00  0.00     0.091 C 
ENDROOT
BRANCH   1   7
ATOM      7  O   LIG d   1       3.220  82.989 110.665  0.00  0.00    -0.368 OA
BRANCH   7   8
ATOM      8  C   LIG d   1       2.941  82.235 109.459  0.00  0.00     0.119 C 
BRANCH   8   9
ATOM      9  C   LIG d   1       4.060  81.188 109.299  0.00  0.00     0.028 C 
ATOM     10  C   LIG d   1       3.599  79.772 109.685  0.00  0.00     0.006 C 
ENDBRANCH   8   9
BRANCH   8  11
ATOM     11  C   LIG d   1       3.034  83.122 108.214  0.00  0.00     0.028 C 
ATOM     12  C   LIG d   1       1.664  83.637 107.746  0.00  0.00     0.006 C 
ENDBRANCH   8  11
ENDBRANCH   7   8
ENDBRANCH   1   7
BRANCH   6  13
ATOM     13  N   LIG d   1       2.326  85.535 112.006  0.00  0.00    -0.311 N 
ATOM     14  C   LIG d   1       2.522  86.739 111.471  0.00  0.00     0.210 C 
ATOM     15  C   LIG d   1       3.488  87.641 112.246  0.00  0.00     0.109 C 
ATOM     16  O   LIG d   1       1.964  87.157 110.445  0.00  0.00    -0.276 OA
ATOM     17  H   LIG d   1       2.794  85.291 112.856  0.00  0.00     0.149 HD
ENDBRANCH   6  13
BRANCH   5  18
ATOM     18  N   LIG d   1      -0.708  85.778 111.737  0.00  0.00     0.381 N 
ATOM     19  H   LIG d   1      -1.036  86.168 112.598  0.00  0.00    -0.090 HD
ATOM     20  H   LIG d   1      -1.504  85.577 111.159  0.00  0.00    -0.090 HD
ATOM     21  H   LIG d   1      -0.109  86.427 111.277  0.00  0.00    -0.090 HD
ENDBRANCH   5  18
BRANCH   3  22
ATOM     22  C   LIG d   1      -0.927  80.997 111.555  0.00  0.00     0.382 C 
ATOM     23  O   LIG d   1      -0.646  79.990 110.862  0.00  0.00    -0.241 OA
ATOM     24  O   LIG d   1      -1.934  80.976 112.287  0.00  0.00    -0.241 OA
ENDBRANCH   3  22
TORSDOF 7
ENDMDL
MODEL 4
REMARK VINA RESULT:      -6.4      2.829      5.291
REMARK  7 active torsions:
REMARK  status: ('A' for Active; 'I' for Inactive)
REMARK    1  A    between atoms: C_2  and  C_3 
REMARK    2  A    between atoms: C_3  and  O_6 
REMARK    3  A    between atoms: C_3  and  C_4 
REMARK    4  A    between atoms: C_7  and  O_6 
REMARK    5  A    between atoms: C_9  and  C_10 
REMARK    6  A    between atoms: N_15  and  C_14 
REMARK    7  A    between atoms: N_20  and  C_19 
REMARK       I    between atoms: C_22  and  N_20 
ROOT
ATOM      1  C   LIG d   1       1.284  81.646 111.625  0.00  0.00     0.161 C 
ATOM      2  C   LIG d   1       2.350  82.168 110.873  0.00  0.00     0.016 C 
ATOM      3  C   LIG d   1       2.465  82.009 109.473  0.00  0.00     0.038 C 
ATOM      4  C   LIG d   1       1.437  81.445 108.704  0.00  0.00     0.028 C 
ATOM      5  C   LIG d   1       0.574  80.455 109.479  0.00  0.00    -0.047 C 
ATOM      6  C   LIG d   1       0.098  81.123 110.789  0.00  0.00     0.091 C 
ENDROOT
BRANCH   1   7
ATOM      7  O   LIG d   1       0.832  82.628 112.578  0.00  0.00    -0.368 OA
BRANCH   7   8
ATOM      8  C   LIG d   1       0.914  84.012 112.155  0.00  0.00     0.119 C 
BRANCH   8   9
ATOM      9  C   LIG d   1       1.465  84.827 113.341  0.00  0.00     0.028 C 
ATOM     10  C   LIG d   1       2.825  85.473 113.029  0.00  0.00     0.006 C 
ENDBRANCH   8   9
BRANCH   8  11
ATOM     11  C   LIG d   1      -0.475  84.592 111.874  0.00  0.00     0.028 C 
ATOM     12  C   LIG d   1      -0.677  84.967 110.397  0.00  0.00     0.006 C 
ENDBRANCH   8  11
ENDBRANCH   7   8
ENDBRANCH   1   7
BRANCH   6  13
ATOM     13  N   LIG d   1      -0.683  80.195 111.648  0.00  0.00    -0.311 N 
ATOM     14  C   LIG d   1      -1.828  80.532 112.240  0.00  0.00     0.210 C 
ATOM     15  C   LIG d   1      -2.460  79.431 113.097  0.00  0.00     0.109 C 
ATOM     16  O   LIG d   1      -2.396  81.627 112.110  0.00  0.00    -0.276 OA
ATOM     17  H   LIG d   1      -0.311  79.275 111.781  0.00  0.00     0.149 HD
ENDBRANCH   6  13
BRANCH   5  18
ATOM     18  N   LIG d   1      -0.538  80.049 108.599  0.00  0.00     0.381 N 
ATOM     19  H   LIG d   1      -0.448  79.080 108.365  0.00  0.00    -0.090 HD
ATOM     20  H   LIG d   1      -0.493  80.584 107.750  0.00  0.00    -0.090 HD
ATOM     21  H   LIG d   1      -1.409  80.208 109.056  0.00  0.00    -0.090 HD
ENDBRANCH   5  18
BRANCH   3  22
ATOM     22  C   LIG d   1       3.637  82.383 108.833  0.00  0.00     0.382 C 
ATOM     23  O   LIG d   1       3.641  82.573 107.593  0.00  0.00    -0.241 OA
ATOM     24  O   LIG d   1       4.700  82.491 109.474  0.00  0.00    -0.241 OA
ENDBRANCH   3  22
TORSDOF 7
ENDMDL
MODEL 5
REMARK VINA RESULT:      -6.3      3.046      4.856
REMARK  7 active torsions:
REMARK  status: ('A' for Active; 'I' for Inactive)
REMARK    1  A    between atoms: C_2  and  C_3 
REMARK    2  A    between atoms: C_3  and  O_6 
REMARK    3  A    between atoms: C_3  and  C_4 
REMARK    4  A    between atoms: C_7  and  O_6 
REMARK    5  A    between atoms: C_9  and  C_10 
REMARK    6  A    between atoms: N_15  and  C_14 
REMARK    7  A    between atoms: N_20  and  C_19 
REMARK       I    between atoms: C_22  and  N_20 
ROOT
ATOM      1  C   LIG d   1       0.805  82.694 110.148  0.00  0.00     0.161 C 
ATOM      2  C   LIG d   1       0.662  84.018 110.595  0.00  0.00     0.016 C 
ATOM      3  C   LIG d   1       0.888  85.146 109.772  0.00  0.00     0.038 C 
ATOM      4  C   LIG d   1       1.126  85.023 108.396  0.00  0.00     0.028 C 
ATOM      5  C   LIG d   1       1.777  83.699 108.009  0.00  0.00    -0.047 C 
ATOM      6  C   LIG d   1       0.957  82.540 108.620  0.00  0.00     0.091 C 
ENDROOT
BRANCH   1   7
ATOM      7  O   LIG d   1      -0.295  81.895 110.626  0.00  0.00    -0.368 OA
BRANCH   7   8
ATOM      8  C   LIG d   1      -0.056  81.141 111.839  0.00  0.00     0.119 C 
BRANCH   8   9
ATOM      9  C   LIG d   1       1.464  80.915 111.952  0.00  0.00     0.028 C 
ATOM     10  C   LIG d   1       2.003  81.240 113.356  0.00  0.00     0.006 C 
ENDBRANCH   8   9
BRANCH   8  11
ATOM     11  C   LIG d   1      -0.668  79.739 111.753  0.00  0.00     0.028 C 
ATOM     12  C   LIG d   1      -2.033  79.641 112.454  0.00  0.00     0.006 C 
ENDBRANCH   8  11
ENDBRANCH   7   8
ENDBRANCH   1   7
BRANCH   6  13
ATOM     13  N   LIG d   1       1.572  81.212 108.361  0.00  0.00    -0.311 N 
ATOM     14  C   LIG d   1       0.863  80.101 108.165  0.00  0.00     0.210 C 
ATOM     15  C   LIG d   1       1.695  78.836 107.934  0.00  0.00     0.109 C 
ATOM     16  O   LIG d   1      -0.375  80.050 108.127  0.00  0.00    -0.276 OA
ATOM     17  H   LIG d   1       2.572  81.168 108.343  0.00  0.00     0.149 HD
ENDBRANCH   6  13
BRANCH   5  18
ATOM     18  N   LIG d   1       1.842  83.647 106.536  0.00  0.00     0.381 N 
ATOM     19  H   LIG d   1       1.322  84.408 106.148  0.00  0.00    -0.090 HD
ATOM     20  H   LIG d   1       1.426  82.788 106.223  0.00  0.00    -0.090 HD
ATOM     21  H   LIG d   1       2.790  83.695 106.235  0.00  0.00    -0.090 HD
ENDBRANCH   5  18
BRANCH   3  22
ATOM     22  C   LIG d   1       0.915  86.413 110.335  0.00  0.00     0.382 C 
ATOM     23  O   LIG d   1      -0.150  86.945 110.732  0.00  0.00    -0.241 OA
ATOM     24  O   LIG d   1       1.983  87.048 110.411  0.00  0.00    -0.241 OA
ENDBRANCH   3  22
TORSDOF 7
ENDMDL
MODEL 6
REMARK VINA RESULT:      -6.1      1.457      1.881
REMARK  7 active torsions:
REMARK  status: ('A' for Active; 'I' for Inactive)
REMARK    1  A    between atoms: C_2  and  C_3 
REMARK    2  A    between atoms: C_3  and  O_6 
REMARK    3  A    between atoms: C_3  and  C_4 
REMARK    4  A    between atoms: C_7  and  O_6 
REMARK    5  A    between atoms: C_9  and  C_10 
REMARK    6  A    between atoms: N_15  and  C_14 
REMARK    7  A    between atoms: N_20  and  C_19 
REMARK       I    between atoms: C_22  and  N_20 
ROOT
ATOM      1  C   LIG d   1       0.928  84.198 110.347  0.00  0.00     0.161 C 
ATOM      2  C   LIG d   1       1.662  85.396 110.346  0.00  0.00     0.016 C 
ATOM      3  C   LIG d   1       2.396  85.860 111.462  0.00  0.00     0.038 C 
ATOM      4  C   LIG d   1       2.570  85.077 112.612  0.00  0.00     0.028 C 
ATOM      5  C   LIG d   1       1.434  84.087 112.849  0.00  0.00    -0.047 C 
ATOM      6  C   LIG d   1       1.197  83.276 111.555  0.00  0.00     0.091 C 
ENDROOT
BRANCH   1   7
ATOM      7  O   LIG d   1       1.153  83.486 109.114  0.00  0.00    -0.368 OA
BRANCH   7   8
ATOM      8  C   LIG d   1       2.111  82.401 109.169  0.00  0.00     0.119 C 
BRANCH   8   9
ATOM      9  C   LIG d   1       3.259  82.747 108.200  0.00  0.00     0.028 C 
ATOM     10  C   LIG d   1       4.637  82.692 108.880  0.00  0.00     0.006 C 
ENDBRANCH   8   9
BRANCH   8  11
ATOM     11  C   LIG d   1       1.509  81.098 108.636  0.00  0.00     0.028 C 
ATOM     12  C   LIG d   1       2.294  79.854 109.080  0.00  0.00     0.006 C 
ENDBRANCH   8  11
ENDBRANCH   7   8
ENDBRANCH   1   7
BRANCH   6  13
ATOM     13  N   LIG d   1       0.046  82.343 111.673  0.00  0.00    -0.311 N 
ATOM     14  C   LIG d   1       0.173  81.064 112.022  0.00  0.00     0.210 C 
ATOM     15  C   LIG d   1      -1.138  80.272 112.064  0.00  0.00     0.109 C 
ATOM     16  O   LIG d   1       1.242  80.518 112.332  0.00  0.00    -0.276 OA
ATOM     17  H   LIG d   1      -0.862  82.711 111.470  0.00  0.00     0.149 HD
ENDBRANCH   6  13
BRANCH   5  18
ATOM     18  N   LIG d   1       1.810  83.244 113.999  0.00  0.00     0.381 N 
ATOM     19  H   LIG d   1       1.172  83.396 114.754  0.00  0.00    -0.090 HD
ATOM     20  H   LIG d   1       2.730  83.505 114.307  0.00  0.00    -0.090 HD
ATOM     21  H   LIG d   1       1.801  82.283 113.735  0.00  0.00    -0.090 HD
ENDBRANCH   5  18
BRANCH   3  22
ATOM     22  C   LIG d   1       2.932  87.139 111.448  0.00  0.00     0.382 C 
ATOM     23  O   LIG d   1       4.169  87.299 111.316  0.00  0.00    -0.241 OA
ATOM     24  O   LIG d   1       2.199  88.133 111.611  0.00  0.00    -0.241 OA
ENDBRANCH   3  22
TORSDOF 7
ENDMDL
MODEL 7
REMARK VINA RESULT:      -6.0      2.840      5.782
REMARK  7 active torsions:
REMARK  status: ('A' for Active; 'I' for Inactive)
REMARK    1  A    between atoms: C_2  and  C_3 
REMARK    2  A    between atoms: C_3  and  O_6 
REMARK    3  A    between atoms: C_3  and  C_4 
REMARK    4  A    between atoms: C_7  and  O_6 
REMARK    5  A    between atoms: C_9  and  C_10 
REMARK    6  A    between atoms: N_15  and  C_14 
REMARK    7  A    between atoms: N_20  and  C_19 
REMARK       I    between atoms: C_22  and  N_20 
ROOT
ATOM      1  C   LIG d   1       1.317  82.355 110.127  0.00  0.00     0.161 C 
ATOM      2  C   LIG d   1       1.638  81.128 109.523  0.00  0.00     0.016 C 
ATOM      3  C   LIG d   1       0.939  79.927 109.783  0.00  0.00     0.038 C 
ATOM      4  C   LIG d   1      -0.232  79.902 110.555  0.00  0.00     0.028 C 
ATOM      5  C   LIG d   1      -0.299  81.021 111.590  0.00  0.00    -0.047 C 
ATOM      6  C   LIG d   1      -0.026  82.371 110.887  0.00  0.00     0.091 C 
ENDROOT
BRANCH   1   7
ATOM      7  O   LIG d   1       1.348  83.407 109.143  0.00  0.00    -0.368 OA
BRANCH   7   8
ATOM      8  C   LIG d   1       2.554  84.210 109.105  0.00  0.00     0.119 C 
BRANCH   8   9
ATOM      9  C   LIG d   1       3.695  83.358 109.695  0.00  0.00     0.028 C 
ATOM     10  C   LIG d   1       4.604  82.761 108.607  0.00  0.00     0.006 C 
ENDBRANCH   8   9
BRANCH   8  11
ATOM     11  C   LIG d   1       2.441  85.429 110.025  0.00  0.00     0.028 C 
ATOM     12  C   LIG d   1       3.315  85.309 111.284  0.00  0.00     0.006 C 
ENDBRANCH   8  11
ENDBRANCH   7   8
ENDBRANCH   1   7
BRANCH   6  13
ATOM     13  N   LIG d   1       0.011  83.509 111.842  0.00  0.00    -0.311 N 
ATOM     14  C   LIG d   1      -0.639  84.655 111.642  0.00  0.00     0.210 C 
ATOM     15  C   LIG d   1      -0.450  85.705 112.741  0.00  0.00     0.109 C 
ATOM     16  O   LIG d   1      -1.379  84.888 110.675  0.00  0.00    -0.276 OA
ATOM     17  H   LIG d   1       0.563  83.393 112.669  0.00  0.00     0.149 HD
ENDBRANCH   6  13
BRANCH   5  18
ATOM     18  N   LIG d   1      -1.628  80.960 112.227  0.00  0.00     0.381 N 
ATOM     19  H   LIG d   1      -2.326  80.769 111.537  0.00  0.00    -0.090 HD
ATOM     20  H   LIG d   1      -1.830  81.852 112.643  0.00  0.00    -0.090 HD
ATOM     21  H   LIG d   1      -1.638  80.250 112.926  0.00  0.00    -0.090 HD
ENDBRANCH   5  18
BRANCH   3  22
ATOM     22  C   LIG d   1       1.433  78.725 109.299  0.00  0.00     0.382 C 
ATOM     23  O   LIG d   1       1.482  77.720 110.048  0.00  0.00    -0.241 OA
ATOM     24  O   LIG d   1       1.873  78.645 108.136  0.00  0.00    -0.241 OA
ENDBRANCH   3  22
TORSDOF 7
ENDMDL
MODEL 8
REMARK VINA RESULT:      -5.9      2.595      3.191
REMARK  7 active torsions:
REMARK  status: ('A' for Active; 'I' for Inactive)
REMARK    1  A    between atoms: C_2  and  C_3 
REMARK    2  A    between atoms: C_3  and  O_6 
REMARK    3  A    between atoms: C_3  and  C_4 
REMARK    4  A    between atoms: C_7  and  O_6 
REMARK    5  A    between atoms: C_9  and  C_10 
REMARK    6  A    between atoms: N_15  and  C_14 
REMARK    7  A    between atoms: N_20  and  C_19 
REMARK       I    between atoms: C_22  and  N_20 
ROOT
ATOM      1  C   LIG d   1       1.389  82.413 110.198  0.00  0.00     0.161 C 
ATOM      2  C   LIG d   1       1.569  83.805 110.142  0.00  0.00     0.016 C 
ATOM      3  C   LIG d   1       0.660  84.731 110.703  0.00  0.00     0.038 C 
ATOM      4  C   LIG d   1      -0.422  84.319 111.495  0.00  0.00     0.028 C 
ATOM      5  C   LIG d   1      -0.925  82.920 111.155  0.00  0.00    -0.047 C 
ATOM      6  C   LIG d   1       0.273  81.943 111.154  0.00  0.00     0.091 C 
ENDROOT
BRANCH   1   7
ATOM      7  O   LIG d   1       2.637  81.772 110.531  0.00  0.00    -0.368 OA
BRANCH   7   8
ATOM      8  C   LIG d   1       3.112  80.776 109.592  0.00  0.00     0.119 C 
BRANCH   8   9
ATOM      9  C   LIG d   1       4.494  81.236 109.089  0.00  0.00     0.028 C 
ATOM     10  C   LIG d   1       4.407  82.479 108.188  0.00  0.00     0.006 C 
ENDBRANCH   8   9
BRANCH   8  11
ATOM     11  C   LIG d   1       2.225  80.718 108.345  0.00  0.00     0.028 C 
ATOM     12  C   LIG d   1       1.661  79.313 108.080  0.00  0.00     0.006 C 
ENDBRANCH   8  11
ENDBRANCH   7   8
ENDBRANCH   1   7
BRANCH   6  13
ATOM     13  N   LIG d   1      -0.117  80.568 110.748  0.00  0.00    -0.311 N 
ATOM     14  C   LIG d   1      -0.496  79.628 111.613  0.00  0.00     0.210 C 
ATOM     15  C   LIG d   1      -0.837  78.272 110.986  0.00  0.00     0.109 C 
ATOM     16  O   LIG d   1      -0.612  79.798 112.836  0.00  0.00    -0.276 OA
ATOM     17  H   LIG d   1      -0.082  80.353 109.771  0.00  0.00     0.149 HD
ENDBRANCH   6  13
BRANCH   5  18
ATOM     18  N   LIG d   1      -1.959  82.565 112.145  0.00  0.00     0.381 N 
ATOM     19  H   LIG d   1      -2.866  82.645 111.730  0.00  0.00    -0.090 HD
ATOM     20  H   LIG d   1      -1.907  83.209 112.915  0.00  0.00    -0.090 HD
ATOM     21  H   LIG d   1      -1.815  81.635 112.470  0.00  0.00    -0.090 HD
ENDBRANCH   5  18
BRANCH   3  22
ATOM     22  C   LIG d   1       0.806  86.084 110.439  0.00  0.00     0.382 C 
ATOM     23  O   LIG d   1       1.880  86.516 109.954  0.00  0.00    -0.241 OA
ATOM     24  O   LIG d   1      -0.105  86.885 110.721  0.00  0.00    -0.241 OA
ENDBRANCH   3  22
TORSDOF 7
ENDMDL
MODEL 9
REMARK VINA RESULT:      -5.6      2.710      5.997
REMARK  7 active torsions:
REMARK  status: ('A' for Active; 'I' for Inactive)
REMARK    1  A    between atoms: C_2  and  C_3 
REMARK    2  A    between atoms: C_3  and  O_6 
REMARK    3  A    between atoms: C_3  and  C_4 
REMARK    4  A    between atoms: C_7  and  O_6 
REMARK    5  A    between atoms: C_9  and  C_10 
REMARK    6  A    between atoms: N_15  and  C_14 
REMARK    7  A    between atoms: N_20  and  C_19 
REMARK       I    between atoms: C_22  and  N_20 
ROOT
ATOM      1  C   LIG d   1       1.386  81.384 111.103  0.00  0.00     0.161 C 
ATOM      2  C   LIG d   1       1.367  80.031 110.725  0.00  0.00     0.016 C 
ATOM      3  C   LIG d   1       0.218  79.212 110.821  0.00  0.00     0.038 C 
ATOM      4  C   LIG d   1      -1.038  79.735 111.162  0.00  0.00     0.028 C 
ATOM      5  C   LIG d   1      -0.959  80.982 112.036  0.00  0.00    -0.047 C 
ATOM      6  C   LIG d   1      -0.004  82.000 111.372  0.00  0.00     0.091 C 
ENDROOT
BRANCH   1   7
ATOM      7  O   LIG d   1       2.093  82.158 110.114  0.00  0.00    -0.368 OA
BRANCH   7   8
ATOM      8  C   LIG d   1       3.482  82.449 110.406  0.00  0.00     0.119 C 
BRANCH   8   9
ATOM      9  C   LIG d   1       3.519  83.753 111.226  0.00  0.00     0.028 C 
ATOM     10  C   LIG d   1       3.305  85.001 110.354  0.00  0.00     0.006 C 
ENDBRANCH   8   9
BRANCH   8  11
ATOM     11  C   LIG d   1       4.269  82.751 109.128  0.00  0.00     0.028 C 
ATOM     12  C   LIG d   1       4.057  81.694 108.033  0.00  0.00     0.006 C 
ENDBRANCH   8  11
ENDBRANCH   7   8
ENDBRANCH   1   7
BRANCH   6  13
ATOM     13  N   LIG d   1       0.197  83.215 112.204  0.00  0.00    -0.311 N 
ATOM     14  C   LIG d   1      -0.112  84.444 111.793  0.00  0.00     0.210 C 
ATOM     15  C   LIG d   1       0.193  85.558 112.799  0.00  0.00     0.109 C 
ATOM     16  O   LIG d   1      -0.640  84.713 110.703  0.00  0.00    -0.276 OA
ATOM     17  H   LIG d   1       0.591  83.084 113.115  0.00  0.00     0.149 HD
ENDBRANCH   6  13
BRANCH   5  18
ATOM     18  N   LIG d   1      -2.331  81.499 112.200  0.00  0.00     0.381 N 
ATOM     19  H   LIG d   1      -2.347  82.194 112.919  0.00  0.00    -0.090 HD
ATOM     20  H   LIG d   1      -2.931  80.743 112.479  0.00  0.00    -0.090 HD
ATOM     21  H   LIG d   1      -2.653  81.890 111.342  0.00  0.00    -0.090 HD
ENDBRANCH   5  18
BRANCH   3  22
ATOM     22  C   LIG d   1       0.329  77.846 110.612  0.00  0.00     0.382 C 
ATOM     23  O   LIG d   1       1.336  77.381 110.026  0.00  0.00    -0.241 OA
ATOM     24  O   LIG d   1      -0.586  77.077 110.963  0.00  0.00    -0.241 OA
ENDBRANCH   3  22
TORSDOF 7
ENDMDL
