MODEL 1
REMARK VINA RESULT:      -6.8      0.000      0.000
REMARK  7 active torsions:
REMARK  status: ('A' for Active; 'I' for Inactive)
REMARK    1  A    between atoms: C_2  and  C_3 
REMARK    2  A    between atoms: C_3  and  O_6 
REMARK    3  A    between atoms: C_3  and  C_4 
REMARK    4  A    between atoms: C_7  and  O_6 
REMARK    5  A    between atoms: C_9  and  C_10 
REMARK    6  A    between atoms: N_15  and  C_14 
REMARK    7  A    between atoms: N_20  and  C_19 
REMARK       I    between atoms: C_22  and  N_20 
ROOT
ATOM      1  C   LIG d   1       0.880  84.024 109.289  0.00  0.00     0.161 C 
ATOM      2  C   LIG d   1       0.639  85.333 109.739  0.00  0.00     0.016 C 
ATOM      3  C   LIG d   1      -0.117  85.631 110.896  0.00  0.00     0.038 C 
ATOM      4  C   LIG d   1      -0.560  84.628 111.771  0.00  0.00     0.028 C 
ATOM      5  C   LIG d   1      -0.772  83.280 111.090  0.00  0.00    -0.047 C 
ATOM      6  C   LIG d   1       0.500  82.915 110.292  0.00  0.00     0.091 C 
ENDROOT
BRANCH   1   7
ATOM      7  O   LIG d   1       2.260  83.890 108.893  0.00  0.00    -0.368 OA
BRANCH   7   8
ATOM      8  C   LIG d   1       3.207  83.635 109.959  0.00  0.00     0.119 C 
BRANCH   8   9
ATOM      9  C   LIG d   1       3.861  84.980 110.330  0.00  0.00     0.028 C 
ATOM     10  C   LIG d   1       3.751  85.291 111.832  0.00  0.00     0.006 C 
ENDBRANCH   8   9
BRANCH   8  11
ATOM     11  C   LIG d   1       4.357  82.743 109.481  0.00  0.00     0.028 C 
ATOM     12  C   LIG d   1       4.065  82.066 108.133  0.00  0.00     0.006 C 
ENDBRANCH   8  11
ENDBRANCH   7   8
ENDBRANCH   1   7
BRANCH   6  13
ATOM     13  N   LIG d   1       0.345  81.650 109.526  0.00  0.00    -0.311 N 
ATOM     14  C   LIG d   1       1.088  80.566 109.743  0.00  0.00     0.210 C 
ATOM     15  C   LIG d   1       0.779  79.377 108.829  0.00  0.00     0.109 C 
ATOM     16  O   LIG d   1       1.952  80.466 110.628  0.00  0.00    -0.276 OA
ATOM     17  H   LIG d   1      -0.354  81.633 108.810  0.00  0.00     0.149 HD
ENDBRANCH   6  13
BRANCH   5  18
ATOM     18  N   LIG d   1      -1.098  82.296 112.140  0.00  0.00     0.381 N 
ATOM     19  H   LIG d   1      -0.494  82.427 112.926  0.00  0.00    -0.090 HD
ATOM     20  H   LIG d   1      -0.948  81.372 111.777  0.00  0.00    -0.090 HD
ATOM     21  H   LIG d   1      -2.048  82.401 112.422  0.00  0.00    -0.090 HD
ENDBRANCH   5  18
BRANCH   3  22
ATOM     22  C   LIG d   1      -0.472  86.944 111.166  0.00  0.00     0.382 C 
ATOM     23  O   LIG d   1       0.417  87.800 111.393  0.00  0.00    -0.241 OA
ATOM     24  O   LIG d   1      -1.672  87.273 111.229  0.00  0.00    -0.241 OA
ENDBRANCH   3  22
TORSDOF 7
ENDMDL
MODEL 2
REMARK VINA RESULT:      -6.3      2.547      4.262
REMARK  7 active torsions:
REMARK  status: ('A' for Active; 'I' for Inactive)
REMARK    1  A    between atoms: C_2  and  C_3 
REMARK    2  A    between atoms: C_3  and  O_6 
REMARK    3  A    between atoms: C_3  and  C_4 
REMARK    4  A    between atoms: C_7  and  O_6 
REMARK    5  A    between atoms: C_9  and  C_10 
REMARK    6  A    between atoms: N_15  and  C_14 
REMARK    7  A    between atoms: N_20  and  C_19 
REMARK       I    between atoms: C_22  and  N_20 
ROOT
ATOM      1  C   LIG d   1       0.420  82.253 110.964  0.00  0.00     0.161 C 
ATOM      2  C   LIG d   1      -0.693  82.092 111.806  0.00  0.00     0.016 C 
ATOM      3  C   LIG d   1      -1.381  80.866 111.962  0.00  0.00     0.038 C 
ATOM      4  C   LIG d   1      -0.906  79.673 111.397  0.00  0.00     0.028 C 
ATOM      5  C   LIG d   1      -0.079  79.887 110.135  0.00  0.00    -0.047 C 
ATOM      6  C   LIG d   1       1.019  80.936 110.426  0.00  0.00     0.091 C 
ENDROOT
BRANCH   1   7
ATOM      7  O   LIG d   1       1.433  83.027 111.635  0.00  0.00    -0.368 OA
BRANCH   7   8
ATOM      8  C   LIG d   1       1.448  84.446 111.344  0.00  0.00     0.119 C 
BRANCH   8   9
ATOM      9  C   LIG d   1       1.269  84.608 109.822  0.00  0.00     0.028 C 
ATOM     10  C   LIG d   1       0.333  85.774 109.462  0.00  0.00     0.006 C 
ENDBRANCH   8   9
BRANCH   8  11
ATOM     11  C   LIG d   1       2.813  85.065 111.659  0.00  0.00     0.028 C 
ATOM     12  C   LIG d   1       3.840  84.848 110.536  0.00  0.00     0.006 C 
ENDBRANCH   8  11
ENDBRANCH   7   8
ENDBRANCH   1   7
BRANCH   6  13
ATOM     13  N   LIG d   1       1.821  81.267 109.220  0.00  0.00    -0.311 N 
ATOM     14  C   LIG d   1       3.148  81.383 109.231  0.00  0.00     0.210 C 
ATOM     15  C   LIG d   1       3.776  81.750 107.883  0.00  0.00     0.109 C 
ATOM     16  O   LIG d   1       3.867  81.185 110.222  0.00  0.00    -0.276 OA
ATOM     17  H   LIG d   1       1.321  81.414 108.365  0.00  0.00     0.149 HD
ENDBRANCH   6  13
BRANCH   5  18
ATOM     18  N   LIG d   1       0.466  78.577 109.731  0.00  0.00     0.381 N 
ATOM     19  H   LIG d   1      -0.080  77.844 110.137  0.00  0.00    -0.090 HD
ATOM     20  H   LIG d   1       1.407  78.497 110.074  0.00  0.00    -0.090 HD
ATOM     21  H   LIG d   1       0.458  78.496 108.738  0.00  0.00    -0.090 HD
ENDBRANCH   5  18
BRANCH   3  22
ATOM     22  C   LIG d   1      -2.580  80.835 112.657  0.00  0.00     0.382 C 
ATOM     23  O   LIG d   1      -3.203  79.753 112.784  0.00  0.00    -0.241 OA
ATOM     24  O   LIG d   1      -3.069  81.882 113.122  0.00  0.00    -0.241 OA
ENDBRANCH   3  22
TORSDOF 7
ENDMDL
MODEL 3
REMARK VINA RESULT:      -6.2      2.359      4.637
REMARK  7 active torsions:
REMARK  status: ('A' for Active; 'I' for Inactive)
REMARK    1  A    between atoms: C_2  and  C_3 
REMARK    2  A    between atoms: C_3  and  O_6 
REMARK    3  A    between atoms: C_3  and  C_4 
REMARK    4  A    between atoms: C_7  and  O_6 
REMARK    5  A    between atoms: C_9  and  C_10 
REMARK    6  A    between atoms: N_15  and  C_14 
REMARK    7  A    between atoms: N_20  and  C_19 
REMARK       I    between atoms: C_22  and  N_20 
ROOT
ATOM      1  C   LIG d   1       1.252  82.032 111.789  0.00  0.00     0.161 C 
ATOM      2  C   LIG d   1       2.334  82.635 111.125  0.00  0.00     0.016 C 
ATOM      3  C   LIG d   1       2.551  82.524 109.732  0.00  0.00     0.038 C 
ATOM      4  C   LIG d   1       1.612  81.924 108.881  0.00  0.00     0.028 C 
ATOM      5  C   LIG d   1       0.758  80.865 109.571  0.00  0.00    -0.047 C 
ATOM      6  C   LIG d   1       0.157  81.467 110.861  0.00  0.00     0.091 C 
ENDROOT
BRANCH   1   7
ATOM      7  O   LIG d   1       0.680  82.960 112.733  0.00  0.00    -0.368 OA
BRANCH   7   8
ATOM      8  C   LIG d   1       0.777  84.363 112.385  0.00  0.00     0.119 C 
BRANCH   8   9
ATOM      9  C   LIG d   1       1.172  85.130 113.662  0.00  0.00     0.028 C 
ATOM     10  C   LIG d   1       2.542  85.816 113.535  0.00  0.00     0.006 C 
ENDBRANCH   8   9
BRANCH   8  11
ATOM     11  C   LIG d   1      -0.586  84.931 111.976  0.00  0.00     0.028 C 
ATOM     12  C   LIG d   1      -0.725  85.108 110.456  0.00  0.00     0.006 C 
ENDBRANCH   8  11
ENDBRANCH   7   8
ENDBRANCH   1   7
BRANCH   6  13
ATOM     13  N   LIG d   1      -0.624  80.472 111.641  0.00  0.00    -0.311 N 
ATOM     14  C   LIG d   1      -1.781  80.753 112.239  0.00  0.00     0.210 C 
ATOM     15  C   LIG d   1      -2.411  79.588 113.008  0.00  0.00     0.109 C 
ATOM     16  O   LIG d   1      -2.360  81.848 112.179  0.00  0.00    -0.276 OA
ATOM     17  H   LIG d   1      -0.243  79.550 111.715  0.00  0.00     0.149 HD
ENDBRANCH   6  13
BRANCH   5  18
ATOM     18  N   LIG d   1      -0.267  80.422 108.607  0.00  0.00     0.381 N 
ATOM     19  H   LIG d   1      -1.047  81.048 108.630  0.00  0.00    -0.090 HD
ATOM     20  H   LIG d   1      -0.589  79.508 108.873  0.00  0.00    -0.090 HD
ATOM     21  H   LIG d   1       0.118  80.392 107.689  0.00  0.00    -0.090 HD
ENDBRANCH   5  18
BRANCH   3  22
ATOM     22  C   LIG d   1       3.739  82.982 109.184  0.00  0.00     0.382 C 
ATOM     23  O   LIG d   1       4.211  82.430 108.161  0.00  0.00    -0.241 OA
ATOM     24  O   LIG d   1       4.368  83.911 109.724  0.00  0.00    -0.241 OA
ENDBRANCH   3  22
TORSDOF 7
ENDMDL
MODEL 4
REMARK VINA RESULT:      -6.1      2.506      4.760
REMARK  7 active torsions:
REMARK  status: ('A' for Active; 'I' for Inactive)
REMARK    1  A    between atoms: C_2  and  C_3 
REMARK    2  A    between atoms: C_3  and  O_6 
REMARK    3  A    between atoms: C_3  and  C_4 
REMARK    4  A    between atoms: C_7  and  O_6 
REMARK    5  A    between atoms: C_9  and  C_10 
REMARK    6  A    between atoms: N_15  and  C_14 
REMARK    7  A    between atoms: N_20  and  C_19 
REMARK       I    between atoms: C_22  and  N_20 
ROOT
ATOM      1  C   LIG d   1       2.200  83.026 111.475  0.00  0.00     0.161 C 
ATOM      2  C   LIG d   1       1.152  82.090 111.509  0.00  0.00     0.016 C 
ATOM      3  C   LIG d   1      -0.194  82.438 111.766  0.00  0.00     0.038 C 
ATOM      4  C   LIG d   1      -0.610  83.774 111.858  0.00  0.00     0.028 C 
ATOM      5  C   LIG d   1       0.489  84.719 112.332  0.00  0.00    -0.047 C 
ATOM      6  C   LIG d   1       1.748  84.501 111.462  0.00  0.00     0.091 C 
ENDROOT
BRANCH   1   7
ATOM      7  O   LIG d   1       3.060  82.755 110.351  0.00  0.00    -0.368 OA
BRANCH   7   8
ATOM      8  C   LIG d   1       2.467  82.010 109.259  0.00  0.00     0.119 C 
BRANCH   8   9
ATOM      9  C   LIG d   1       3.373  80.794 108.983  0.00  0.00     0.028 C 
ATOM     10  C   LIG d   1       4.716  80.881 109.728  0.00  0.00     0.006 C 
ENDBRANCH   8   9
BRANCH   8  11
ATOM     11  C   LIG d   1       2.473  82.823 107.961  0.00  0.00     0.028 C 
ATOM     12  C   LIG d   1       1.467  83.984 107.981  0.00  0.00     0.006 C 
ENDBRANCH   8  11
ENDBRANCH   7   8
ENDBRANCH   1   7
BRANCH   6  13
ATOM     13  N   LIG d   1       2.899  85.327 111.913  0.00  0.00    -0.311 N 
ATOM     14  C   LIG d   1       3.159  86.543 111.436  0.00  0.00     0.210 C 
ATOM     15  C   LIG d   1       4.406  87.214 112.023  0.00  0.00     0.109 C 
ATOM     16  O   LIG d   1       2.459  87.143 110.607  0.00  0.00    -0.276 OA
ATOM     17  H   LIG d   1       3.501  84.930 112.607  0.00  0.00     0.149 HD
ENDBRANCH   6  13
BRANCH   5  18
ATOM     18  N   LIG d   1      -0.040  86.094 112.249  0.00  0.00     0.381 N 
ATOM     19  H   LIG d   1      -0.786  86.210 112.905  0.00  0.00    -0.090 HD
ATOM     20  H   LIG d   1      -0.405  86.247 111.326  0.00  0.00    -0.090 HD
ATOM     21  H   LIG d   1       0.685  86.750 112.440  0.00  0.00    -0.090 HD
ENDBRANCH   5  18
BRANCH   3  22
ATOM     22  C   LIG d   1      -1.134  81.440 111.974  0.00  0.00     0.382 C 
ATOM     23  O   LIG d   1      -2.337  81.741 112.161  0.00  0.00    -0.241 OA
ATOM     24  O   LIG d   1      -0.786  80.244 112.021  0.00  0.00    -0.241 OA
ENDBRANCH   3  22
TORSDOF 7
ENDMDL
MODEL 5
REMARK VINA RESULT:      -6.0      2.877      3.866
REMARK  7 active torsions:
REMARK  status: ('A' for Active; 'I' for Inactive)
REMARK    1  A    between atoms: C_2  and  C_3 
REMARK    2  A    between atoms: C_3  and  O_6 
REMARK    3  A    between atoms: C_3  and  C_4 
REMARK    4  A    between atoms: C_7  and  O_6 
REMARK    5  A    between atoms: C_9  and  C_10 
REMARK    6  A    between atoms: N_15  and  C_14 
REMARK    7  A    between atoms: N_20  and  C_19 
REMARK       I    between atoms: C_22  and  N_20 
ROOT
ATOM      1  C   LIG d   1       3.984  85.716 110.992  0.00  0.00     0.161 C 
ATOM      2  C   LIG d   1       4.168  86.774 111.898  0.00  0.00     0.016 C 
ATOM      3  C   LIG d   1       3.143  87.681 112.255  0.00  0.00     0.038 C 
ATOM      4  C   LIG d   1       1.815  87.498 111.841  0.00  0.00     0.028 C 
ATOM      5  C   LIG d   1       1.689  86.739 110.525  0.00  0.00    -0.047 C 
ATOM      6  C   LIG d   1       2.514  85.435 110.617  0.00  0.00     0.091 C 
ENDROOT
BRANCH   1   7
ATOM      7  O   LIG d   1       4.609  84.522 111.503  0.00  0.00    -0.368 OA
BRANCH   7   8
ATOM      8  C   LIG d   1       3.733  83.580 112.169  0.00  0.00     0.119 C 
BRANCH   8   9
ATOM      9  C   LIG d   1       4.110  83.575 113.664  0.00  0.00     0.028 C 
ATOM     10  C   LIG d   1       3.118  84.378 114.522  0.00  0.00     0.006 C 
ENDBRANCH   8   9
BRANCH   8  11
ATOM     11  C   LIG d   1       3.982  82.149 111.684  0.00  0.00     0.028 C 
ATOM     12  C   LIG d   1       4.906  82.087 110.458  0.00  0.00     0.006 C 
ENDBRANCH   8  11
ENDBRANCH   7   8
ENDBRANCH   1   7
BRANCH   6  13
ATOM     13  N   LIG d   1       2.514  84.672 109.341  0.00  0.00    -0.311 N 
ATOM     14  C   LIG d   1       1.649  83.697 109.070  0.00  0.00     0.210 C 
ATOM     15  C   LIG d   1       1.836  83.027 107.705  0.00  0.00     0.109 C 
ATOM     16  O   LIG d   1       0.723  83.344 109.817  0.00  0.00    -0.276 OA
ATOM     17  H   LIG d   1       3.212  84.914 108.665  0.00  0.00     0.149 HD
ENDBRANCH   6  13
BRANCH   5  18
ATOM     18  N   LIG d   1       0.254  86.499 110.284  0.00  0.00     0.381 N 
ATOM     19  H   LIG d   1      -0.138  85.991 111.051  0.00  0.00    -0.090 HD
ATOM     20  H   LIG d   1       0.152  85.944 109.452  0.00  0.00    -0.090 HD
ATOM     21  H   LIG d   1      -0.223  87.367 110.173  0.00  0.00    -0.090 HD
ENDBRANCH   5  18
BRANCH   3  22
ATOM     22  C   LIG d   1       3.451  88.808 113.001  0.00  0.00     0.382 C 
ATOM     23  O   LIG d   1       2.710  89.151 113.953  0.00  0.00    -0.241 OA
ATOM     24  O   LIG d   1       4.437  89.510 112.708  0.00  0.00    -0.241 OA
ENDBRANCH   3  22
TORSDOF 7
ENDMDL
MODEL 6
REMARK VINA RESULT:      -5.7      2.234      3.248
REMARK  7 active torsions:
REMARK  status: ('A' for Active; 'I' for Inactive)
REMARK    1  A    between atoms: C_2  and  C_3 
REMARK    2  A    between atoms: C_3  and  O_6 
REMARK    3  A    between atoms: C_3  and  C_4 
REMARK    4  A    between atoms: C_7  and  O_6 
REMARK    5  A    between atoms: C_9  and  C_10 
REMARK    6  A    between atoms: N_15  and  C_14 
REMARK    7  A    between atoms: N_20  and  C_19 
REMARK       I    between atoms: C_22  and  N_20 
ROOT
ATOM      1  C   LIG d   1       1.059  84.214 110.848  0.00  0.00     0.161 C 
ATOM      2  C   LIG d   1       1.896  85.333 110.704  0.00  0.00     0.016 C 
ATOM      3  C   LIG d   1       2.651  85.882 111.766  0.00  0.00     0.038 C 
ATOM      4  C   LIG d   1       2.738  85.252 113.017  0.00  0.00     0.028 C 
ATOM      5  C   LIG d   1       1.515  84.406 113.355  0.00  0.00    -0.047 C 
ATOM      6  C   LIG d   1       1.226  83.448 112.177  0.00  0.00     0.091 C 
ENDROOT
BRANCH   1   7
ATOM      7  O   LIG d   1       1.238  83.323 109.730  0.00  0.00    -0.368 OA
BRANCH   7   8
ATOM      8  C   LIG d   1       2.560  83.302 109.137  0.00  0.00     0.119 C 
BRANCH   8   9
ATOM      9  C   LIG d   1       2.403  82.845 107.673  0.00  0.00     0.028 C 
ATOM     10  C   LIG d   1       1.648  83.874 106.815  0.00  0.00     0.006 C 
ENDBRANCH   8   9
BRANCH   8  11
ATOM     11  C   LIG d   1       3.451  82.247 109.798  0.00  0.00     0.028 C 
ATOM     12  C   LIG d   1       4.703  82.850 110.454  0.00  0.00     0.006 C 
ENDBRANCH   8  11
ENDBRANCH   7   8
ENDBRANCH   1   7
BRANCH   6  13
ATOM     13  N   LIG d   1      -0.004  82.643 112.390  0.00  0.00    -0.311 N 
ATOM     14  C   LIG d   1      -0.119  81.368 112.021  0.00  0.00     0.210 C 
ATOM     15  C   LIG d   1      -1.480  80.730 112.316  0.00  0.00     0.109 C 
ATOM     16  O   LIG d   1       0.788  80.696 111.508  0.00  0.00    -0.276 OA
ATOM     17  H   LIG d   1      -0.779  83.101 112.829  0.00  0.00     0.149 HD
ENDBRANCH   6  13
BRANCH   5  18
ATOM     18  N   LIG d   1       1.797  83.700 114.619  0.00  0.00     0.381 N 
ATOM     19  H   LIG d   1       2.194  82.803 114.424  0.00  0.00    -0.090 HD
ATOM     20  H   LIG d   1       0.934  83.562 115.114  0.00  0.00    -0.090 HD
ATOM     21  H   LIG d   1       2.426  84.236 115.176  0.00  0.00    -0.090 HD
ENDBRANCH   5  18
BRANCH   3  22
ATOM     22  C   LIG d   1       3.299  87.095 111.593  0.00  0.00     0.382 C 
ATOM     23  O   LIG d   1       2.632  88.153 111.491  0.00  0.00    -0.241 OA
ATOM     24  O   LIG d   1       4.540  87.140 111.494  0.00  0.00    -0.241 OA
ENDBRANCH   3  22
TORSDOF 7
ENDMDL
MODEL 7
REMARK VINA RESULT:      -5.6      2.229      3.457
REMARK  7 active torsions:
REMARK  status: ('A' for Active; 'I' for Inactive)
REMARK    1  A    between atoms: C_2  and  C_3 
REMARK    2  A    between atoms: C_3  and  O_6 
REMARK    3  A    between atoms: C_3  and  C_4 
REMARK    4  A    between atoms: C_7  and  O_6 
REMARK    5  A    between atoms: C_9  and  C_10 
REMARK    6  A    between atoms: N_15  and  C_14 
REMARK    7  A    between atoms: N_20  and  C_19 
REMARK       I    between atoms: C_22  and  N_20 
ROOT
ATOM      1  C   LIG d   1       1.256  82.819 110.358  0.00  0.00     0.161 C 
ATOM      2  C   LIG d   1       1.897  84.044 110.113  0.00  0.00     0.016 C 
ATOM      3  C   LIG d   1       2.544  84.798 111.119  0.00  0.00     0.038 C 
ATOM      4  C   LIG d   1       2.726  84.300 112.418  0.00  0.00     0.028 C 
ATOM      5  C   LIG d   1       1.657  83.296 112.836  0.00  0.00    -0.047 C 
ATOM      6  C   LIG d   1       1.539  82.206 111.746  0.00  0.00     0.091 C 
ENDROOT
BRANCH   1   7
ATOM      7  O   LIG d   1       1.587  81.877 109.318  0.00  0.00    -0.368 OA
BRANCH   7   8
ATOM      8  C   LIG d   1       2.541  80.846 109.672  0.00  0.00     0.119 C 
BRANCH   8   9
ATOM      9  C   LIG d   1       3.873  81.190 108.976  0.00  0.00     0.028 C 
ATOM     10  C   LIG d   1       4.895  81.813 109.941  0.00  0.00     0.006 C 
ENDBRANCH   8   9
BRANCH   8  11
ATOM     11  C   LIG d   1       2.127  79.485 109.105  0.00  0.00     0.028 C 
ATOM     12  C   LIG d   1       0.603  79.323 108.999  0.00  0.00     0.006 C 
ENDBRANCH   8  11
ENDBRANCH   7   8
ENDBRANCH   1   7
BRANCH   6  13
ATOM     13  N   LIG d   1       0.457  81.229 112.035  0.00  0.00    -0.311 N 
ATOM     14  C   LIG d   1      -0.839  81.530 111.970  0.00  0.00     0.210 C 
ATOM     15  C   LIG d   1      -1.788  80.382 112.327  0.00  0.00     0.109 C 
ATOM     16  O   LIG d   1      -1.293  82.629 111.619  0.00  0.00    -0.276 OA
ATOM     17  H   LIG d   1       0.736  80.304 112.298  0.00  0.00     0.149 HD
ENDBRANCH   6  13
BRANCH   5  18
ATOM     18  N   LIG d   1       2.044  82.756 114.153  0.00  0.00     0.381 N 
ATOM     19  H   LIG d   1       3.012  82.945 114.326  0.00  0.00    -0.090 HD
ATOM     20  H   LIG d   1       1.914  81.760 114.147  0.00  0.00    -0.090 HD
ATOM     21  H   LIG d   1       1.485  83.167 114.868  0.00  0.00    -0.090 HD
ENDBRANCH   5  18
BRANCH   3  22
ATOM     22  C   LIG d   1       2.984  86.083 110.839  0.00  0.00     0.382 C 
ATOM     23  O   LIG d   1       2.179  86.938 110.395  0.00  0.00    -0.241 OA
ATOM     24  O   LIG d   1       4.183  86.386 110.982  0.00  0.00    -0.241 OA
ENDBRANCH   3  22
TORSDOF 7
ENDMDL
MODEL 8
REMARK VINA RESULT:      -5.5      2.822      3.677
REMARK  7 active torsions:
REMARK  status: ('A' for Active; 'I' for Inactive)
REMARK    1  A    between atoms: C_2  and  C_3 
REMARK    2  A    between atoms: C_3  and  O_6 
REMARK    3  A    between atoms: C_3  and  C_4 
REMARK    4  A    between atoms: C_7  and  O_6 
REMARK    5  A    between atoms: C_9  and  C_10 
REMARK    6  A    between atoms: N_15  and  C_14 
REMARK    7  A    between atoms: N_20  and  C_19 
REMARK       I    between atoms: C_22  and  N_20 
ROOT
ATOM      1  C   LIG d   1       0.956  82.757 112.159  0.00  0.00     0.161 C 
ATOM      2  C   LIG d   1       0.049  83.694 111.636  0.00  0.00     0.016 C 
ATOM      3  C   LIG d   1       0.062  85.065 111.982  0.00  0.00     0.038 C 
ATOM      4  C   LIG d   1       1.084  85.623 112.763  0.00  0.00     0.028 C 
ATOM      5  C   LIG d   1       1.729  84.626 113.720  0.00  0.00    -0.047 C 
ATOM      6  C   LIG d   1       2.147  83.367 112.926  0.00  0.00     0.091 C 
ENDROOT
BRANCH   1   7
ATOM      7  O   LIG d   1       1.428  81.894 111.105  0.00  0.00    -0.368 OA
BRANCH   7   8
ATOM      8  C   LIG d   1       2.463  82.439 110.251  0.00  0.00     0.119 C 
BRANCH   8   9
ATOM      9  C   LIG d   1       1.892  82.514 108.822  0.00  0.00     0.028 C 
ATOM     10  C   LIG d   1       1.669  83.963 108.355  0.00  0.00     0.006 C 
ENDBRANCH   8   9
BRANCH   8  11
ATOM     11  C   LIG d   1       3.664  81.493 110.158  0.00  0.00     0.028 C 
ATOM     12  C   LIG d   1       5.010  82.235 110.186  0.00  0.00     0.006 C 
ENDBRANCH   8  11
ENDBRANCH   7   8
ENDBRANCH   1   7
BRANCH   6  13
ATOM     13  N   LIG d   1       2.710  82.306 113.801  0.00  0.00    -0.311 N 
ATOM     14  C   LIG d   1       4.009  82.188 114.067  0.00  0.00     0.210 C 
ATOM     15  C   LIG d   1       4.379  81.012 114.977  0.00  0.00     0.109 C 
ATOM     16  O   LIG d   1       4.888  82.964 113.662  0.00  0.00    -0.276 OA
ATOM     17  H   LIG d   1       2.064  81.652 114.198  0.00  0.00     0.149 HD
ENDBRANCH   6  13
BRANCH   5  18
ATOM     18  N   LIG d   1       2.866  85.304 114.371  0.00  0.00     0.381 N 
ATOM     19  H   LIG d   1       3.618  84.656 114.498  0.00  0.00    -0.090 HD
ATOM     20  H   LIG d   1       2.575  85.631 115.276  0.00  0.00    -0.090 HD
ATOM     21  H   LIG d   1       3.169  86.072 113.814  0.00  0.00    -0.090 HD
ENDBRANCH   5  18
BRANCH   3  22
ATOM     22  C   LIG d   1      -0.980  85.886 111.576  0.00  0.00     0.382 C 
ATOM     23  O   LIG d   1      -1.762  86.374 112.428  0.00  0.00    -0.241 OA
ATOM     24  O   LIG d   1      -1.174  86.109 110.366  0.00  0.00    -0.241 OA
ENDBRANCH   3  22
TORSDOF 7
ENDMDL
MODEL 9
REMARK VINA RESULT:      -5.4      2.131      5.556
REMARK  7 active torsions:
REMARK  status: ('A' for Active; 'I' for Inactive)
REMARK    1  A    between atoms: C_2  and  C_3 
REMARK    2  A    between atoms: C_3  and  O_6 
REMARK    3  A    between atoms: C_3  and  C_4 
REMARK    4  A    between atoms: C_7  and  O_6 
REMARK    5  A    between atoms: C_9  and  C_10 
REMARK    6  A    between atoms: N_15  and  C_14 
REMARK    7  A    between atoms: N_20  and  C_19 
REMARK       I    between atoms: C_22  and  N_20 
ROOT
ATOM      1  C   LIG d   1       1.329  82.592 111.211  0.00  0.00     0.161 C 
ATOM      2  C   LIG d   1       2.040  81.431 110.866  0.00  0.00     0.016 C 
ATOM      3  C   LIG d   1       2.508  81.165 109.559  0.00  0.00     0.038 C 
ATOM      4  C   LIG d   1       2.427  82.119 108.534  0.00  0.00     0.028 C 
ATOM      5  C   LIG d   1       1.270  83.098 108.707  0.00  0.00    -0.047 C 
ATOM      6  C   LIG d   1       1.328  83.695 110.132  0.00  0.00     0.091 C 
ENDROOT
BRANCH   1   7
ATOM      7  O   LIG d   1       1.823  83.114 112.461  0.00  0.00    -0.368 OA
BRANCH   7   8
ATOM      8  C   LIG d   1       2.969  83.996 112.374  0.00  0.00     0.119 C 
BRANCH   8   9
ATOM      9  C   LIG d   1       4.185  83.231 112.932  0.00  0.00     0.028 C 
ATOM     10  C   LIG d   1       5.122  82.729 111.821  0.00  0.00     0.006 C 
ENDBRANCH   8   9
BRANCH   8  11
ATOM     11  C   LIG d   1       2.803  85.215 113.286  0.00  0.00     0.028 C 
ATOM     12  C   LIG d   1       1.417  85.281 113.947  0.00  0.00     0.006 C 
ENDBRANCH   8  11
ENDBRANCH   7   8
ENDBRANCH   1   7
BRANCH   6  13
ATOM     13  N   LIG d   1       0.183  84.599 110.415  0.00  0.00    -0.311 N 
ATOM     14  C   LIG d   1       0.296  85.924 110.487  0.00  0.00     0.210 C 
ATOM     15  C   LIG d   1      -1.004  86.668 110.808  0.00  0.00     0.109 C 
ATOM     16  O   LIG d   1       1.343  86.557 110.283  0.00  0.00    -0.276 OA
ATOM     17  H   LIG d   1      -0.711  84.172 110.562  0.00  0.00     0.149 HD
ENDBRANCH   6  13
BRANCH   5  18
ATOM     18  N   LIG d   1       1.386  84.118 107.648  0.00  0.00     0.381 N 
ATOM     19  H   LIG d   1       0.666  83.983 106.967  0.00  0.00    -0.090 HD
ATOM     20  H   LIG d   1       2.275  84.012 107.192  0.00  0.00    -0.090 HD
ATOM     21  H   LIG d   1       1.314  85.029 108.043  0.00  0.00    -0.090 HD
ENDBRANCH   5  18
BRANCH   3  22
ATOM     22  C   LIG d   1       3.029  79.916 109.256  0.00  0.00     0.382 C 
ATOM     23  O   LIG d   1       2.257  78.958 109.009  0.00  0.00    -0.241 OA
ATOM     24  O   LIG d   1       4.260  79.724 109.270  0.00  0.00    -0.241 OA
ENDBRANCH   3  22
TORSDOF 7
ENDMDL
