MODEL 1
REMARK VINA RESULT:      -6.1      0.000      0.000
REMARK  7 active torsions:
REMARK  status: ('A' for Active; 'I' for Inactive)
REMARK    1  A    between atoms: C_2  and  C_3 
REMARK    2  A    between atoms: C_3  and  O_6 
REMARK    3  A    between atoms: C_3  and  C_4 
REMARK    4  A    between atoms: C_7  and  O_6 
REMARK    5  A    between atoms: C_9  and  C_10 
REMARK    6  A    between atoms: N_15  and  C_14 
REMARK    7  A    between atoms: N_20  and  C_19 
REMARK       I    between atoms: C_22  and  N_20 
ROOT
ATOM      1  C   LIG d   1      -5.253  75.016 115.212  0.00  0.00     0.161 C 
ATOM      2  C   LIG d   1      -6.088  75.337 114.129  0.00  0.00     0.016 C 
ATOM      3  C   LIG d   1      -5.634  76.002 112.967  0.00  0.00     0.038 C 
ATOM      4  C   LIG d   1      -4.273  76.257 112.742  0.00  0.00     0.028 C 
ATOM      5  C   LIG d   1      -3.464  76.403 114.027  0.00  0.00    -0.047 C 
ATOM      6  C   LIG d   1      -3.744  75.186 114.937  0.00  0.00     0.091 C 
ENDROOT
BRANCH   1   7
ATOM      7  O   LIG d   1      -5.531  73.675 115.663  0.00  0.00    -0.368 OA
BRANCH   7   8
ATOM      8  C   LIG d   1      -6.931  73.331 115.812  0.00  0.00     0.119 C 
BRANCH   8   9
ATOM      9  C   LIG d   1      -7.392  73.853 117.186  0.00  0.00     0.028 C 
ATOM     10  C   LIG d   1      -8.503  74.911 117.069  0.00  0.00     0.006 C 
ENDBRANCH   8   9
BRANCH   8  11
ATOM     11  C   LIG d   1      -7.128  71.813 115.867  0.00  0.00     0.028 C 
ATOM     12  C   LIG d   1      -8.500  71.411 116.431  0.00  0.00     0.006 C 
ENDBRANCH   8  11
ENDBRANCH   7   8
ENDBRANCH   1   7
BRANCH   6  13
ATOM     13  N   LIG d   1      -3.057  75.292 116.251  0.00  0.00    -0.311 N 
ATOM     14  C   LIG d   1      -1.890  74.708 116.517  0.00  0.00     0.210 C 
ATOM     15  C   LIG d   1      -1.366  74.927 117.940  0.00  0.00     0.109 C 
ATOM     16  O   LIG d   1      -1.223  74.056 115.700  0.00  0.00    -0.276 OA
ATOM     17  H   LIG d   1      -3.513  75.828 116.963  0.00  0.00     0.149 HD
ENDBRANCH   6  13
BRANCH   5  18
ATOM     18  N   LIG d   1      -2.044  76.528 113.647  0.00  0.00     0.381 N 
ATOM     19  H   LIG d   1      -1.519  76.892 114.417  0.00  0.00    -0.090 HD
ATOM     20  H   LIG d   1      -1.968  77.172 112.880  0.00  0.00    -0.090 HD
ATOM     21  H   LIG d   1      -1.683  75.638 113.380  0.00  0.00    -0.090 HD
ENDBRANCH   5  18
BRANCH   3  22
ATOM     22  C   LIG d   1      -6.552  76.455 112.031  0.00  0.00     0.382 C 
ATOM     23  O   LIG d   1      -6.328  76.300 110.807  0.00  0.00    -0.241 OA
ATOM     24  O   LIG d   1      -7.581  77.055 112.395  0.00  0.00    -0.241 OA
ENDBRANCH   3  22
TORSDOF 7
ENDMDL
MODEL 2
REMARK VINA RESULT:      -6.0      3.576      5.333
REMARK  7 active torsions:
REMARK  status: ('A' for Active; 'I' for Inactive)
REMARK    1  A    between atoms: C_2  and  C_3 
REMARK    2  A    between atoms: C_3  and  O_6 
REMARK    3  A    between atoms: C_3  and  C_4 
REMARK    4  A    between atoms: C_7  and  O_6 
REMARK    5  A    between atoms: C_9  and  C_10 
REMARK    6  A    between atoms: N_15  and  C_14 
REMARK    7  A    between atoms: N_20  and  C_19 
REMARK       I    between atoms: C_22  and  N_20 
ROOT
ATOM      1  C   LIG d   1      -7.989  75.309 117.681  0.00  0.00     0.161 C 
ATOM      2  C   LIG d   1      -9.343  75.533 117.982  0.00  0.00     0.016 C 
ATOM      3  C   LIG d   1      -9.859  76.795 118.355  0.00  0.00     0.038 C 
ATOM      4  C   LIG d   1      -9.078  77.960 118.305  0.00  0.00     0.028 C 
ATOM      5  C   LIG d   1      -7.588  77.698 118.495  0.00  0.00    -0.047 C 
ATOM      6  C   LIG d   1      -7.144  76.590 117.513  0.00  0.00     0.091 C 
ENDROOT
BRANCH   1   7
ATOM      7  O   LIG d   1      -7.880  74.480 116.507  0.00  0.00    -0.368 OA
BRANCH   7   8
ATOM      8  C   LIG d   1      -7.719  73.060 116.743  0.00  0.00     0.119 C 
BRANCH   8   9
ATOM      9  C   LIG d   1      -6.518  72.585 115.902  0.00  0.00     0.028 C 
ATOM     10  C   LIG d   1      -5.807  73.745 115.186  0.00  0.00     0.006 C 
ENDBRANCH   8   9
BRANCH   8  11
ATOM     11  C   LIG d   1      -8.920  72.267 116.218  0.00  0.00     0.028 C 
ATOM     12  C   LIG d   1      -9.048  70.880 116.868  0.00  0.00     0.006 C 
ENDBRANCH   8  11
ENDBRANCH   7   8
ENDBRANCH   1   7
BRANCH   6  13
ATOM     13  N   LIG d   1      -5.717  76.213 117.690  0.00  0.00    -0.311 N 
ATOM     14  C   LIG d   1      -4.725  76.744 116.978  0.00  0.00     0.210 C 
ATOM     15  C   LIG d   1      -3.331  76.201 117.307  0.00  0.00     0.109 C 
ATOM     16  O   LIG d   1      -4.863  77.636 116.128  0.00  0.00    -0.276 OA
ATOM     17  H   LIG d   1      -5.512  75.518 118.381  0.00  0.00     0.149 HD
ENDBRANCH   6  13
BRANCH   5  18
ATOM     18  N   LIG d   1      -6.881  78.975 118.283  0.00  0.00     0.381 N 
ATOM     19  H   LIG d   1      -5.906  78.859 118.477  0.00  0.00    -0.090 HD
ATOM     20  H   LIG d   1      -7.249  79.660 118.919  0.00  0.00    -0.090 HD
ATOM     21  H   LIG d   1      -7.005  79.282 117.343  0.00  0.00    -0.090 HD
ENDBRANCH   5  18
BRANCH   3  22
ATOM     22  C   LIG d   1     -11.161  76.895 118.822  0.00  0.00     0.382 C 
ATOM     23  O   LIG d   1     -11.420  77.630 119.805  0.00  0.00    -0.241 OA
ATOM     24  O   LIG d   1     -12.072  76.224 118.301  0.00  0.00    -0.241 OA
ENDBRANCH   3  22
TORSDOF 7
ENDMDL
MODEL 3
REMARK VINA RESULT:      -5.9     11.467     13.924
REMARK  7 active torsions:
REMARK  status: ('A' for Active; 'I' for Inactive)
REMARK    1  A    between atoms: C_2  and  C_3 
REMARK    2  A    between atoms: C_3  and  O_6 
REMARK    3  A    between atoms: C_3  and  C_4 
REMARK    4  A    between atoms: C_7  and  O_6 
REMARK    5  A    between atoms: C_9  and  C_10 
REMARK    6  A    between atoms: N_15  and  C_14 
REMARK    7  A    between atoms: N_20  and  C_19 
REMARK       I    between atoms: C_22  and  N_20 
ROOT
ATOM      1  C   LIG d   1       2.820  85.272 111.879  0.00  0.00     0.161 C 
ATOM      2  C   LIG d   1       3.473  86.516 111.901  0.00  0.00     0.016 C 
ATOM      3  C   LIG d   1       3.452  87.386 113.015  0.00  0.00     0.038 C 
ATOM      4  C   LIG d   1       2.899  87.002 114.246  0.00  0.00     0.028 C 
ATOM      5  C   LIG d   1       1.791  85.962 114.114  0.00  0.00    -0.047 C 
ATOM      6  C   LIG d   1       2.306  84.787 113.251  0.00  0.00     0.091 C 
ENDROOT
BRANCH   1   7
ATOM      7  O   LIG d   1       3.682  84.278 111.288  0.00  0.00    -0.368 OA
BRANCH   7   8
ATOM      8  C   LIG d   1       3.523  84.063 109.864  0.00  0.00     0.119 C 
BRANCH   8   9
ATOM      9  C   LIG d   1       2.110  83.490 109.638  0.00  0.00     0.028 C 
ATOM     10  C   LIG d   1       1.080  84.582 109.306  0.00  0.00     0.006 C 
ENDBRANCH   8   9
BRANCH   8  11
ATOM     11  C   LIG d   1       4.484  82.986 109.353  0.00  0.00     0.028 C 
ATOM     12  C   LIG d   1       3.933  81.562 109.531  0.00  0.00     0.006 C 
ENDBRANCH   8  11
ENDBRANCH   7   8
ENDBRANCH   1   7
BRANCH   6  13
ATOM     13  N   LIG d   1       1.256  83.765 113.002  0.00  0.00    -0.311 N 
ATOM     14  C   LIG d   1       1.490  82.454 113.027  0.00  0.00     0.210 C 
ATOM     15  C   LIG d   1       0.273  81.574 112.723  0.00  0.00     0.109 C 
ATOM     16  O   LIG d   1       2.582  81.935 113.303  0.00  0.00    -0.276 OA
ATOM     17  H   LIG d   1       0.334  84.097 112.801  0.00  0.00     0.149 HD
ENDBRANCH   6  13
BRANCH   5  18
ATOM     18  N   LIG d   1       1.401  85.552 115.476  0.00  0.00     0.381 N 
ATOM     19  H   LIG d   1       0.735  86.200 115.847  0.00  0.00    -0.090 HD
ATOM     20  H   LIG d   1       2.215  85.563 116.065  0.00  0.00    -0.090 HD
ATOM     21  H   LIG d   1       1.008  84.636 115.457  0.00  0.00    -0.090 HD
ENDBRANCH   5  18
BRANCH   3  22
ATOM     22  C   LIG d   1       3.954  88.673 112.892  0.00  0.00     0.382 C 
ATOM     23  O   LIG d   1       3.187  89.659 113.010  0.00  0.00    -0.241 OA
ATOM     24  O   LIG d   1       5.155  88.859 112.619  0.00  0.00    -0.241 OA
ENDBRANCH   3  22
TORSDOF 7
ENDMDL
MODEL 4
REMARK VINA RESULT:      -5.8      2.477      4.267
REMARK  7 active torsions:
REMARK  status: ('A' for Active; 'I' for Inactive)
REMARK    1  A    between atoms: C_2  and  C_3 
REMARK    2  A    between atoms: C_3  and  O_6 
REMARK    3  A    between atoms: C_3  and  C_4 
REMARK    4  A    between atoms: C_7  and  O_6 
REMARK    5  A    between atoms: C_9  and  C_10 
REMARK    6  A    between atoms: N_15  and  C_14 
REMARK    7  A    between atoms: N_20  and  C_19 
REMARK       I    between atoms: C_22  and  N_20 
ROOT
ATOM      1  C   LIG d   1      -6.400  75.961 115.115  0.00  0.00     0.161 C 
ATOM      2  C   LIG d   1      -5.266  75.640 114.350  0.00  0.00     0.016 C 
ATOM      3  C   LIG d   1      -3.946  75.960 114.744  0.00  0.00     0.038 C 
ATOM      4  C   LIG d   1      -3.658  76.492 116.009  0.00  0.00     0.028 C 
ATOM      5  C   LIG d   1      -4.809  77.295 116.605  0.00  0.00    -0.047 C 
ATOM      6  C   LIG d   1      -6.097  76.442 116.549  0.00  0.00     0.091 C 
ENDROOT
BRANCH   1   7
ATOM      7  O   LIG d   1      -7.304  74.839 115.143  0.00  0.00    -0.368 OA
BRANCH   7   8
ATOM      8  C   LIG d   1      -7.206  73.971 116.298  0.00  0.00     0.119 C 
BRANCH   8   9
ATOM      9  C   LIG d   1      -6.644  72.619 115.816  0.00  0.00     0.028 C 
ATOM     10  C   LIG d   1      -7.601  71.450 116.101  0.00  0.00     0.006 C 
ENDBRANCH   8   9
BRANCH   8  11
ATOM     11  C   LIG d   1      -8.589  73.652 116.874  0.00  0.00     0.028 C 
ATOM     12  C   LIG d   1      -9.678  74.617 116.379  0.00  0.00     0.006 C 
ENDBRANCH   8  11
ENDBRANCH   7   8
ENDBRANCH   1   7
BRANCH   6  13
ATOM     13  N   LIG d   1      -7.290  77.184 117.036  0.00  0.00    -0.311 N 
ATOM     14  C   LIG d   1      -7.703  77.159 118.301  0.00  0.00     0.210 C 
ATOM     15  C   LIG d   1      -8.966  77.978 118.586  0.00  0.00     0.109 C 
ATOM     16  O   LIG d   1      -7.125  76.562 119.222  0.00  0.00    -0.276 OA
ATOM     17  H   LIG d   1      -7.800  77.720 116.361  0.00  0.00     0.149 HD
ENDBRANCH   6  13
BRANCH   5  18
ATOM     18  N   LIG d   1      -4.425  77.674 117.978  0.00  0.00     0.381 N 
ATOM     19  H   LIG d   1      -3.572  78.196 117.959  0.00  0.00    -0.090 HD
ATOM     20  H   LIG d   1      -4.271  76.838 118.514  0.00  0.00    -0.090 HD
ATOM     21  H   LIG d   1      -5.148  78.218 118.396  0.00  0.00    -0.090 HD
ENDBRANCH   5  18
BRANCH   3  22
ATOM     22  C   LIG d   1      -2.900  75.784 113.850  0.00  0.00     0.382 C 
ATOM     23  O   LIG d   1      -1.880  75.142 114.197  0.00  0.00    -0.241 OA
ATOM     24  O   LIG d   1      -2.946  76.296 112.715  0.00  0.00    -0.241 OA
ENDBRANCH   3  22
TORSDOF 7
ENDMDL
MODEL 5
REMARK VINA RESULT:      -5.8      2.039      2.532
REMARK  7 active torsions:
REMARK  status: ('A' for Active; 'I' for Inactive)
REMARK    1  A    between atoms: C_2  and  C_3 
REMARK    2  A    between atoms: C_3  and  O_6 
REMARK    3  A    between atoms: C_3  and  C_4 
REMARK    4  A    between atoms: C_7  and  O_6 
REMARK    5  A    between atoms: C_9  and  C_10 
REMARK    6  A    between atoms: N_15  and  C_14 
REMARK    7  A    between atoms: N_20  and  C_19 
REMARK       I    between atoms: C_22  and  N_20 
ROOT
ATOM      1  C   LIG d   1      -3.411  75.872 115.386  0.00  0.00     0.161 C 
ATOM      2  C   LIG d   1      -3.791  76.561 114.222  0.00  0.00     0.016 C 
ATOM      3  C   LIG d   1      -2.875  76.962 113.222  0.00  0.00     0.038 C 
ATOM      4  C   LIG d   1      -1.530  76.564 113.245  0.00  0.00     0.028 C 
ATOM      5  C   LIG d   1      -1.001  76.298 114.650  0.00  0.00    -0.047 C 
ATOM      6  C   LIG d   1      -1.966  75.332 115.375  0.00  0.00     0.091 C 
ENDROOT
BRANCH   1   7
ATOM      7  O   LIG d   1      -4.343  74.803 115.646  0.00  0.00    -0.368 OA
BRANCH   7   8
ATOM      8  C   LIG d   1      -5.748  75.153 115.580  0.00  0.00     0.119 C 
BRANCH   8   9
ATOM      9  C   LIG d   1      -6.165  75.662 116.973  0.00  0.00     0.028 C 
ATOM     10  C   LIG d   1      -6.556  77.149 116.961  0.00  0.00     0.006 C 
ENDBRANCH   8   9
BRANCH   8  11
ATOM     11  C   LIG d   1      -6.617  73.918 115.322  0.00  0.00     0.028 C 
ATOM     12  C   LIG d   1      -7.792  73.801 116.305  0.00  0.00     0.006 C 
ENDBRANCH   8  11
ENDBRANCH   7   8
ENDBRANCH   1   7
BRANCH   6  13
ATOM     13  N   LIG d   1      -1.567  75.085 116.785  0.00  0.00    -0.311 N 
ATOM     14  C   LIG d   1      -0.816  74.053 117.165  0.00  0.00     0.210 C 
ATOM     15  C   LIG d   1      -0.538  73.974 118.670  0.00  0.00     0.109 C 
ATOM     16  O   LIG d   1      -0.327  73.213 116.395  0.00  0.00    -0.276 OA
ATOM     17  H   LIG d   1      -1.895  75.736 117.472  0.00  0.00     0.149 HD
ENDBRANCH   6  13
BRANCH   5  18
ATOM     18  N   LIG d   1       0.366  75.760 114.517  0.00  0.00     0.381 N 
ATOM     19  H   LIG d   1       1.012  76.355 114.996  0.00  0.00    -0.090 HD
ATOM     20  H   LIG d   1       0.615  75.742 113.544  0.00  0.00    -0.090 HD
ATOM     21  H   LIG d   1       0.408  74.839 114.895  0.00  0.00    -0.090 HD
ENDBRANCH   5  18
BRANCH   3  22
ATOM     22  C   LIG d   1      -3.296  77.803 112.203  0.00  0.00     0.382 C 
ATOM     23  O   LIG d   1      -3.560  77.333 111.070  0.00  0.00    -0.241 OA
ATOM     24  O   LIG d   1      -3.372  79.033 112.390  0.00  0.00    -0.241 OA
ENDBRANCH   3  22
TORSDOF 7
ENDMDL
MODEL 6
REMARK VINA RESULT:      -5.8      2.945      4.621
REMARK  7 active torsions:
REMARK  status: ('A' for Active; 'I' for Inactive)
REMARK    1  A    between atoms: C_2  and  C_3 
REMARK    2  A    between atoms: C_3  and  O_6 
REMARK    3  A    between atoms: C_3  and  C_4 
REMARK    4  A    between atoms: C_7  and  O_6 
REMARK    5  A    between atoms: C_9  and  C_10 
REMARK    6  A    between atoms: N_15  and  C_14 
REMARK    7  A    between atoms: N_20  and  C_19 
REMARK       I    between atoms: C_22  and  N_20 
ROOT
ATOM      1  C   LIG d   1      -5.797  75.384 116.316  0.00  0.00     0.161 C 
ATOM      2  C   LIG d   1      -4.645  74.727 115.853  0.00  0.00     0.016 C 
ATOM      3  C   LIG d   1      -3.331  75.143 116.169  0.00  0.00     0.038 C 
ATOM      4  C   LIG d   1      -3.080  76.162 117.100  0.00  0.00     0.028 C 
ATOM      5  C   LIG d   1      -4.210  77.180 117.202  0.00  0.00    -0.047 C 
ATOM      6  C   LIG d   1      -5.544  76.430 117.422  0.00  0.00     0.091 C 
ENDROOT
BRANCH   1   7
ATOM      7  O   LIG d   1      -6.769  74.415 116.755  0.00  0.00    -0.368 OA
BRANCH   7   8
ATOM      8  C   LIG d   1      -7.789  74.053 115.792  0.00  0.00     0.119 C 
BRANCH   8   9
ATOM      9  C   LIG d   1      -9.000  74.975 116.031  0.00  0.00     0.028 C 
ATOM     10  C   LIG d   1      -9.443  74.992 117.503  0.00  0.00     0.006 C 
ENDBRANCH   8   9
BRANCH   8  11
ATOM     11  C   LIG d   1      -8.306  72.633 116.035  0.00  0.00     0.028 C 
ATOM     12  C   LIG d   1      -7.175  71.601 116.170  0.00  0.00     0.006 C 
ENDBRANCH   8  11
ENDBRANCH   7   8
ENDBRANCH   1   7
BRANCH   6  13
ATOM     13  N   LIG d   1      -6.713  77.348 117.449  0.00  0.00    -0.311 N 
ATOM     14  C   LIG d   1      -7.256  77.810 118.574  0.00  0.00     0.210 C 
ATOM     15  C   LIG d   1      -8.467  78.727 118.377  0.00  0.00     0.109 C 
ATOM     16  O   LIG d   1      -6.831  77.573 119.714  0.00  0.00    -0.276 OA
ATOM     17  H   LIG d   1      -7.102  77.616 116.566  0.00  0.00     0.149 HD
ENDBRANCH   6  13
BRANCH   5  18
ATOM     18  N   LIG d   1      -3.879  78.104 118.303  0.00  0.00     0.381 N 
ATOM     19  H   LIG d   1      -2.988  78.526 118.135  0.00  0.00    -0.090 HD
ATOM     20  H   LIG d   1      -3.824  77.583 119.160  0.00  0.00    -0.090 HD
ATOM     21  H   LIG d   1      -4.579  78.809 118.380  0.00  0.00    -0.090 HD
ENDBRANCH   5  18
BRANCH   3  22
ATOM     22  C   LIG d   1      -2.252  74.562 115.521  0.00  0.00     0.382 C 
ATOM     23  O   LIG d   1      -1.519  73.746 116.130  0.00  0.00    -0.241 OA
ATOM     24  O   LIG d   1      -1.975  74.878 114.348  0.00  0.00    -0.241 OA
ENDBRANCH   3  22
TORSDOF 7
ENDMDL
MODEL 7
REMARK VINA RESULT:      -5.7      3.007      5.895
REMARK  7 active torsions:
REMARK  status: ('A' for Active; 'I' for Inactive)
REMARK    1  A    between atoms: C_2  and  C_3 
REMARK    2  A    between atoms: C_3  and  O_6 
REMARK    3  A    between atoms: C_3  and  C_4 
REMARK    4  A    between atoms: C_7  and  O_6 
REMARK    5  A    between atoms: C_9  and  C_10 
REMARK    6  A    between atoms: N_15  and  C_14 
REMARK    7  A    between atoms: N_20  and  C_19 
REMARK       I    between atoms: C_22  and  N_20 
ROOT
ATOM      1  C   LIG d   1      -6.722  75.560 116.326  0.00  0.00     0.161 C 
ATOM      2  C   LIG d   1      -6.743  74.193 116.001  0.00  0.00     0.016 C 
ATOM      3  C   LIG d   1      -7.853  73.352 116.243  0.00  0.00     0.038 C 
ATOM      4  C   LIG d   1      -9.083  73.858 116.692  0.00  0.00     0.028 C 
ATOM      5  C   LIG d   1      -8.949  75.139 117.508  0.00  0.00    -0.047 C 
ATOM      6  C   LIG d   1      -8.093  76.153 116.713  0.00  0.00     0.091 C 
ENDROOT
BRANCH   1   7
ATOM      7  O   LIG d   1      -6.140  76.311 115.242  0.00  0.00    -0.368 OA
BRANCH   7   8
ATOM      8  C   LIG d   1      -6.090  75.643 113.958  0.00  0.00     0.119 C 
BRANCH   8   9
ATOM      9  C   LIG d   1      -4.690  75.887 113.363  0.00  0.00     0.028 C 
ATOM     10  C   LIG d   1      -3.564  75.576 114.364  0.00  0.00     0.006 C 
ENDBRANCH   8   9
BRANCH   8  11
ATOM     11  C   LIG d   1      -7.069  76.274 112.963  0.00  0.00     0.028 C 
ATOM     12  C   LIG d   1      -6.470  76.433 111.557  0.00  0.00     0.006 C 
ENDBRANCH   8  11
ENDBRANCH   7   8
ENDBRANCH   1   7
BRANCH   6  13
ATOM     13  N   LIG d   1      -7.842  77.403 117.476  0.00  0.00    -0.311 N 
ATOM     14  C   LIG d   1      -7.202  77.434 118.644  0.00  0.00     0.210 C 
ATOM     15  C   LIG d   1      -7.069  78.825 119.271  0.00  0.00     0.109 C 
ATOM     16  O   LIG d   1      -6.704  76.446 119.203  0.00  0.00    -0.276 OA
ATOM     17  H   LIG d   1      -8.186  78.256 117.079  0.00  0.00     0.149 HD
ENDBRANCH   6  13
BRANCH   5  18
ATOM     18  N   LIG d   1     -10.310  75.630 117.793  0.00  0.00     0.381 N 
ATOM     19  H   LIG d   1     -10.983  75.044 117.341  0.00  0.00    -0.090 HD
ATOM     20  H   LIG d   1     -10.404  76.561 117.425  0.00  0.00    -0.090 HD
ATOM     21  H   LIG d   1     -10.471  75.636 118.776  0.00  0.00    -0.090 HD
ENDBRANCH   5  18
BRANCH   3  22
ATOM     22  C   LIG d   1      -7.728  71.982 116.073  0.00  0.00     0.382 C 
ATOM     23  O   LIG d   1      -8.651  71.217 116.442  0.00  0.00    -0.241 OA
ATOM     24  O   LIG d   1      -6.683  71.497 115.597  0.00  0.00    -0.241 OA
ENDBRANCH   3  22
TORSDOF 7
ENDMDL
MODEL 8
REMARK VINA RESULT:      -5.5      3.093      5.848
REMARK  7 active torsions:
REMARK  status: ('A' for Active; 'I' for Inactive)
REMARK    1  A    between atoms: C_2  and  C_3 
REMARK    2  A    between atoms: C_3  and  O_6 
REMARK    3  A    between atoms: C_3  and  C_4 
REMARK    4  A    between atoms: C_7  and  O_6 
REMARK    5  A    between atoms: C_9  and  C_10 
REMARK    6  A    between atoms: N_15  and  C_14 
REMARK    7  A    between atoms: N_20  and  C_19 
REMARK       I    between atoms: C_22  and  N_20 
ROOT
ATOM      1  C   LIG d   1      -6.455  75.057 117.255  0.00  0.00     0.161 C 
ATOM      2  C   LIG d   1      -6.715  73.799 116.686  0.00  0.00     0.016 C 
ATOM      3  C   LIG d   1      -8.018  73.277 116.514  0.00  0.00     0.038 C 
ATOM      4  C   LIG d   1      -9.164  74.047 116.763  0.00  0.00     0.028 C 
ATOM      5  C   LIG d   1      -8.948  75.133 117.811  0.00  0.00    -0.047 C 
ATOM      6  C   LIG d   1      -7.696  75.957 117.429  0.00  0.00     0.091 C 
ENDROOT
BRANCH   1   7
ATOM      7  O   LIG d   1      -5.445  75.740 116.487  0.00  0.00    -0.368 OA
BRANCH   7   8
ATOM      8  C   LIG d   1      -4.474  74.898 115.818  0.00  0.00     0.119 C 
BRANCH   8   9
ATOM      9  C   LIG d   1      -3.093  75.210 116.426  0.00  0.00     0.028 C 
ATOM     10  C   LIG d   1      -1.963  74.412 115.755  0.00  0.00     0.006 C 
ENDBRANCH   8   9
BRANCH   8  11
ATOM     11  C   LIG d   1      -4.354  75.257 114.334  0.00  0.00     0.028 C 
ATOM     12  C   LIG d   1      -5.715  75.536 113.676  0.00  0.00     0.006 C 
ENDBRANCH   8  11
ENDBRANCH   7   8
ENDBRANCH   1   7
BRANCH   6  13
ATOM     13  N   LIG d   1      -7.365  76.988 118.447  0.00  0.00    -0.311 N 
ATOM     14  C   LIG d   1      -6.893  78.195 118.140  0.00  0.00     0.210 C 
ATOM     15  C   LIG d   1      -6.598  79.099 119.342  0.00  0.00     0.109 C 
ATOM     16  O   LIG d   1      -6.722  78.615 116.986  0.00  0.00    -0.276 OA
ATOM     17  H   LIG d   1      -7.503  76.742 119.407  0.00  0.00     0.149 HD
ENDBRANCH   6  13
BRANCH   5  18
ATOM     18  N   LIG d   1     -10.178  75.945 117.871  0.00  0.00     0.381 N 
ATOM     19  H   LIG d   1     -10.663  75.891 116.997  0.00  0.00    -0.090 HD
ATOM     20  H   LIG d   1      -9.926  76.905 118.032  0.00  0.00    -0.090 HD
ATOM     21  H   LIG d   1     -10.766  75.620 118.606  0.00  0.00    -0.090 HD
ENDBRANCH   5  18
BRANCH   3  22
ATOM     22  C   LIG d   1      -8.183  71.956 116.127  0.00  0.00     0.382 C 
ATOM     23  O   LIG d   1      -9.203  71.319 116.488  0.00  0.00    -0.241 OA
ATOM     24  O   LIG d   1      -7.305  71.379 115.458  0.00  0.00    -0.241 OA
ENDBRANCH   3  22
TORSDOF 7
ENDMDL
MODEL 9
REMARK VINA RESULT:      -5.4     11.737     13.961
REMARK  7 active torsions:
REMARK  status: ('A' for Active; 'I' for Inactive)
REMARK    1  A    between atoms: C_2  and  C_3 
REMARK    2  A    between atoms: C_3  and  O_6 
REMARK    3  A    between atoms: C_3  and  C_4 
REMARK    4  A    between atoms: C_7  and  O_6 
REMARK    5  A    between atoms: C_9  and  C_10 
REMARK    6  A    between atoms: N_15  and  C_14 
REMARK    7  A    between atoms: N_20  and  C_19 
REMARK       I    between atoms: C_22  and  N_20 
ROOT
ATOM      1  C   LIG d   1       2.527  85.220 113.242  0.00  0.00     0.161 C 
ATOM      2  C   LIG d   1       2.578  86.531 112.739  0.00  0.00     0.016 C 
ATOM      3  C   LIG d   1       2.995  87.643 113.506  0.00  0.00     0.038 C 
ATOM      4  C   LIG d   1       3.538  87.495 114.791  0.00  0.00     0.028 C 
ATOM      5  C   LIG d   1       3.037  86.255 115.522  0.00  0.00    -0.047 C 
ATOM      6  C   LIG d   1       3.221  85.023 114.606  0.00  0.00     0.091 C 
ENDROOT
BRANCH   1   7
ATOM      7  O   LIG d   1       3.066  84.303 112.269  0.00  0.00    -0.368 OA
BRANCH   7   8
ATOM      8  C   LIG d   1       2.909  84.682 110.880  0.00  0.00     0.119 C 
BRANCH   8   9
ATOM      9  C   LIG d   1       1.549  84.138 110.402  0.00  0.00     0.028 C 
ATOM     10  C   LIG d   1       0.793  85.143 109.516  0.00  0.00     0.006 C 
ENDBRANCH   8   9
BRANCH   8  11
ATOM     11  C   LIG d   1       3.954  83.998 109.993  0.00  0.00     0.028 C 
ATOM     12  C   LIG d   1       3.779  82.472 109.937  0.00  0.00     0.006 C 
ENDBRANCH   8  11
ENDBRANCH   7   8
ENDBRANCH   1   7
BRANCH   6  13
ATOM     13  N   LIG d   1       2.678  83.779 115.212  0.00  0.00    -0.311 N 
ATOM     14  C   LIG d   1       3.418  82.923 115.914  0.00  0.00     0.210 C 
ATOM     15  C   LIG d   1       2.665  81.694 116.433  0.00  0.00     0.109 C 
ATOM     16  O   LIG d   1       4.618  83.081 116.185  0.00  0.00    -0.276 OA
ATOM     17  H   LIG d   1       1.706  83.589 115.068  0.00  0.00     0.149 HD
ENDBRANCH   6  13
BRANCH   5  18
ATOM     18  N   LIG d   1       3.785  86.150 116.789  0.00  0.00     0.381 N 
ATOM     19  H   LIG d   1       4.767  86.114 116.600  0.00  0.00    -0.090 HD
ATOM     20  H   LIG d   1       3.521  85.299 117.253  0.00  0.00    -0.090 HD
ATOM     21  H   LIG d   1       3.581  86.932 117.371  0.00  0.00    -0.090 HD
ENDBRANCH   5  18
BRANCH   3  22
ATOM     22  C   LIG d   1       2.834  88.924 113.002  0.00  0.00     0.382 C 
ATOM     23  O   LIG d   1       1.773  89.236 112.410  0.00  0.00    -0.241 OA
ATOM     24  O   LIG d   1       3.754  89.759 113.093  0.00  0.00    -0.241 OA
ENDBRANCH   3  22
TORSDOF 7
ENDMDL
