MODEL 1
REMARK VINA RESULT:      -5.5      0.000      0.000
REMARK  7 active torsions:
REMARK  status: ('A' for Active; 'I' for Inactive)
REMARK    1  A    between atoms: C_2  and  C_3 
REMARK    2  A    between atoms: C_3  and  O_6 
REMARK    3  A    between atoms: C_3  and  C_4 
REMARK    4  A    between atoms: C_7  and  O_6 
REMARK    5  A    between atoms: C_9  and  C_10 
REMARK    6  A    between atoms: N_15  and  C_14 
REMARK    7  A    between atoms: N_20  and  C_19 
REMARK       I    between atoms: C_22  and  N_20 
ROOT
ATOM      1  C   LIG d   1      -4.908  91.971 118.132  0.00  0.00     0.161 C 
ATOM      2  C   LIG d   1      -5.145  91.123 117.036  0.00  0.00     0.016 C 
ATOM      3  C   LIG d   1      -6.369  91.088 116.331  0.00  0.00     0.038 C 
ATOM      4  C   LIG d   1      -7.395  92.012 116.579  0.00  0.00     0.028 C 
ATOM      5  C   LIG d   1      -7.393  92.549 118.006  0.00  0.00    -0.047 C 
ATOM      6  C   LIG d   1      -5.976  93.063 118.347  0.00  0.00     0.091 C 
ENDROOT
BRANCH   1   7
ATOM      7  O   LIG d   1      -3.600  92.565 118.016  0.00  0.00    -0.368 OA
BRANCH   7   8
ATOM      8  C   LIG d   1      -2.613  92.127 118.983  0.00  0.00     0.119 C 
BRANCH   8   9
ATOM      9  C   LIG d   1      -1.674  93.318 119.257  0.00  0.00     0.028 C 
ATOM     10  C   LIG d   1      -2.413  94.666 119.230  0.00  0.00     0.006 C 
ENDBRANCH   8   9
BRANCH   8  11
ATOM     11  C   LIG d   1      -1.716  91.028 118.405  0.00  0.00     0.028 C 
ATOM     12  C   LIG d   1      -2.148  89.618 118.838  0.00  0.00     0.006 C 
ENDBRANCH   8  11
ENDBRANCH   7   8
ENDBRANCH   1   7
BRANCH   6  13
ATOM     13  N   LIG d   1      -5.865  93.529 119.754  0.00  0.00    -0.311 N 
ATOM     14  C   LIG d   1      -6.059  94.794 120.125  0.00  0.00     0.210 C 
ATOM     15  C   LIG d   1      -5.876  95.064 121.621  0.00  0.00     0.109 C 
ATOM     16  O   LIG d   1      -6.397  95.711 119.361  0.00  0.00    -0.276 OA
ATOM     17  H   LIG d   1      -5.625  92.845 120.444  0.00  0.00     0.149 HD
ENDBRANCH   6  13
BRANCH   5  18
ATOM     18  N   LIG d   1      -8.425  93.601 118.088  0.00  0.00     0.381 N 
ATOM     19  H   LIG d   1      -8.842  93.736 117.189  0.00  0.00    -0.090 HD
ATOM     20  H   LIG d   1      -7.989  94.463 118.366  0.00  0.00    -0.090 HD
ATOM     21  H   LIG d   1      -9.122  93.344 118.751  0.00  0.00    -0.090 HD
ENDBRANCH   5  18
BRANCH   3  22
ATOM     22  C   LIG d   1      -6.592  90.094 115.390  0.00  0.00     0.382 C 
ATOM     23  O   LIG d   1      -7.733  89.947 114.891  0.00  0.00    -0.241 OA
ATOM     24  O   LIG d   1      -5.676  89.314 115.067  0.00  0.00    -0.241 OA
ENDBRANCH   3  22
TORSDOF 7
ENDMDL
MODEL 2
REMARK VINA RESULT:      -5.5      2.042      4.432
REMARK  7 active torsions:
REMARK  status: ('A' for Active; 'I' for Inactive)
REMARK    1  A    between atoms: C_2  and  C_3 
REMARK    2  A    between atoms: C_3  and  O_6 
REMARK    3  A    between atoms: C_3  and  C_4 
REMARK    4  A    between atoms: C_7  and  O_6 
REMARK    5  A    between atoms: C_9  and  C_10 
REMARK    6  A    between atoms: N_15  and  C_14 
REMARK    7  A    between atoms: N_20  and  C_19 
REMARK       I    between atoms: C_22  and  N_20 
ROOT
ATOM      1  C   LIG d   1      -6.213  93.237 118.719  0.00  0.00     0.161 C 
ATOM      2  C   LIG d   1      -7.106  92.501 117.924  0.00  0.00     0.016 C 
ATOM      3  C   LIG d   1      -6.707  91.427 117.094  0.00  0.00     0.038 C 
ATOM      4  C   LIG d   1      -5.401  90.917 117.120  0.00  0.00     0.028 C 
ATOM      5  C   LIG d   1      -4.355  91.950 117.527  0.00  0.00    -0.047 C 
ATOM      6  C   LIG d   1      -4.802  92.624 118.844  0.00  0.00     0.091 C 
ENDROOT
BRANCH   1   7
ATOM      7  O   LIG d   1      -6.784  93.452 120.025  0.00  0.00    -0.368 OA
BRANCH   7   8
ATOM      8  C   LIG d   1      -7.207  94.805 120.321  0.00  0.00     0.119 C 
BRANCH   8   9
ATOM      9  C   LIG d   1      -8.747  94.827 120.284  0.00  0.00     0.028 C 
ATOM     10  C   LIG d   1      -9.295  95.409 118.970  0.00  0.00     0.006 C 
ENDBRANCH   8   9
BRANCH   8  11
ATOM     11  C   LIG d   1      -6.762  95.780 119.227  0.00  0.00     0.028 C 
ATOM     12  C   LIG d   1      -5.734  96.808 119.726  0.00  0.00     0.006 C 
ENDBRANCH   8  11
ENDBRANCH   7   8
ENDBRANCH   1   7
BRANCH   6  13
ATOM     13  N   LIG d   1      -3.877  93.707 119.269  0.00  0.00    -0.311 N 
ATOM     14  C   LIG d   1      -2.874  93.520 120.125  0.00  0.00     0.210 C 
ATOM     15  C   LIG d   1      -2.053  94.774 120.443  0.00  0.00     0.109 C 
ATOM     16  O   LIG d   1      -2.565  92.428 120.625  0.00  0.00    -0.276 OA
ATOM     17  H   LIG d   1      -4.036  94.619 118.887  0.00  0.00     0.149 HD
ENDBRANCH   6  13
BRANCH   5  18
ATOM     18  N   LIG d   1      -3.061  91.251 117.646  0.00  0.00     0.381 N 
ATOM     19  H   LIG d   1      -2.901  90.995 118.600  0.00  0.00    -0.090 HD
ATOM     20  H   LIG d   1      -2.327  91.874 117.358  0.00  0.00    -0.090 HD
ATOM     21  H   LIG d   1      -3.060  90.437 117.071  0.00  0.00    -0.090 HD
ENDBRANCH   5  18
BRANCH   3  22
ATOM     22  C   LIG d   1      -7.611  90.879 116.198  0.00  0.00     0.382 C 
ATOM     23  O   LIG d   1      -8.510  91.596 115.696  0.00  0.00    -0.241 OA
ATOM     24  O   LIG d   1      -7.567  89.666 115.918  0.00  0.00    -0.241 OA
ENDBRANCH   3  22
TORSDOF 7
ENDMDL
MODEL 3
REMARK VINA RESULT:      -5.1     33.233     35.163
REMARK  7 active torsions:
REMARK  status: ('A' for Active; 'I' for Inactive)
REMARK    1  A    between atoms: C_2  and  C_3 
REMARK    2  A    between atoms: C_3  and  O_6 
REMARK    3  A    between atoms: C_3  and  C_4 
REMARK    4  A    between atoms: C_7  and  O_6 
REMARK    5  A    between atoms: C_9  and  C_10 
REMARK    6  A    between atoms: N_15  and  C_14 
REMARK    7  A    between atoms: N_20  and  C_19 
REMARK       I    between atoms: C_22  and  N_20 
ROOT
ATOM      1  C   LIG d   1       3.505  58.446 117.754  0.00  0.00     0.161 C 
ATOM      2  C   LIG d   1       2.536  59.341 117.271  0.00  0.00     0.016 C 
ATOM      3  C   LIG d   1       1.189  58.979 117.039  0.00  0.00     0.038 C 
ATOM      4  C   LIG d   1       0.681  57.728 117.421  0.00  0.00     0.028 C 
ATOM      5  C   LIG d   1       1.737  56.628 117.444  0.00  0.00    -0.047 C 
ATOM      6  C   LIG d   1       2.944  57.109 118.280  0.00  0.00     0.091 C 
ENDROOT
BRANCH   1   7
ATOM      7  O   LIG d   1       4.302  59.090 118.768  0.00  0.00    -0.368 OA
BRANCH   7   8
ATOM      8  C   LIG d   1       3.782  60.337 119.290  0.00  0.00     0.119 C 
BRANCH   8   9
ATOM      9  C   LIG d   1       4.948  61.345 119.327  0.00  0.00     0.028 C 
ATOM     10  C   LIG d   1       6.316  60.666 119.148  0.00  0.00     0.006 C 
ENDBRANCH   8   9
BRANCH   8  11
ATOM     11  C   LIG d   1       3.331  60.187 120.746  0.00  0.00     0.028 C 
ATOM     12  C   LIG d   1       1.830  59.882 120.876  0.00  0.00     0.006 C 
ENDBRANCH   8  11
ENDBRANCH   7   8
ENDBRANCH   1   7
BRANCH   6  13
ATOM     13  N   LIG d   1       4.059  56.125 118.285  0.00  0.00    -0.311 N 
ATOM     14  C   LIG d   1       4.656  55.689 117.177  0.00  0.00     0.210 C 
ATOM     15  C   LIG d   1       5.769  54.661 117.404  0.00  0.00     0.109 C 
ATOM     16  O   LIG d   1       4.391  56.080 116.030  0.00  0.00    -0.276 OA
ATOM     17  H   LIG d   1       4.358  55.779 119.175  0.00  0.00     0.149 HD
ENDBRANCH   6  13
BRANCH   5  18
ATOM     18  N   LIG d   1       1.102  55.413 117.990  0.00  0.00     0.381 N 
ATOM     19  H   LIG d   1       0.592  55.641 118.820  0.00  0.00    -0.090 HD
ATOM     20  H   LIG d   1       1.820  54.752 118.232  0.00  0.00    -0.090 HD
ATOM     21  H   LIG d   1       0.489  55.015 117.313  0.00  0.00    -0.090 HD
ENDBRANCH   5  18
BRANCH   3  22
ATOM     22  C   LIG d   1       0.343  59.860 116.383  0.00  0.00     0.382 C 
ATOM     23  O   LIG d   1      -0.856  59.962 116.739  0.00  0.00    -0.241 OA
ATOM     24  O   LIG d   1       0.752  60.522 115.410  0.00  0.00    -0.241 OA
ENDBRANCH   3  22
TORSDOF 7
ENDMDL
MODEL 4
REMARK VINA RESULT:      -5.0     32.463     34.481
REMARK  7 active torsions:
REMARK  status: ('A' for Active; 'I' for Inactive)
REMARK    1  A    between atoms: C_2  and  C_3 
REMARK    2  A    between atoms: C_3  and  O_6 
REMARK    3  A    between atoms: C_3  and  C_4 
REMARK    4  A    between atoms: C_7  and  O_6 
REMARK    5  A    between atoms: C_9  and  C_10 
REMARK    6  A    between atoms: N_15  and  C_14 
REMARK    7  A    between atoms: N_20  and  C_19 
REMARK       I    between atoms: C_22  and  N_20 
ROOT
ATOM      1  C   LIG d   1       1.935  59.217 119.074  0.00  0.00     0.161 C 
ATOM      2  C   LIG d   1       0.738  58.943 118.392  0.00  0.00     0.016 C 
ATOM      3  C   LIG d   1       0.419  59.491 117.128  0.00  0.00     0.038 C 
ATOM      4  C   LIG d   1       1.348  60.238 116.388  0.00  0.00     0.028 C 
ATOM      5  C   LIG d   1       2.376  60.957 117.256  0.00  0.00    -0.047 C 
ATOM      6  C   LIG d   1       3.008  59.940 118.233  0.00  0.00     0.091 C 
ENDROOT
BRANCH   1   7
ATOM      7  O   LIG d   1       2.471  58.000 119.630  0.00  0.00    -0.368 OA
BRANCH   7   8
ATOM      8  C   LIG d   1       2.130  56.777 118.933  0.00  0.00     0.119 C 
BRANCH   8   9
ATOM      9  C   LIG d   1       1.953  55.673 119.993  0.00  0.00     0.028 C 
ATOM     10  C   LIG d   1       1.708  56.245 121.400  0.00  0.00     0.006 C 
ENDBRANCH   8   9
BRANCH   8  11
ATOM     11  C   LIG d   1       3.283  56.303 118.043  0.00  0.00     0.028 C 
ATOM     12  C   LIG d   1       2.976  56.447 116.544  0.00  0.00     0.006 C 
ENDBRANCH   8  11
ENDBRANCH   7   8
ENDBRANCH   1   7
BRANCH   6  13
ATOM     13  N   LIG d   1       3.964  60.578 119.175  0.00  0.00    -0.311 N 
ATOM     14  C   LIG d   1       5.111  60.014 119.550  0.00  0.00     0.210 C 
ATOM     15  C   LIG d   1       5.939  60.833 120.545  0.00  0.00     0.109 C 
ATOM     16  O   LIG d   1       5.536  58.928 119.129  0.00  0.00    -0.276 OA
ATOM     17  H   LIG d   1       3.712  61.475 119.542  0.00  0.00     0.149 HD
ENDBRANCH   6  13
BRANCH   5  18
ATOM     18  N   LIG d   1       3.362  61.582 116.353  0.00  0.00     0.381 N 
ATOM     19  H   LIG d   1       3.427  62.561 116.549  0.00  0.00    -0.090 HD
ATOM     20  H   LIG d   1       3.051  61.469 115.404  0.00  0.00    -0.090 HD
ATOM     21  H   LIG d   1       4.253  61.152 116.472  0.00  0.00    -0.090 HD
ENDBRANCH   5  18
BRANCH   3  22
ATOM     22  C   LIG d   1      -0.857  59.328 116.610  0.00  0.00     0.382 C 
ATOM     23  O   LIG d   1      -1.540  58.327 116.932  0.00  0.00    -0.241 OA
ATOM     24  O   LIG d   1      -1.315  60.147 115.791  0.00  0.00    -0.241 OA
ENDBRANCH   3  22
TORSDOF 7
ENDMDL
MODEL 5
REMARK VINA RESULT:      -5.0     14.087     16.606
REMARK  7 active torsions:
REMARK  status: ('A' for Active; 'I' for Inactive)
REMARK    1  A    between atoms: C_2  and  C_3 
REMARK    2  A    between atoms: C_3  and  O_6 
REMARK    3  A    between atoms: C_3  and  C_4 
REMARK    4  A    between atoms: C_7  and  O_6 
REMARK    5  A    between atoms: C_9  and  C_10 
REMARK    6  A    between atoms: N_15  and  C_14 
REMARK    7  A    between atoms: N_20  and  C_19 
REMARK       I    between atoms: C_22  and  N_20 
ROOT
ATOM      1  C   LIG d   1      -4.276  76.295 116.132  0.00  0.00     0.161 C 
ATOM      2  C   LIG d   1      -3.220  75.502 115.654  0.00  0.00     0.016 C 
ATOM      3  C   LIG d   1      -1.860  75.879 115.745  0.00  0.00     0.038 C 
ATOM      4  C   LIG d   1      -1.452  77.014 116.461  0.00  0.00     0.028 C 
ATOM      5  C   LIG d   1      -2.515  78.105 116.524  0.00  0.00    -0.047 C 
ATOM      6  C   LIG d   1      -3.843  77.484 117.015  0.00  0.00     0.091 C 
ENDROOT
BRANCH   1   7
ATOM      7  O   LIG d   1      -5.227  75.470 116.833  0.00  0.00    -0.368 OA
BRANCH   7   8
ATOM      8  C   LIG d   1      -6.262  74.860 116.023  0.00  0.00     0.119 C 
BRANCH   8   9
ATOM      9  C   LIG d   1      -7.256  75.970 115.628  0.00  0.00     0.028 C 
ATOM     10  C   LIG d   1      -8.205  76.343 116.779  0.00  0.00     0.006 C 
ENDBRANCH   8   9
BRANCH   8  11
ATOM     11  C   LIG d   1      -7.081  73.851 116.832  0.00  0.00     0.028 C 
ATOM     12  C   LIG d   1      -6.878  72.403 116.359  0.00  0.00     0.006 C 
ENDBRANCH   8  11
ENDBRANCH   7   8
ENDBRANCH   1   7
BRANCH   6  13
ATOM     13  N   LIG d   1      -4.958  78.466 117.025  0.00  0.00    -0.311 N 
ATOM     14  C   LIG d   1      -5.317  79.157 118.106  0.00  0.00     0.210 C 
ATOM     15  C   LIG d   1      -6.506  80.101 117.905  0.00  0.00     0.109 C 
ATOM     16  O   LIG d   1      -4.743  79.100 119.204  0.00  0.00    -0.276 OA
ATOM     17  H   LIG d   1      -5.459  78.597 116.168  0.00  0.00     0.149 HD
ENDBRANCH   6  13
BRANCH   5  18
ATOM     18  N   LIG d   1      -2.011  79.168 117.413  0.00  0.00     0.381 N 
ATOM     19  H   LIG d   1      -2.303  80.062 117.072  0.00  0.00    -0.090 HD
ATOM     20  H   LIG d   1      -1.006  79.144 117.411  0.00  0.00    -0.090 HD
ATOM     21  H   LIG d   1      -2.352  79.030 118.338  0.00  0.00    -0.090 HD
ENDBRANCH   5  18
BRANCH   3  22
ATOM     22  C   LIG d   1      -0.895  75.137 115.080  0.00  0.00     0.382 C 
ATOM     23  O   LIG d   1       0.253  75.612 114.910  0.00  0.00    -0.241 OA
ATOM     24  O   LIG d   1      -1.172  74.017 114.611  0.00  0.00    -0.241 OA
ENDBRANCH   3  22
TORSDOF 7
ENDMDL
MODEL 6
REMARK VINA RESULT:      -4.9      2.054      4.523
REMARK  7 active torsions:
REMARK  status: ('A' for Active; 'I' for Inactive)
REMARK    1  A    between atoms: C_2  and  C_3 
REMARK    2  A    between atoms: C_3  and  O_6 
REMARK    3  A    between atoms: C_3  and  C_4 
REMARK    4  A    between atoms: C_7  and  O_6 
REMARK    5  A    between atoms: C_9  and  C_10 
REMARK    6  A    between atoms: N_15  and  C_14 
REMARK    7  A    between atoms: N_20  and  C_19 
REMARK       I    between atoms: C_22  and  N_20 
ROOT
ATOM      1  C   LIG d   1      -6.280  93.406 118.707  0.00  0.00     0.161 C 
ATOM      2  C   LIG d   1      -7.085  92.623 117.863  0.00  0.00     0.016 C 
ATOM      3  C   LIG d   1      -6.588  91.548 117.092  0.00  0.00     0.038 C 
ATOM      4  C   LIG d   1      -5.272  91.083 117.229  0.00  0.00     0.028 C 
ATOM      5  C   LIG d   1      -4.295  92.159 117.692  0.00  0.00    -0.047 C 
ATOM      6  C   LIG d   1      -4.865  92.844 118.955  0.00  0.00     0.091 C 
ENDROOT
BRANCH   1   7
ATOM      7  O   LIG d   1      -6.957  93.628 119.960  0.00  0.00    -0.368 OA
BRANCH   7   8
ATOM      8  C   LIG d   1      -7.364  94.992 120.233  0.00  0.00     0.119 C 
BRANCH   8   9
ATOM      9  C   LIG d   1      -6.865  95.350 121.646  0.00  0.00     0.028 C 
ATOM     10  C   LIG d   1      -7.703  96.461 122.300  0.00  0.00     0.006 C 
ENDBRANCH   8   9
BRANCH   8  11
ATOM     11  C   LIG d   1      -8.889  95.116 120.297  0.00  0.00     0.028 C 
ATOM     12  C   LIG d   1      -9.519  95.437 118.933  0.00  0.00     0.006 C 
ENDBRANCH   8  11
ENDBRANCH   7   8
ENDBRANCH   1   7
BRANCH   6  13
ATOM     13  N   LIG d   1      -4.011  93.967 119.424  0.00  0.00    -0.311 N 
ATOM     14  C   LIG d   1      -3.097  93.840 120.385  0.00  0.00     0.210 C 
ATOM     15  C   LIG d   1      -2.340  95.127 120.731  0.00  0.00     0.109 C 
ATOM     16  O   LIG d   1      -2.818  92.778 120.961  0.00  0.00    -0.276 OA
ATOM     17  H   LIG d   1      -4.149  94.858 118.989  0.00  0.00     0.149 HD
ENDBRANCH   6  13
BRANCH   5  18
ATOM     18  N   LIG d   1      -2.992  91.507 117.926  0.00  0.00     0.381 N 
ATOM     19  H   LIG d   1      -2.254  92.171 117.802  0.00  0.00    -0.090 HD
ATOM     20  H   LIG d   1      -2.871  90.772 117.252  0.00  0.00    -0.090 HD
ATOM     21  H   LIG d   1      -2.960  91.131 118.848  0.00  0.00    -0.090 HD
ENDBRANCH   5  18
BRANCH   3  22
ATOM     22  C   LIG d   1      -7.402  90.950 116.142  0.00  0.00     0.382 C 
ATOM     23  O   LIG d   1      -8.135  91.657 115.410  0.00  0.00    -0.241 OA
ATOM     24  O   LIG d   1      -7.445  89.709 116.037  0.00  0.00    -0.241 OA
ENDBRANCH   3  22
TORSDOF 7
ENDMDL
MODEL 7
REMARK VINA RESULT:      -4.9     12.870     15.278
REMARK  7 active torsions:
REMARK  status: ('A' for Active; 'I' for Inactive)
REMARK    1  A    between atoms: C_2  and  C_3 
REMARK    2  A    between atoms: C_3  and  O_6 
REMARK    3  A    between atoms: C_3  and  C_4 
REMARK    4  A    between atoms: C_7  and  O_6 
REMARK    5  A    between atoms: C_9  and  C_10 
REMARK    6  A    between atoms: N_15  and  C_14 
REMARK    7  A    between atoms: N_20  and  C_19 
REMARK       I    between atoms: C_22  and  N_20 
ROOT
ATOM      1  C   LIG d   1      -6.879  77.682 117.564  0.00  0.00     0.161 C 
ATOM      2  C   LIG d   1      -8.195  78.175 117.587  0.00  0.00     0.016 C 
ATOM      3  C   LIG d   1      -8.582  79.327 118.308  0.00  0.00     0.038 C 
ATOM      4  C   LIG d   1      -7.643  80.158 118.938  0.00  0.00     0.028 C 
ATOM      5  C   LIG d   1      -6.375  79.425 119.363  0.00  0.00    -0.047 C 
ATOM      6  C   LIG d   1      -5.821  78.638 118.154  0.00  0.00     0.091 C 
ENDROOT
BRANCH   1   7
ATOM      7  O   LIG d   1      -6.521  77.307 116.219  0.00  0.00    -0.368 OA
BRANCH   7   8
ATOM      8  C   LIG d   1      -6.794  75.934 115.847  0.00  0.00     0.119 C 
BRANCH   8   9
ATOM      9  C   LIG d   1      -6.637  75.071 117.114  0.00  0.00     0.028 C 
ATOM     10  C   LIG d   1      -6.737  73.565 116.814  0.00  0.00     0.006 C 
ENDBRANCH   8   9
BRANCH   8  11
ATOM     11  C   LIG d   1      -5.747  75.405 114.863  0.00  0.00     0.028 C 
ATOM     12  C   LIG d   1      -4.608  76.406 114.609  0.00  0.00     0.006 C 
ENDBRANCH   8  11
ENDBRANCH   7   8
ENDBRANCH   1   7
BRANCH   6  13
ATOM     13  N   LIG d   1      -4.628  77.825 118.506  0.00  0.00    -0.311 N 
ATOM     14  C   LIG d   1      -3.459  77.927 117.875  0.00  0.00     0.210 C 
ATOM     15  C   LIG d   1      -2.365  76.983 118.383  0.00  0.00     0.109 C 
ATOM     16  O   LIG d   1      -3.215  78.733 116.965  0.00  0.00    -0.276 OA
ATOM     17  H   LIG d   1      -4.728  77.167 119.254  0.00  0.00     0.149 HD
ENDBRANCH   6  13
BRANCH   5  18
ATOM     18  N   LIG d   1      -5.430  80.433 119.879  0.00  0.00     0.381 N 
ATOM     19  H   LIG d   1      -5.804  80.857 120.705  0.00  0.00    -0.090 HD
ATOM     20  H   LIG d   1      -5.307  81.149 119.185  0.00  0.00    -0.090 HD
ATOM     21  H   LIG d   1      -4.554  80.006 120.085  0.00  0.00    -0.090 HD
ENDBRANCH   5  18
BRANCH   3  22
ATOM     22  C   LIG d   1      -9.927  79.637 118.438  0.00  0.00     0.382 C 
ATOM     23  O   LIG d   1     -10.765  78.724 118.637  0.00  0.00    -0.241 OA
ATOM     24  O   LIG d   1     -10.320  80.813 118.315  0.00  0.00    -0.241 OA
ENDBRANCH   3  22
TORSDOF 7
ENDMDL
MODEL 8
REMARK VINA RESULT:      -4.8     32.263     34.786
REMARK  7 active torsions:
REMARK  status: ('A' for Active; 'I' for Inactive)
REMARK    1  A    between atoms: C_2  and  C_3 
REMARK    2  A    between atoms: C_3  and  O_6 
REMARK    3  A    between atoms: C_3  and  C_4 
REMARK    4  A    between atoms: C_7  and  O_6 
REMARK    5  A    between atoms: C_9  and  C_10 
REMARK    6  A    between atoms: N_15  and  C_14 
REMARK    7  A    between atoms: N_20  and  C_19 
REMARK       I    between atoms: C_22  and  N_20 
ROOT
ATOM      1  C   LIG d   1       1.886  58.616 119.694  0.00  0.00     0.161 C 
ATOM      2  C   LIG d   1       1.718  59.613 118.719  0.00  0.00     0.016 C 
ATOM      3  C   LIG d   1       1.562  59.335 117.341  0.00  0.00     0.038 C 
ATOM      4  C   LIG d   1       1.411  58.026 116.861  0.00  0.00     0.028 C 
ATOM      5  C   LIG d   1       2.078  56.976 117.744  0.00  0.00    -0.047 C 
ATOM      6  C   LIG d   1       1.613  57.179 119.204  0.00  0.00     0.091 C 
ENDROOT
BRANCH   1   7
ATOM      7  O   LIG d   1       1.072  58.916 120.845  0.00  0.00    -0.368 OA
BRANCH   7   8
ATOM      8  C   LIG d   1       0.841  60.321 121.113  0.00  0.00     0.119 C 
BRANCH   8   9
ATOM      9  C   LIG d   1       1.579  60.671 122.420  0.00  0.00     0.028 C 
ATOM     10  C   LIG d   1       0.906  61.823 123.184  0.00  0.00     0.006 C 
ENDBRANCH   8   9
BRANCH   8  11
ATOM     11  C   LIG d   1      -0.638  60.598 121.396  0.00  0.00     0.028 C 
ATOM     12  C   LIG d   1      -1.354  61.276 120.217  0.00  0.00     0.006 C 
ENDBRANCH   8  11
ENDBRANCH   7   8
ENDBRANCH   1   7
BRANCH   6  13
ATOM     13  N   LIG d   1       2.283  56.246 120.147  0.00  0.00    -0.311 N 
ATOM     14  C   LIG d   1       1.762  55.078 120.518  0.00  0.00     0.210 C 
ATOM     15  C   LIG d   1       2.608  54.279 121.514  0.00  0.00     0.109 C 
ATOM     16  O   LIG d   1       0.694  54.613 120.092  0.00  0.00    -0.276 OA
ATOM     17  H   LIG d   1       3.169  56.531 120.517  0.00  0.00     0.149 HD
ENDBRANCH   6  13
BRANCH   5  18
ATOM     18  N   LIG d   1       1.726  55.650 117.203  0.00  0.00     0.381 N 
ATOM     19  H   LIG d   1       1.756  55.673 116.203  0.00  0.00    -0.090 HD
ATOM     20  H   LIG d   1       0.788  55.423 117.484  0.00  0.00    -0.090 HD
ATOM     21  H   LIG d   1       2.359  54.962 117.546  0.00  0.00    -0.090 HD
ENDBRANCH   5  18
BRANCH   3  22
ATOM     22  C   LIG d   1       1.596  60.374 116.423  0.00  0.00     0.382 C 
ATOM     23  O   LIG d   1       0.828  60.358 115.430  0.00  0.00    -0.241 OA
ATOM     24  O   LIG d   1       2.415  61.303 116.550  0.00  0.00    -0.241 OA
ENDBRANCH   3  22
TORSDOF 7
ENDMDL
MODEL 9
REMARK VINA RESULT:      -4.8     12.577     14.915
REMARK  7 active torsions:
REMARK  status: ('A' for Active; 'I' for Inactive)
REMARK    1  A    between atoms: C_2  and  C_3 
REMARK    2  A    between atoms: C_3  and  O_6 
REMARK    3  A    between atoms: C_3  and  C_4 
REMARK    4  A    between atoms: C_7  and  O_6 
REMARK    5  A    between atoms: C_9  and  C_10 
REMARK    6  A    between atoms: N_15  and  C_14 
REMARK    7  A    between atoms: N_20  and  C_19 
REMARK       I    between atoms: C_22  and  N_20 
ROOT
ATOM      1  C   LIG d   1      -5.723  78.823 117.305  0.00  0.00     0.161 C 
ATOM      2  C   LIG d   1      -4.524  78.176 117.648  0.00  0.00     0.016 C 
ATOM      3  C   LIG d   1      -4.031  78.100 118.971  0.00  0.00     0.038 C 
ATOM      4  C   LIG d   1      -4.785  78.539 120.069  0.00  0.00     0.028 C 
ATOM      5  C   LIG d   1      -5.770  79.651 119.722  0.00  0.00    -0.047 C 
ATOM      6  C   LIG d   1      -6.614  79.211 118.504  0.00  0.00     0.091 C 
ENDROOT
BRANCH   1   7
ATOM      7  O   LIG d   1      -6.465  78.015 116.370  0.00  0.00    -0.368 OA
BRANCH   7   8
ATOM      8  C   LIG d   1      -6.092  76.617 116.300  0.00  0.00     0.119 C 
BRANCH   8   9
ATOM      9  C   LIG d   1      -6.013  76.233 114.810  0.00  0.00     0.028 C 
ATOM     10  C   LIG d   1      -5.056  75.055 114.557  0.00  0.00     0.006 C 
ENDBRANCH   8   9
BRANCH   8  11
ATOM     11  C   LIG d   1      -7.181  75.718 116.893  0.00  0.00     0.028 C 
ATOM     12  C   LIG d   1      -8.589  76.322 116.759  0.00  0.00     0.006 C 
ENDBRANCH   8  11
ENDBRANCH   7   8
ENDBRANCH   1   7
BRANCH   6  13
ATOM     13  N   LIG d   1      -7.546  80.275 118.046  0.00  0.00    -0.311 N 
ATOM     14  C   LIG d   1      -8.805  80.377 118.467  0.00  0.00     0.210 C 
ATOM     15  C   LIG d   1      -9.600  81.535 117.855  0.00  0.00     0.109 C 
ATOM     16  O   LIG d   1      -9.330  79.639 119.314  0.00  0.00    -0.276 OA
ATOM     17  H   LIG d   1      -7.193  80.935 117.382  0.00  0.00     0.149 HD
ENDBRANCH   6  13
BRANCH   5  18
ATOM     18  N   LIG d   1      -6.584  79.916 120.924  0.00  0.00     0.381 N 
ATOM     19  H   LIG d   1      -6.247  80.736 121.387  0.00  0.00    -0.090 HD
ATOM     20  H   LIG d   1      -6.495  79.139 121.554  0.00  0.00    -0.090 HD
ATOM     21  H   LIG d   1      -7.539  80.038 120.668  0.00  0.00    -0.090 HD
ENDBRANCH   5  18
BRANCH   3  22
ATOM     22  C   LIG d   1      -2.753  77.616 119.201  0.00  0.00     0.382 C 
ATOM     23  O   LIG d   1      -2.268  76.740 118.444  0.00  0.00    -0.241 OA
ATOM     24  O   LIG d   1      -2.094  78.011 120.182  0.00  0.00    -0.241 OA
ENDBRANCH   3  22
TORSDOF 7
ENDMDL
