MODEL 1
REMARK VINA RESULT:      -6.0      0.000      0.000
REMARK  7 active torsions:
REMARK  status: ('A' for Active; 'I' for Inactive)
REMARK    1  A    between atoms: C_2  and  C_3 
REMARK    2  A    between atoms: C_3  and  O_6 
REMARK    3  A    between atoms: C_3  and  C_4 
REMARK    4  A    between atoms: C_7  and  O_6 
REMARK    5  A    between atoms: C_9  and  C_10 
REMARK    6  A    between atoms: N_15  and  C_14 
REMARK    7  A    between atoms: N_20  and  C_19 
REMARK       I    between atoms: C_22  and  N_20 
ROOT
ATOM      1  C   LIG d   1       0.945  82.327 112.283  0.00  0.00     0.161 C 
ATOM      2  C   LIG d   1       2.053  82.811 111.568  0.00  0.00     0.016 C 
ATOM      3  C   LIG d   1       2.473  82.277 110.328  0.00  0.00     0.038 C 
ATOM      4  C   LIG d   1       1.717  81.315 109.641  0.00  0.00     0.028 C 
ATOM      5  C   LIG d   1       0.870  80.441 110.561  0.00  0.00    -0.047 C 
ATOM      6  C   LIG d   1       0.044  81.352 111.497  0.00  0.00     0.091 C 
ENDROOT
BRANCH   1   7
ATOM      7  O   LIG d   1       0.169  83.431 112.787  0.00  0.00    -0.368 OA
BRANCH   7   8
ATOM      8  C   LIG d   1       0.545  84.746 112.309  0.00  0.00     0.119 C 
BRANCH   8   9
ATOM      9  C   LIG d   1       0.250  85.752 113.439  0.00  0.00     0.028 C 
ATOM     10  C   LIG d   1       1.445  85.934 114.390  0.00  0.00     0.006 C 
ENDBRANCH   8   9
BRANCH   8  11
ATOM     11  C   LIG d   1      -0.336  85.185 111.135  0.00  0.00     0.028 C 
ATOM     12  C   LIG d   1      -0.612  86.697 111.131  0.00  0.00     0.006 C 
ENDBRANCH   8  11
ENDBRANCH   7   8
ENDBRANCH   1   7
BRANCH   6  13
ATOM     13  N   LIG d   1      -0.750  80.577 112.486  0.00  0.00    -0.311 N 
ATOM     14  C   LIG d   1      -2.068  80.706 112.631  0.00  0.00     0.210 C 
ATOM     15  C   LIG d   1      -2.687  79.827 113.722  0.00  0.00     0.109 C 
ATOM     16  O   LIG d   1      -2.787  81.440 111.937  0.00  0.00    -0.276 OA
ATOM     17  H   LIG d   1      -0.250  79.935 113.069  0.00  0.00     0.149 HD
ENDBRANCH   6  13
BRANCH   5  18
ATOM     18  N   LIG d   1       0.032  79.578 109.707  0.00  0.00     0.381 N 
ATOM     19  H   LIG d   1      -0.371  78.846 110.258  0.00  0.00    -0.090 HD
ATOM     20  H   LIG d   1       0.611  79.158 109.001  0.00  0.00    -0.090 HD
ATOM     21  H   LIG d   1      -0.688  80.117 109.279  0.00  0.00    -0.090 HD
ENDBRANCH   5  18
BRANCH   3  22
ATOM     22  C   LIG d   1       3.682  82.678 109.781  0.00  0.00     0.382 C 
ATOM     23  O   LIG d   1       4.469  81.824 109.305  0.00  0.00    -0.241 OA
ATOM     24  O   LIG d   1       4.016  83.878 109.797  0.00  0.00    -0.241 OA
ENDBRANCH   3  22
TORSDOF 7
ENDMDL
MODEL 2
REMARK VINA RESULT:      -5.8      2.973      5.556
REMARK  7 active torsions:
REMARK  status: ('A' for Active; 'I' for Inactive)
REMARK    1  A    between atoms: C_2  and  C_3 
REMARK    2  A    between atoms: C_3  and  O_6 
REMARK    3  A    between atoms: C_3  and  C_4 
REMARK    4  A    between atoms: C_7  and  O_6 
REMARK    5  A    between atoms: C_9  and  C_10 
REMARK    6  A    between atoms: N_15  and  C_14 
REMARK    7  A    between atoms: N_20  and  C_19 
REMARK       I    between atoms: C_22  and  N_20 
ROOT
ATOM      1  C   LIG d   1       0.866  83.375 112.604  0.00  0.00     0.161 C 
ATOM      2  C   LIG d   1       0.282  84.133 111.575  0.00  0.00     0.016 C 
ATOM      3  C   LIG d   1       0.177  85.542 111.611  0.00  0.00     0.038 C 
ATOM      4  C   LIG d   1       0.790  86.306 112.615  0.00  0.00     0.028 C 
ATOM      5  C   LIG d   1       0.954  85.556 113.932  0.00  0.00    -0.047 C 
ATOM      6  C   LIG d   1       1.640  84.198 113.655  0.00  0.00     0.091 C 
ENDROOT
BRANCH   1   7
ATOM      7  O   LIG d   1       1.718  82.359 112.038  0.00  0.00    -0.368 OA
BRANCH   7   8
ATOM      8  C   LIG d   1       2.257  82.638 110.722  0.00  0.00     0.119 C 
BRANCH   8   9
ATOM      9  C   LIG d   1       2.347  81.299 109.965  0.00  0.00     0.028 C 
ATOM     10  C   LIG d   1       3.774  80.994 109.480  0.00  0.00     0.006 C 
ENDBRANCH   8   9
BRANCH   8  11
ATOM     11  C   LIG d   1       3.696  83.154 110.808  0.00  0.00     0.028 C 
ATOM     12  C   LIG d   1       3.806  84.663 110.538  0.00  0.00     0.006 C 
ENDBRANCH   8  11
ENDBRANCH   7   8
ENDBRANCH   1   7
BRANCH   6  13
ATOM     13  N   LIG d   1       1.762  83.364 114.879  0.00  0.00    -0.311 N 
ATOM     14  C   LIG d   1       2.881  83.272 115.594  0.00  0.00     0.210 C 
ATOM     15  C   LIG d   1       2.798  82.341 116.808  0.00  0.00     0.109 C 
ATOM     16  O   LIG d   1       3.926  83.897 115.357  0.00  0.00    -0.276 OA
ATOM     17  H   LIG d   1       0.952  82.847 115.161  0.00  0.00     0.149 HD
ENDBRANCH   6  13
BRANCH   5  18
ATOM     18  N   LIG d   1       1.728  86.419 114.844  0.00  0.00     0.381 N 
ATOM     19  H   LIG d   1       1.834  85.966 115.730  0.00  0.00    -0.090 HD
ATOM     20  H   LIG d   1       1.224  87.276 114.986  0.00  0.00    -0.090 HD
ATOM     21  H   LIG d   1       2.623  86.612 114.452  0.00  0.00    -0.090 HD
ENDBRANCH   5  18
BRANCH   3  22
ATOM     22  C   LIG d   1      -0.581  86.199 110.654  0.00  0.00     0.382 C 
ATOM     23  O   LIG d   1      -0.451  85.906 109.441  0.00  0.00    -0.241 OA
ATOM     24  O   LIG d   1      -1.362  87.112 110.984  0.00  0.00    -0.241 OA
ENDBRANCH   3  22
TORSDOF 7
ENDMDL
MODEL 3
REMARK VINA RESULT:      -5.6      8.430     10.249
REMARK  7 active torsions:
REMARK  status: ('A' for Active; 'I' for Inactive)
REMARK    1  A    between atoms: C_2  and  C_3 
REMARK    2  A    between atoms: C_3  and  O_6 
REMARK    3  A    between atoms: C_3  and  C_4 
REMARK    4  A    between atoms: C_7  and  O_6 
REMARK    5  A    between atoms: C_9  and  C_10 
REMARK    6  A    between atoms: N_15  and  C_14 
REMARK    7  A    between atoms: N_20  and  C_19 
REMARK       I    between atoms: C_22  and  N_20 
ROOT
ATOM      1  C   LIG d   1      -2.141  74.790 115.622  0.00  0.00     0.161 C 
ATOM      2  C   LIG d   1      -2.674  75.672 116.576  0.00  0.00     0.016 C 
ATOM      3  C   LIG d   1      -1.910  76.669 117.227  0.00  0.00     0.038 C 
ATOM      4  C   LIG d   1      -0.588  76.951 116.855  0.00  0.00     0.028 C 
ATOM      5  C   LIG d   1       0.140  75.754 116.252  0.00  0.00    -0.047 C 
ATOM      6  C   LIG d   1      -0.727  75.156 115.122  0.00  0.00     0.091 C 
ENDROOT
BRANCH   1   7
ATOM      7  O   LIG d   1      -3.049  74.666 114.510  0.00  0.00    -0.368 OA
BRANCH   7   8
ATOM      8  C   LIG d   1      -4.460  74.749 114.827  0.00  0.00     0.119 C 
BRANCH   8   9
ATOM      9  C   LIG d   1      -5.047  73.330 114.701  0.00  0.00     0.028 C 
ATOM     10  C   LIG d   1      -5.698  72.845 116.008  0.00  0.00     0.006 C 
ENDBRANCH   8   9
BRANCH   8  11
ATOM     11  C   LIG d   1      -5.215  75.593 113.796  0.00  0.00     0.028 C 
ATOM     12  C   LIG d   1      -6.502  76.215 114.362  0.00  0.00     0.006 C 
ENDBRANCH   8  11
ENDBRANCH   7   8
ENDBRANCH   1   7
BRANCH   6  13
ATOM     13  N   LIG d   1      -0.127  73.929 114.535  0.00  0.00    -0.311 N 
ATOM     14  C   LIG d   1       0.201  73.817 113.249  0.00  0.00     0.210 C 
ATOM     15  C   LIG d   1       0.788  72.460 112.847  0.00  0.00     0.109 C 
ATOM     16  O   LIG d   1       0.091  74.723 112.409  0.00  0.00    -0.276 OA
ATOM     17  H   LIG d   1       0.025  73.156 115.152  0.00  0.00     0.149 HD
ENDBRANCH   6  13
BRANCH   5  18
ATOM     18  N   LIG d   1       1.458  76.223 115.783  0.00  0.00     0.381 N 
ATOM     19  H   LIG d   1       2.156  76.012 116.468  0.00  0.00    -0.090 HD
ATOM     20  H   LIG d   1       1.424  77.221 115.665  0.00  0.00    -0.090 HD
ATOM     21  H   LIG d   1       1.687  75.786 114.918  0.00  0.00    -0.090 HD
ENDBRANCH   5  18
BRANCH   3  22
ATOM     22  C   LIG d   1      -2.458  77.368 118.292  0.00  0.00     0.382 C 
ATOM     23  O   LIG d   1      -3.686  77.627 118.306  0.00  0.00    -0.241 OA
ATOM     24  O   LIG d   1      -1.733  77.782 119.216  0.00  0.00    -0.241 OA
ENDBRANCH   3  22
TORSDOF 7
ENDMDL
MODEL 4
REMARK VINA RESULT:      -5.6      6.659      9.506
REMARK  7 active torsions:
REMARK  status: ('A' for Active; 'I' for Inactive)
REMARK    1  A    between atoms: C_2  and  C_3 
REMARK    2  A    between atoms: C_3  and  O_6 
REMARK    3  A    between atoms: C_3  and  C_4 
REMARK    4  A    between atoms: C_7  and  O_6 
REMARK    5  A    between atoms: C_9  and  C_10 
REMARK    6  A    between atoms: N_15  and  C_14 
REMARK    7  A    between atoms: N_20  and  C_19 
REMARK       I    between atoms: C_22  and  N_20 
ROOT
ATOM      1  C   LIG d   1      -3.050  76.396 115.449  0.00  0.00     0.161 C 
ATOM      2  C   LIG d   1      -3.437  77.039 114.262  0.00  0.00     0.016 C 
ATOM      3  C   LIG d   1      -2.580  77.198 113.148  0.00  0.00     0.038 C 
ATOM      4  C   LIG d   1      -1.318  76.587 113.091  0.00  0.00     0.028 C 
ATOM      5  C   LIG d   1      -0.693  76.358 114.463  0.00  0.00    -0.047 C 
ATOM      6  C   LIG d   1      -1.715  75.627 115.364  0.00  0.00     0.091 C 
ENDROOT
BRANCH   1   7
ATOM      7  O   LIG d   1      -4.105  75.521 115.897  0.00  0.00    -0.368 OA
BRANCH   7   8
ATOM      8  C   LIG d   1      -5.010  75.039 114.874  0.00  0.00     0.119 C 
BRANCH   8   9
ATOM      9  C   LIG d   1      -6.443  75.386 115.322  0.00  0.00     0.028 C 
ATOM     10  C   LIG d   1      -7.131  76.378 114.369  0.00  0.00     0.006 C 
ENDBRANCH   8   9
BRANCH   8  11
ATOM     11  C   LIG d   1      -4.975  73.511 114.775  0.00  0.00     0.028 C 
ATOM     12  C   LIG d   1      -5.662  72.821 115.965  0.00  0.00     0.006 C 
ENDBRANCH   8  11
ENDBRANCH   7   8
ENDBRANCH   1   7
BRANCH   6  13
ATOM     13  N   LIG d   1      -1.215  75.438 116.751  0.00  0.00    -0.311 N 
ATOM     14  C   LIG d   1      -0.612  74.326 117.167  0.00  0.00     0.210 C 
ATOM     15  C   LIG d   1      -0.193  74.331 118.640  0.00  0.00     0.109 C 
ATOM     16  O   LIG d   1      -0.356  73.348 116.448  0.00  0.00    -0.276 OA
ATOM     17  H   LIG d   1      -1.354  76.194 117.392  0.00  0.00     0.149 HD
ENDBRANCH   6  13
BRANCH   5  18
ATOM     18  N   LIG d   1       0.552  75.593 114.264  0.00  0.00     0.381 N 
ATOM     19  H   LIG d   1       0.668  74.934 115.008  0.00  0.00    -0.090 HD
ATOM     20  H   LIG d   1       1.330  76.228 114.281  0.00  0.00    -0.090 HD
ATOM     21  H   LIG d   1       0.523  75.116 113.389  0.00  0.00    -0.090 HD
ENDBRANCH   5  18
BRANCH   3  22
ATOM     22  C   LIG d   1      -2.968  78.008 112.092  0.00  0.00     0.382 C 
ATOM     23  O   LIG d   1      -2.190  78.894 111.663  0.00  0.00    -0.241 OA
ATOM     24  O   LIG d   1      -4.103  77.895 111.593  0.00  0.00    -0.241 OA
ENDBRANCH   3  22
TORSDOF 7
ENDMDL
MODEL 5
REMARK VINA RESULT:      -5.5      5.637      9.551
REMARK  7 active torsions:
REMARK  status: ('A' for Active; 'I' for Inactive)
REMARK    1  A    between atoms: C_2  and  C_3 
REMARK    2  A    between atoms: C_3  and  O_6 
REMARK    3  A    between atoms: C_3  and  C_4 
REMARK    4  A    between atoms: C_7  and  O_6 
REMARK    5  A    between atoms: C_9  and  C_10 
REMARK    6  A    between atoms: N_15  and  C_14 
REMARK    7  A    between atoms: N_20  and  C_19 
REMARK       I    between atoms: C_22  and  N_20 
ROOT
ATOM      1  C   LIG d   1      -2.015  75.826 114.511  0.00  0.00     0.161 C 
ATOM      2  C   LIG d   1      -1.633  74.901 115.496  0.00  0.00     0.016 C 
ATOM      3  C   LIG d   1      -1.019  75.271 116.715  0.00  0.00     0.038 C 
ATOM      4  C   LIG d   1      -0.883  76.613 117.098  0.00  0.00     0.028 C 
ATOM      5  C   LIG d   1      -0.795  77.575 115.918  0.00  0.00    -0.047 C 
ATOM      6  C   LIG d   1      -1.976  77.302 114.959  0.00  0.00     0.091 C 
ENDROOT
BRANCH   1   7
ATOM      7  O   LIG d   1      -3.323  75.490 114.007  0.00  0.00    -0.368 OA
BRANCH   7   8
ATOM      8  C   LIG d   1      -4.334  75.195 115.003  0.00  0.00     0.119 C 
BRANCH   8   9
ATOM      9  C   LIG d   1      -4.931  73.816 114.662  0.00  0.00     0.028 C 
ATOM     10  C   LIG d   1      -5.563  73.131 115.885  0.00  0.00     0.006 C 
ENDBRANCH   8   9
BRANCH   8  11
ATOM     11  C   LIG d   1      -5.506  76.177 114.915  0.00  0.00     0.028 C 
ATOM     12  C   LIG d   1      -6.186  76.171 113.537  0.00  0.00     0.006 C 
ENDBRANCH   8  11
ENDBRANCH   7   8
ENDBRANCH   1   7
BRANCH   6  13
ATOM     13  N   LIG d   1      -1.919  78.142 113.735  0.00  0.00    -0.311 N 
ATOM     14  C   LIG d   1      -2.573  79.295 113.606  0.00  0.00     0.210 C 
ATOM     15  C   LIG d   1      -2.393  79.993 112.255  0.00  0.00     0.109 C 
ATOM     16  O   LIG d   1      -3.259  79.822 114.495  0.00  0.00    -0.276 OA
ATOM     17  H   LIG d   1      -1.360  77.805 112.976  0.00  0.00     0.149 HD
ENDBRANCH   6  13
BRANCH   5  18
ATOM     18  N   LIG d   1      -0.795  78.947 116.460  0.00  0.00     0.381 N 
ATOM     19  H   LIG d   1      -1.276  79.559 115.831  0.00  0.00    -0.090 HD
ATOM     20  H   LIG d   1       0.155  79.263 116.544  0.00  0.00    -0.090 HD
ATOM     21  H   LIG d   1      -1.238  78.961 117.352  0.00  0.00    -0.090 HD
ENDBRANCH   5  18
BRANCH   3  22
ATOM     22  C   LIG d   1      -0.497  74.292 117.547  0.00  0.00     0.382 C 
ATOM     23  O   LIG d   1      -0.259  73.146 117.095  0.00  0.00    -0.241 OA
ATOM     24  O   LIG d   1      -0.304  74.527 118.755  0.00  0.00    -0.241 OA
ENDBRANCH   3  22
TORSDOF 7
ENDMDL
MODEL 6
REMARK VINA RESULT:      -5.4      6.836      9.916
REMARK  7 active torsions:
REMARK  status: ('A' for Active; 'I' for Inactive)
REMARK    1  A    between atoms: C_2  and  C_3 
REMARK    2  A    between atoms: C_3  and  O_6 
REMARK    3  A    between atoms: C_3  and  C_4 
REMARK    4  A    between atoms: C_7  and  O_6 
REMARK    5  A    between atoms: C_9  and  C_10 
REMARK    6  A    between atoms: N_15  and  C_14 
REMARK    7  A    between atoms: N_20  and  C_19 
REMARK       I    between atoms: C_22  and  N_20 
ROOT
ATOM      1  C   LIG d   1      -2.739  75.609 115.342  0.00  0.00     0.161 C 
ATOM      2  C   LIG d   1      -1.969  74.786 116.182  0.00  0.00     0.016 C 
ATOM      3  C   LIG d   1      -0.786  75.219 116.824  0.00  0.00     0.038 C 
ATOM      4  C   LIG d   1      -0.372  76.559 116.790  0.00  0.00     0.028 C 
ATOM      5  C   LIG d   1      -0.839  77.306 115.545  0.00  0.00    -0.047 C 
ATOM      6  C   LIG d   1      -2.363  77.105 115.382  0.00  0.00     0.091 C 
ENDROOT
BRANCH   1   7
ATOM      7  O   LIG d   1      -4.139  75.436 115.638  0.00  0.00    -0.368 OA
BRANCH   7   8
ATOM      8  C   LIG d   1      -4.850  74.479 114.816  0.00  0.00     0.119 C 
BRANCH   8   9
ATOM      9  C   LIG d   1      -5.513  75.260 113.665  0.00  0.00     0.028 C 
ATOM     10  C   LIG d   1      -6.545  76.283 114.168  0.00  0.00     0.006 C 
ENDBRANCH   8   9
BRANCH   8  11
ATOM     11  C   LIG d   1      -6.006  73.833 115.586  0.00  0.00     0.028 C 
ATOM     12  C   LIG d   1      -5.741  72.359 115.933  0.00  0.00     0.006 C 
ENDBRANCH   8  11
ENDBRANCH   7   8
ENDBRANCH   1   7
BRANCH   6  13
ATOM     13  N   LIG d   1      -2.888  77.734 114.142  0.00  0.00    -0.311 N 
ATOM     14  C   LIG d   1      -2.462  77.414 112.921  0.00  0.00     0.210 C 
ATOM     15  C   LIG d   1      -3.121  78.196 111.781  0.00  0.00     0.109 C 
ATOM     16  O   LIG d   1      -1.624  76.535 112.672  0.00  0.00    -0.276 OA
ATOM     17  H   LIG d   1      -3.594  78.436 114.250  0.00  0.00     0.149 HD
ENDBRANCH   6  13
BRANCH   5  18
ATOM     18  N   LIG d   1      -0.457  78.722 115.705  0.00  0.00     0.381 N 
ATOM     19  H   LIG d   1       0.459  78.782 116.105  0.00  0.00    -0.090 HD
ATOM     20  H   LIG d   1      -1.105  79.165 116.332  0.00  0.00    -0.090 HD
ATOM     21  H   LIG d   1      -0.472  79.181 114.821  0.00  0.00    -0.090 HD
ENDBRANCH   5  18
BRANCH   3  22
ATOM     22  C   LIG d   1       0.018  74.298 117.477  0.00  0.00     0.382 C 
ATOM     23  O   LIG d   1       0.899  74.692 118.279  0.00  0.00    -0.241 OA
ATOM     24  O   LIG d   1      -0.097  73.080 117.242  0.00  0.00    -0.241 OA
ENDBRANCH   3  22
TORSDOF 7
ENDMDL
MODEL 7
REMARK VINA RESULT:      -5.4      3.024      4.470
REMARK  7 active torsions:
REMARK  status: ('A' for Active; 'I' for Inactive)
REMARK    1  A    between atoms: C_2  and  C_3 
REMARK    2  A    between atoms: C_3  and  O_6 
REMARK    3  A    between atoms: C_3  and  C_4 
REMARK    4  A    between atoms: C_7  and  O_6 
REMARK    5  A    between atoms: C_9  and  C_10 
REMARK    6  A    between atoms: N_15  and  C_14 
REMARK    7  A    between atoms: N_20  and  C_19 
REMARK       I    between atoms: C_22  and  N_20 
ROOT
ATOM      1  C   LIG d   1       1.924  84.122 113.348  0.00  0.00     0.161 C 
ATOM      2  C   LIG d   1       2.494  85.406 113.360  0.00  0.00     0.016 C 
ATOM      3  C   LIG d   1       2.306  86.351 112.325  0.00  0.00     0.038 C 
ATOM      4  C   LIG d   1       1.406  86.128 111.272  0.00  0.00     0.028 C 
ATOM      5  C   LIG d   1       1.198  84.651 110.956  0.00  0.00    -0.047 C 
ATOM      6  C   LIG d   1       0.850  83.902 112.262  0.00  0.00     0.091 C 
ENDROOT
BRANCH   1   7
ATOM      7  O   LIG d   1       1.390  83.812 114.651  0.00  0.00    -0.368 OA
BRANCH   7   8
ATOM      8  C   LIG d   1       2.360  83.471 115.672  0.00  0.00     0.119 C 
BRANCH   8   9
ATOM      9  C   LIG d   1       2.271  81.950 115.904  0.00  0.00     0.028 C 
ATOM     10  C   LIG d   1       1.731  81.601 117.301  0.00  0.00     0.006 C 
ENDBRANCH   8   9
BRANCH   8  11
ATOM     11  C   LIG d   1       2.000  84.109 117.017  0.00  0.00     0.028 C 
ATOM     12  C   LIG d   1       1.853  85.636 116.932  0.00  0.00     0.006 C 
ENDBRANCH   8  11
ENDBRANCH   7   8
ENDBRANCH   1   7
BRANCH   6  13
ATOM     13  N   LIG d   1       0.713  82.436 112.056  0.00  0.00    -0.311 N 
ATOM     14  C   LIG d   1      -0.452  81.834 111.825  0.00  0.00     0.210 C 
ATOM     15  C   LIG d   1      -0.373  80.313 111.662  0.00  0.00     0.109 C 
ATOM     16  O   LIG d   1      -1.540  82.419 111.708  0.00  0.00    -0.276 OA
ATOM     17  H   LIG d   1       1.550  81.889 112.104  0.00  0.00     0.149 HD
ENDBRANCH   6  13
BRANCH   5  18
ATOM     18  N   LIG d   1       0.137  84.559 109.936  0.00  0.00     0.381 N 
ATOM     19  H   LIG d   1      -0.706  84.219 110.354  0.00  0.00    -0.090 HD
ATOM     20  H   LIG d   1       0.422  83.906 109.227  0.00  0.00    -0.090 HD
ATOM     21  H   LIG d   1      -0.023  85.453 109.528  0.00  0.00    -0.090 HD
ENDBRANCH   5  18
BRANCH   3  22
ATOM     22  C   LIG d   1       3.054  87.519 112.316  0.00  0.00     0.382 C 
ATOM     23  O   LIG d   1       2.523  88.605 112.650  0.00  0.00    -0.241 OA
ATOM     24  O   LIG d   1       4.240  87.506 111.936  0.00  0.00    -0.241 OA
ENDBRANCH   3  22
TORSDOF 7
ENDMDL
MODEL 8
REMARK VINA RESULT:      -5.2      4.923      7.306
REMARK  7 active torsions:
REMARK  status: ('A' for Active; 'I' for Inactive)
REMARK    1  A    between atoms: C_2  and  C_3 
REMARK    2  A    between atoms: C_3  and  O_6 
REMARK    3  A    between atoms: C_3  and  C_4 
REMARK    4  A    between atoms: C_7  and  O_6 
REMARK    5  A    between atoms: C_9  and  C_10 
REMARK    6  A    between atoms: N_15  and  C_14 
REMARK    7  A    between atoms: N_20  and  C_19 
REMARK       I    between atoms: C_22  and  N_20 
ROOT
ATOM      1  C   LIG d   1      -2.547  78.325 115.050  0.00  0.00     0.161 C 
ATOM      2  C   LIG d   1      -2.868  79.523 114.390  0.00  0.00     0.016 C 
ATOM      3  C   LIG d   1      -2.641  79.736 113.011  0.00  0.00     0.038 C 
ATOM      4  C   LIG d   1      -2.215  78.705 112.161  0.00  0.00     0.028 C 
ATOM      5  C   LIG d   1      -1.401  77.630 112.874  0.00  0.00    -0.047 C 
ATOM      6  C   LIG d   1      -2.184  77.150 114.117  0.00  0.00     0.091 C 
ENDROOT
BRANCH   1   7
ATOM      7  O   LIG d   1      -3.623  77.950 115.933  0.00  0.00    -0.368 OA
BRANCH   7   8
ATOM      8  C   LIG d   1      -4.073  78.970 116.858  0.00  0.00     0.119 C 
BRANCH   8   9
ATOM      9  C   LIG d   1      -3.546  78.592 118.256  0.00  0.00     0.028 C 
ATOM     10  C   LIG d   1      -2.226  79.303 118.597  0.00  0.00     0.006 C 
ENDBRANCH   8   9
BRANCH   8  11
ATOM     11  C   LIG d   1      -5.599  78.971 116.986  0.00  0.00     0.028 C 
ATOM     12  C   LIG d   1      -6.114  80.037 117.968  0.00  0.00     0.006 C 
ENDBRANCH   8  11
ENDBRANCH   7   8
ENDBRANCH   1   7
BRANCH   6  13
ATOM     13  N   LIG d   1      -1.422  76.158 114.920  0.00  0.00    -0.311 N 
ATOM     14  C   LIG d   1      -1.879  74.941 115.208  0.00  0.00     0.210 C 
ATOM     15  C   LIG d   1      -0.942  74.084 116.064  0.00  0.00     0.109 C 
ATOM     16  O   LIG d   1      -2.959  74.478 114.808  0.00  0.00    -0.276 OA
ATOM     17  H   LIG d   1      -0.522  76.439 115.258  0.00  0.00     0.149 HD
ENDBRANCH   6  13
BRANCH   5  18
ATOM     18  N   LIG d   1      -1.140  76.551 111.903  0.00  0.00     0.381 N 
ATOM     19  H   LIG d   1      -0.154  76.419 111.800  0.00  0.00    -0.090 HD
ATOM     20  H   LIG d   1      -1.518  76.818 111.011  0.00  0.00    -0.090 HD
ATOM     21  H   LIG d   1      -1.565  75.704 112.212  0.00  0.00    -0.090 HD
ENDBRANCH   5  18
BRANCH   3  22
ATOM     22  C   LIG d   1      -2.804  81.005 112.476  0.00  0.00     0.382 C 
ATOM     23  O   LIG d   1      -3.910  81.589 112.573  0.00  0.00    -0.241 OA
ATOM     24  O   LIG d   1      -1.872  81.556 111.860  0.00  0.00    -0.241 OA
ENDBRANCH   3  22
TORSDOF 7
ENDMDL
MODEL 9
REMARK VINA RESULT:      -5.1      3.715      5.660
REMARK  7 active torsions:
REMARK  status: ('A' for Active; 'I' for Inactive)
REMARK    1  A    between atoms: C_2  and  C_3 
REMARK    2  A    between atoms: C_3  and  O_6 
REMARK    3  A    between atoms: C_3  and  C_4 
REMARK    4  A    between atoms: C_7  and  O_6 
REMARK    5  A    between atoms: C_9  and  C_10 
REMARK    6  A    between atoms: N_15  and  C_14 
REMARK    7  A    between atoms: N_20  and  C_19 
REMARK       I    between atoms: C_22  and  N_20 
ROOT
ATOM      1  C   LIG d   1       3.698  85.009 113.335  0.00  0.00     0.161 C 
ATOM      2  C   LIG d   1       3.875  86.323 113.799  0.00  0.00     0.016 C 
ATOM      3  C   LIG d   1       3.307  87.454 113.169  0.00  0.00     0.038 C 
ATOM      4  C   LIG d   1       2.393  87.332 112.111  0.00  0.00     0.028 C 
ATOM      5  C   LIG d   1       2.581  86.060 111.292  0.00  0.00    -0.047 C 
ATOM      6  C   LIG d   1       2.614  84.847 112.249  0.00  0.00     0.091 C 
ENDROOT
BRANCH   1   7
ATOM      7  O   LIG d   1       3.429  84.130 114.446  0.00  0.00    -0.368 OA
BRANCH   7   8
ATOM      8  C   LIG d   1       3.420  84.746 115.758  0.00  0.00     0.119 C 
BRANCH   8   9
ATOM      9  C   LIG d   1       4.184  83.810 116.714  0.00  0.00     0.028 C 
ATOM     10  C   LIG d   1       3.358  82.575 117.111  0.00  0.00     0.006 C 
ENDBRANCH   8   9
BRANCH   8  11
ATOM     11  C   LIG d   1       1.999  84.831 116.323  0.00  0.00     0.028 C 
ATOM     12  C   LIG d   1       1.580  86.269 116.667  0.00  0.00     0.006 C 
ENDBRANCH   8  11
ENDBRANCH   7   8
ENDBRANCH   1   7
BRANCH   6  13
ATOM     13  N   LIG d   1       2.879  83.569 111.537  0.00  0.00    -0.311 N 
ATOM     14  C   LIG d   1       2.052  82.525 111.572  0.00  0.00     0.210 C 
ATOM     15  C   LIG d   1       2.525  81.300 110.784  0.00  0.00     0.109 C 
ATOM     16  O   LIG d   1       0.957  82.509 112.154  0.00  0.00    -0.276 OA
ATOM     17  H   LIG d   1       3.730  83.507 111.014  0.00  0.00     0.149 HD
ENDBRANCH   6  13
BRANCH   5  18
ATOM     18  N   LIG d   1       1.479  85.994 110.313  0.00  0.00     0.381 N 
ATOM     19  H   LIG d   1       0.673  85.582 110.738  0.00  0.00    -0.090 HD
ATOM     20  H   LIG d   1       1.762  85.412 109.544  0.00  0.00    -0.090 HD
ATOM     21  H   LIG d   1       1.260  86.908 109.984  0.00  0.00    -0.090 HD
ENDBRANCH   5  18
BRANCH   3  22
ATOM     22  C   LIG d   1       3.684  88.726 113.570  0.00  0.00     0.382 C 
ATOM     23  O   LIG d   1       3.130  89.261 114.561  0.00  0.00    -0.241 OA
ATOM     24  O   LIG d   1       4.540  89.364 112.928  0.00  0.00    -0.241 OA
ENDBRANCH   3  22
TORSDOF 7
ENDMDL
