MODEL 1
REMARK VINA RESULT:      -5.5      0.000      0.000
REMARK  7 active torsions:
REMARK  status: ('A' for Active; 'I' for Inactive)
REMARK    1  A    between atoms: C_2  and  C_3 
REMARK    2  A    between atoms: C_3  and  O_6 
REMARK    3  A    between atoms: C_3  and  C_4 
REMARK    4  A    between atoms: C_7  and  O_6 
REMARK    5  A    between atoms: C_9  and  C_10 
REMARK    6  A    between atoms: N_15  and  C_14 
REMARK    7  A    between atoms: N_20  and  C_19 
REMARK       I    between atoms: C_22  and  N_20 
ROOT
ATOM      1  C   LIG d   1      -6.174  93.267 117.999  0.00  0.00     0.161 C 
ATOM      2  C   LIG d   1      -6.947  92.418 117.189  0.00  0.00     0.016 C 
ATOM      3  C   LIG d   1      -6.408  91.329 116.466  0.00  0.00     0.038 C 
ATOM      4  C   LIG d   1      -5.075  90.921 116.623  0.00  0.00     0.028 C 
ATOM      5  C   LIG d   1      -4.141  92.052 117.039  0.00  0.00    -0.047 C 
ATOM      6  C   LIG d   1      -4.739  92.770 118.271  0.00  0.00     0.091 C 
ENDROOT
BRANCH   1   7
ATOM      7  O   LIG d   1      -6.861  93.517 119.241  0.00  0.00    -0.368 OA
BRANCH   7   8
ATOM      8  C   LIG d   1      -7.458  94.829 119.386  0.00  0.00     0.119 C 
BRANCH   8   9
ATOM      9  C   LIG d   1      -8.960  94.693 119.067  0.00  0.00     0.028 C 
ATOM     10  C   LIG d   1      -9.830  94.676 120.335  0.00  0.00     0.006 C 
ENDBRANCH   8   9
BRANCH   8  11
ATOM     11  C   LIG d   1      -6.910  95.809 118.344  0.00  0.00     0.028 C 
ATOM     12  C   LIG d   1      -7.949  96.851 117.901  0.00  0.00     0.006 C 
ENDBRANCH   8  11
ENDBRANCH   7   8
ENDBRANCH   1   7
BRANCH   6  13
ATOM     13  N   LIG d   1      -3.929  93.943 118.691  0.00  0.00    -0.311 N 
ATOM     14  C   LIG d   1      -2.969  93.879 119.613  0.00  0.00     0.210 C 
ATOM     15  C   LIG d   1      -2.271  95.210 119.912  0.00  0.00     0.109 C 
ATOM     16  O   LIG d   1      -2.608  92.841 120.187  0.00  0.00    -0.276 OA
ATOM     17  H   LIG d   1      -4.134  94.820 118.253  0.00  0.00     0.149 HD
ENDBRANCH   6  13
BRANCH   5  18
ATOM     18  N   LIG d   1      -2.815  91.461 117.301  0.00  0.00     0.381 N 
ATOM     19  H   LIG d   1      -2.431  91.099 116.451  0.00  0.00    -0.090 HD
ATOM     20  H   LIG d   1      -2.920  90.701 117.949  0.00  0.00    -0.090 HD
ATOM     21  H   LIG d   1      -2.204  92.150 117.683  0.00  0.00    -0.090 HD
ENDBRANCH   5  18
BRANCH   3  22
ATOM     22  C   LIG d   1      -7.197  90.660 115.542  0.00  0.00     0.382 C 
ATOM     23  O   LIG d   1      -7.388  89.426 115.658  0.00  0.00    -0.241 OA
ATOM     24  O   LIG d   1      -7.682  91.268 114.568  0.00  0.00    -0.241 OA
ENDBRANCH   3  22
TORSDOF 7
ENDMDL
MODEL 2
REMARK VINA RESULT:      -5.5     14.940     17.529
REMARK  7 active torsions:
REMARK  status: ('A' for Active; 'I' for Inactive)
REMARK    1  A    between atoms: C_2  and  C_3 
REMARK    2  A    between atoms: C_3  and  O_6 
REMARK    3  A    between atoms: C_3  and  C_4 
REMARK    4  A    between atoms: C_7  and  O_6 
REMARK    5  A    between atoms: C_9  and  C_10 
REMARK    6  A    between atoms: N_15  and  C_14 
REMARK    7  A    between atoms: N_20  and  C_19 
REMARK       I    between atoms: C_22  and  N_20 
ROOT
ATOM      1  C   LIG d   1      -9.053  76.115 119.181  0.00  0.00     0.161 C 
ATOM      2  C   LIG d   1      -8.879  74.862 118.571  0.00  0.00     0.016 C 
ATOM      3  C   LIG d   1      -9.904  74.192 117.864  0.00  0.00     0.038 C 
ATOM      4  C   LIG d   1     -11.136  74.803 117.588  0.00  0.00     0.028 C 
ATOM      5  C   LIG d   1     -11.532  75.859 118.615  0.00  0.00    -0.047 C 
ATOM      6  C   LIG d   1     -10.356  76.847 118.797  0.00  0.00     0.091 C 
ENDROOT
BRANCH   1   7
ATOM      7  O   LIG d   1      -7.911  76.952 118.913  0.00  0.00    -0.368 OA
BRANCH   7   8
ATOM      8  C   LIG d   1      -7.886  77.600 117.617  0.00  0.00     0.119 C 
BRANCH   8   9
ATOM      9  C   LIG d   1      -6.754  76.953 116.797  0.00  0.00     0.028 C 
ATOM     10  C   LIG d   1      -7.285  76.114 115.622  0.00  0.00     0.006 C 
ENDBRANCH   8   9
BRANCH   8  11
ATOM     11  C   LIG d   1      -7.504  79.078 117.741  0.00  0.00     0.028 C 
ATOM     12  C   LIG d   1      -7.140  79.481 119.179  0.00  0.00     0.006 C 
ENDBRANCH   8  11
ENDBRANCH   7   8
ENDBRANCH   1   7
BRANCH   6  13
ATOM     13  N   LIG d   1     -10.628  77.864 119.846  0.00  0.00    -0.311 N 
ATOM     14  C   LIG d   1     -10.812  79.156 119.583  0.00  0.00     0.210 C 
ATOM     15  C   LIG d   1     -11.058  80.037 120.812  0.00  0.00     0.109 C 
ATOM     16  O   LIG d   1     -10.827  79.652 118.446  0.00  0.00    -0.276 OA
ATOM     17  H   LIG d   1     -10.664  77.543 120.793  0.00  0.00     0.149 HD
ENDBRANCH   6  13
BRANCH   5  18
ATOM     18  N   LIG d   1     -12.764  76.510 118.132  0.00  0.00     0.381 N 
ATOM     19  H   LIG d   1     -12.909  77.369 118.624  0.00  0.00    -0.090 HD
ATOM     20  H   LIG d   1     -13.545  75.906 118.317  0.00  0.00    -0.090 HD
ATOM     21  H   LIG d   1     -12.696  76.687 117.154  0.00  0.00    -0.090 HD
ENDBRANCH   5  18
BRANCH   3  22
ATOM     22  C   LIG d   1      -9.714  72.879 117.459  0.00  0.00     0.382 C 
ATOM     23  O   LIG d   1     -10.420  71.964 117.947  0.00  0.00    -0.241 OA
ATOM     24  O   LIG d   1      -8.817  72.593 116.644  0.00  0.00    -0.241 OA
ENDBRANCH   3  22
TORSDOF 7
ENDMDL
MODEL 3
REMARK VINA RESULT:      -5.4     15.931     18.624
REMARK  7 active torsions:
REMARK  status: ('A' for Active; 'I' for Inactive)
REMARK    1  A    between atoms: C_2  and  C_3 
REMARK    2  A    between atoms: C_3  and  O_6 
REMARK    3  A    between atoms: C_3  and  C_4 
REMARK    4  A    between atoms: C_7  and  O_6 
REMARK    5  A    between atoms: C_9  and  C_10 
REMARK    6  A    between atoms: N_15  and  C_14 
REMARK    7  A    between atoms: N_20  and  C_19 
REMARK       I    between atoms: C_22  and  N_20 
ROOT
ATOM      1  C   LIG d   1      -8.798  75.427 117.602  0.00  0.00     0.161 C 
ATOM      2  C   LIG d   1      -8.557  74.058 117.397  0.00  0.00     0.016 C 
ATOM      3  C   LIG d   1      -9.587  73.098 117.265  0.00  0.00     0.038 C 
ATOM      4  C   LIG d   1     -10.938  73.467 117.179  0.00  0.00     0.028 C 
ATOM      5  C   LIG d   1     -11.254  74.780 117.886  0.00  0.00    -0.047 C 
ATOM      6  C   LIG d   1     -10.264  75.863 117.399  0.00  0.00     0.091 C 
ENDROOT
BRANCH   1   7
ATOM      7  O   LIG d   1      -7.922  76.208 116.765  0.00  0.00    -0.368 OA
BRANCH   7   8
ATOM      8  C   LIG d   1      -6.523  76.218 117.140  0.00  0.00     0.119 C 
BRANCH   8   9
ATOM      9  C   LIG d   1      -6.083  77.690 117.247  0.00  0.00     0.028 C 
ATOM     10  C   LIG d   1      -7.250  78.628 117.599  0.00  0.00     0.006 C 
ENDBRANCH   8   9
BRANCH   8  11
ATOM     11  C   LIG d   1      -5.647  75.611 116.040  0.00  0.00     0.028 C 
ATOM     12  C   LIG d   1      -6.366  75.528 114.684  0.00  0.00     0.006 C 
ENDBRANCH   8  11
ENDBRANCH   7   8
ENDBRANCH   1   7
BRANCH   6  13
ATOM     13  N   LIG d   1     -10.449  77.159 118.104  0.00  0.00    -0.311 N 
ATOM     14  C   LIG d   1     -10.391  77.287 119.429  0.00  0.00     0.210 C 
ATOM     15  C   LIG d   1     -10.630  78.707 119.951  0.00  0.00     0.109 C 
ATOM     16  O   LIG d   1     -10.133  76.366 120.218  0.00  0.00    -0.276 OA
ATOM     17  H   LIG d   1     -10.633  77.964 117.538  0.00  0.00     0.149 HD
ENDBRANCH   6  13
BRANCH   5  18
ATOM     18  N   LIG d   1     -12.662  75.113 117.600  0.00  0.00     0.381 N 
ATOM     19  H   LIG d   1     -12.753  76.098 117.448  0.00  0.00    -0.090 HD
ATOM     20  H   LIG d   1     -13.223  74.864 118.396  0.00  0.00    -0.090 HD
ATOM     21  H   LIG d   1     -12.974  74.615 116.796  0.00  0.00    -0.090 HD
ENDBRANCH   5  18
BRANCH   3  22
ATOM     22  C   LIG d   1      -9.271  71.748 117.259  0.00  0.00     0.382 C 
ATOM     23  O   LIG d   1      -9.091  71.141 118.342  0.00  0.00    -0.241 OA
ATOM     24  O   LIG d   1      -9.121  71.140 116.182  0.00  0.00    -0.241 OA
ENDBRANCH   3  22
TORSDOF 7
ENDMDL
MODEL 4
REMARK VINA RESULT:      -5.3     15.016     17.748
REMARK  7 active torsions:
REMARK  status: ('A' for Active; 'I' for Inactive)
REMARK    1  A    between atoms: C_2  and  C_3 
REMARK    2  A    between atoms: C_3  and  O_6 
REMARK    3  A    between atoms: C_3  and  C_4 
REMARK    4  A    between atoms: C_7  and  O_6 
REMARK    5  A    between atoms: C_9  and  C_10 
REMARK    6  A    between atoms: N_15  and  C_14 
REMARK    7  A    between atoms: N_20  and  C_19 
REMARK       I    between atoms: C_22  and  N_20 
ROOT
ATOM      1  C   LIG d   1      -8.294  75.918 117.034  0.00  0.00     0.161 C 
ATOM      2  C   LIG d   1      -7.249  75.183 116.449  0.00  0.00     0.016 C 
ATOM      3  C   LIG d   1      -5.917  75.650 116.376  0.00  0.00     0.038 C 
ATOM      4  C   LIG d   1      -5.506  76.825 117.021  0.00  0.00     0.028 C 
ATOM      5  C   LIG d   1      -6.626  77.847 117.190  0.00  0.00    -0.047 C 
ATOM      6  C   LIG d   1      -7.844  77.153 117.842  0.00  0.00     0.091 C 
ENDROOT
BRANCH   1   7
ATOM      7  O   LIG d   1      -9.102  75.050 117.854  0.00  0.00    -0.368 OA
BRANCH   7   8
ATOM      8  C   LIG d   1      -9.864  74.038 117.153  0.00  0.00     0.119 C 
BRANCH   8   9
ATOM      9  C   LIG d   1     -11.357  74.321 117.410  0.00  0.00     0.028 C 
ATOM     10  C   LIG d   1     -11.583  75.646 118.157  0.00  0.00     0.006 C 
ENDBRANCH   8   9
BRANCH   8  11
ATOM     11  C   LIG d   1      -9.609  72.645 117.735  0.00  0.00     0.028 C 
ATOM     12  C   LIG d   1      -8.986  71.677 116.716  0.00  0.00     0.006 C 
ENDBRANCH   8  11
ENDBRANCH   7   8
ENDBRANCH   1   7
BRANCH   6  13
ATOM     13  N   LIG d   1      -9.014  78.061 117.966  0.00  0.00    -0.311 N 
ATOM     14  C   LIG d   1      -9.277  78.771 119.061  0.00  0.00     0.210 C 
ATOM     15  C   LIG d   1     -10.545  79.628 118.986  0.00  0.00     0.109 C 
ATOM     16  O   LIG d   1      -8.564  78.798 120.076  0.00  0.00    -0.276 OA
ATOM     17  H   LIG d   1      -9.628  78.124 117.178  0.00  0.00     0.149 HD
ENDBRANCH   6  13
BRANCH   5  18
ATOM     18  N   LIG d   1      -6.095  78.961 117.997  0.00  0.00     0.381 N 
ATOM     19  H   LIG d   1      -6.216  78.763 118.970  0.00  0.00    -0.090 HD
ATOM     20  H   LIG d   1      -6.610  79.796 117.779  0.00  0.00    -0.090 HD
ATOM     21  H   LIG d   1      -5.128  79.097 117.797  0.00  0.00    -0.090 HD
ENDBRANCH   5  18
BRANCH   3  22
ATOM     22  C   LIG d   1      -4.987  74.956 115.616  0.00  0.00     0.382 C 
ATOM     23  O   LIG d   1      -3.784  74.925 115.972  0.00  0.00    -0.241 OA
ATOM     24  O   LIG d   1      -5.328  74.399 114.555  0.00  0.00    -0.241 OA
ENDBRANCH   3  22
TORSDOF 7
ENDMDL
MODEL 5
REMARK VINA RESULT:      -5.2     14.204     17.296
REMARK  7 active torsions:
REMARK  status: ('A' for Active; 'I' for Inactive)
REMARK    1  A    between atoms: C_2  and  C_3 
REMARK    2  A    between atoms: C_3  and  O_6 
REMARK    3  A    between atoms: C_3  and  C_4 
REMARK    4  A    between atoms: C_7  and  O_6 
REMARK    5  A    between atoms: C_9  and  C_10 
REMARK    6  A    between atoms: N_15  and  C_14 
REMARK    7  A    between atoms: N_20  and  C_19 
REMARK       I    between atoms: C_22  and  N_20 
ROOT
ATOM      1  C   LIG d   1      -7.773  77.216 117.363  0.00  0.00     0.161 C 
ATOM      2  C   LIG d   1      -7.365  78.548 117.545  0.00  0.00     0.016 C 
ATOM      3  C   LIG d   1      -8.146  79.516 118.217  0.00  0.00     0.038 C 
ATOM      4  C   LIG d   1      -9.329  79.177 118.890  0.00  0.00     0.028 C 
ATOM      5  C   LIG d   1     -10.030  77.955 118.305  0.00  0.00    -0.047 C 
ATOM      6  C   LIG d   1      -9.009  76.800 118.187  0.00  0.00     0.091 C 
ENDROOT
BRANCH   1   7
ATOM      7  O   LIG d   1      -6.670  76.327 117.631  0.00  0.00    -0.368 OA
BRANCH   7   8
ATOM      8  C   LIG d   1      -5.724  76.141 116.550  0.00  0.00     0.119 C 
BRANCH   8   9
ATOM      9  C   LIG d   1      -6.470  75.437 115.399  0.00  0.00     0.028 C 
ATOM     10  C   LIG d   1      -6.830  73.981 115.737  0.00  0.00     0.006 C 
ENDBRANCH   8   9
BRANCH   8  11
ATOM     11  C   LIG d   1      -4.600  75.181 116.951  0.00  0.00     0.028 C 
ATOM     12  C   LIG d   1      -3.304  75.417 116.160  0.00  0.00     0.006 C 
ENDBRANCH   8  11
ENDBRANCH   7   8
ENDBRANCH   1   7
BRANCH   6  13
ATOM     13  N   LIG d   1      -9.592  75.593 117.545  0.00  0.00    -0.311 N 
ATOM     14  C   LIG d   1      -9.738  74.427 118.173  0.00  0.00     0.210 C 
ATOM     15  C   LIG d   1     -10.341  73.306 117.322  0.00  0.00     0.109 C 
ATOM     16  O   LIG d   1      -9.455  74.225 119.363  0.00  0.00    -0.276 OA
ATOM     17  H   LIG d   1      -9.877  75.677 116.589  0.00  0.00     0.149 HD
ENDBRANCH   6  13
BRANCH   5  18
ATOM     18  N   LIG d   1     -11.170  77.632 119.184  0.00  0.00     0.381 N 
ATOM     19  H   LIG d   1     -11.827  78.386 119.178  0.00  0.00    -0.090 HD
ATOM     20  H   LIG d   1     -10.833  77.514 120.123  0.00  0.00    -0.090 HD
ATOM     21  H   LIG d   1     -11.612  76.794 118.875  0.00  0.00    -0.090 HD
ENDBRANCH   5  18
BRANCH   3  22
ATOM     22  C   LIG d   1      -7.765  80.849 118.187  0.00  0.00     0.382 C 
ATOM     23  O   LIG d   1      -8.024  81.597 119.160  0.00  0.00    -0.241 OA
ATOM     24  O   LIG d   1      -7.205  81.323 117.180  0.00  0.00    -0.241 OA
ENDBRANCH   3  22
TORSDOF 7
ENDMDL
MODEL 6
REMARK VINA RESULT:      -5.1      2.306      5.074
REMARK  7 active torsions:
REMARK  status: ('A' for Active; 'I' for Inactive)
REMARK    1  A    between atoms: C_2  and  C_3 
REMARK    2  A    between atoms: C_3  and  O_6 
REMARK    3  A    between atoms: C_3  and  C_4 
REMARK    4  A    between atoms: C_7  and  O_6 
REMARK    5  A    between atoms: C_9  and  C_10 
REMARK    6  A    between atoms: N_15  and  C_14 
REMARK    7  A    between atoms: N_20  and  C_19 
REMARK       I    between atoms: C_22  and  N_20 
ROOT
ATOM      1  C   LIG d   1      -4.343  91.541 117.686  0.00  0.00     0.161 C 
ATOM      2  C   LIG d   1      -4.952  90.936 116.574  0.00  0.00     0.016 C 
ATOM      3  C   LIG d   1      -6.189  91.361 116.037  0.00  0.00     0.038 C 
ATOM      4  C   LIG d   1      -6.832  92.524 116.487  0.00  0.00     0.028 C 
ATOM      5  C   LIG d   1      -6.509  92.873 117.936  0.00  0.00    -0.047 C 
ATOM      6  C   LIG d   1      -4.974  92.880 118.121  0.00  0.00     0.091 C 
ENDROOT
BRANCH   1   7
ATOM      7  O   LIG d   1      -2.932  91.709 117.440  0.00  0.00    -0.368 OA
BRANCH   7   8
ATOM      8  C   LIG d   1      -2.041  90.961 118.304  0.00  0.00     0.119 C 
BRANCH   8   9
ATOM      9  C   LIG d   1      -0.637  91.580 118.167  0.00  0.00     0.028 C 
ATOM     10  C   LIG d   1       0.225  90.855 117.120  0.00  0.00     0.006 C 
ENDBRANCH   8   9
BRANCH   8  11
ATOM     11  C   LIG d   1      -1.893  89.512 117.831  0.00  0.00     0.028 C 
ATOM     12  C   LIG d   1      -2.341  88.491 118.889  0.00  0.00     0.006 C 
ENDBRANCH   8  11
ENDBRANCH   7   8
ENDBRANCH   1   7
BRANCH   6  13
ATOM     13  N   LIG d   1      -4.574  93.129 119.530  0.00  0.00    -0.311 N 
ATOM     14  C   LIG d   1      -3.654  94.026 119.883  0.00  0.00     0.210 C 
ATOM     15  C   LIG d   1      -3.377  94.110 121.388  0.00  0.00     0.109 C 
ATOM     16  O   LIG d   1      -3.065  94.782 119.097  0.00  0.00    -0.276 OA
ATOM     17  H   LIG d   1      -5.025  92.581 120.236  0.00  0.00     0.149 HD
ENDBRANCH   6  13
BRANCH   5  18
ATOM     18  N   LIG d   1      -7.133  94.177 118.231  0.00  0.00     0.381 N 
ATOM     19  H   LIG d   1      -8.006  94.036 118.698  0.00  0.00    -0.090 HD
ATOM     20  H   LIG d   1      -7.312  94.654 117.365  0.00  0.00    -0.090 HD
ATOM     21  H   LIG d   1      -6.526  94.724 118.801  0.00  0.00    -0.090 HD
ENDBRANCH   5  18
BRANCH   3  22
ATOM     22  C   LIG d   1      -6.815  90.597 115.065  0.00  0.00     0.382 C 
ATOM     23  O   LIG d   1      -7.892  90.990 114.556  0.00  0.00    -0.241 OA
ATOM     24  O   LIG d   1      -6.340  89.497 114.723  0.00  0.00    -0.241 OA
ENDBRANCH   3  22
TORSDOF 7
ENDMDL
MODEL 7
REMARK VINA RESULT:      -4.9      2.481      6.368
REMARK  7 active torsions:
REMARK  status: ('A' for Active; 'I' for Inactive)
REMARK    1  A    between atoms: C_2  and  C_3 
REMARK    2  A    between atoms: C_3  and  O_6 
REMARK    3  A    between atoms: C_3  and  C_4 
REMARK    4  A    between atoms: C_7  and  O_6 
REMARK    5  A    between atoms: C_9  and  C_10 
REMARK    6  A    between atoms: N_15  and  C_14 
REMARK    7  A    between atoms: N_20  and  C_19 
REMARK       I    between atoms: C_22  and  N_20 
ROOT
ATOM      1  C   LIG d   1      -4.606  92.872 118.357  0.00  0.00     0.161 C 
ATOM      2  C   LIG d   1      -4.539  93.795 119.414  0.00  0.00     0.016 C 
ATOM      3  C   LIG d   1      -5.632  94.595 119.820  0.00  0.00     0.038 C 
ATOM      4  C   LIG d   1      -6.918  94.417 119.290  0.00  0.00     0.028 C 
ATOM      5  C   LIG d   1      -6.917  93.851 117.874  0.00  0.00    -0.047 C 
ATOM      6  C   LIG d   1      -6.031  92.584 117.840  0.00  0.00     0.091 C 
ENDROOT
BRANCH   1   7
ATOM      7  O   LIG d   1      -3.954  91.645 118.738  0.00  0.00    -0.368 OA
BRANCH   7   8
ATOM      8  C   LIG d   1      -2.796  91.269 117.953  0.00  0.00     0.119 C 
BRANCH   8   9
ATOM      9  C   LIG d   1      -3.088  89.891 117.328  0.00  0.00     0.028 C 
ATOM     10  C   LIG d   1      -2.040  88.835 117.718  0.00  0.00     0.006 C 
ENDBRANCH   8   9
BRANCH   8  11
ATOM     11  C   LIG d   1      -1.565  91.059 118.840  0.00  0.00     0.028 C 
ATOM     12  C   LIG d   1      -1.054  92.365 119.469  0.00  0.00     0.006 C 
ENDBRANCH   8  11
ENDBRANCH   7   8
ENDBRANCH   1   7
BRANCH   6  13
ATOM     13  N   LIG d   1      -5.907  92.015 116.473  0.00  0.00    -0.311 N 
ATOM     14  C   LIG d   1      -6.747  91.107 115.978  0.00  0.00     0.210 C 
ATOM     15  C   LIG d   1      -6.427  90.638 114.555  0.00  0.00     0.109 C 
ATOM     16  O   LIG d   1      -7.744  90.669 116.571  0.00  0.00    -0.276 OA
ATOM     17  H   LIG d   1      -5.144  92.338 115.912  0.00  0.00     0.149 HD
ENDBRANCH   6  13
BRANCH   5  18
ATOM     18  N   LIG d   1      -8.318  93.587 117.498  0.00  0.00     0.381 N 
ATOM     19  H   LIG d   1      -8.359  92.815 116.862  0.00  0.00    -0.090 HD
ATOM     20  H   LIG d   1      -8.689  94.397 117.034  0.00  0.00    -0.090 HD
ATOM     21  H   LIG d   1      -8.857  93.385 118.311  0.00  0.00    -0.090 HD
ENDBRANCH   5  18
BRANCH   3  22
ATOM     22  C   LIG d   1      -5.433  95.615 120.738  0.00  0.00     0.382 C 
ATOM     23  O   LIG d   1      -4.713  96.597 120.439  0.00  0.00    -0.241 OA
ATOM     24  O   LIG d   1      -5.930  95.543 121.879  0.00  0.00    -0.241 OA
ENDBRANCH   3  22
TORSDOF 7
ENDMDL
MODEL 8
REMARK VINA RESULT:      -4.8     14.398     16.923
REMARK  7 active torsions:
REMARK  status: ('A' for Active; 'I' for Inactive)
REMARK    1  A    between atoms: C_2  and  C_3 
REMARK    2  A    between atoms: C_3  and  O_6 
REMARK    3  A    between atoms: C_3  and  C_4 
REMARK    4  A    between atoms: C_7  and  O_6 
REMARK    5  A    between atoms: C_9  and  C_10 
REMARK    6  A    between atoms: N_15  and  C_14 
REMARK    7  A    between atoms: N_20  and  C_19 
REMARK       I    between atoms: C_22  and  N_20 
ROOT
ATOM      1  C   LIG d   1      -8.316  77.045 116.773  0.00  0.00     0.161 C 
ATOM      2  C   LIG d   1      -7.837  75.859 116.193  0.00  0.00     0.016 C 
ATOM      3  C   LIG d   1      -6.481  75.461 116.243  0.00  0.00     0.038 C 
ATOM      4  C   LIG d   1      -5.533  76.152 117.012  0.00  0.00     0.028 C 
ATOM      5  C   LIG d   1      -5.865  77.629 117.198  0.00  0.00    -0.047 C 
ATOM      6  C   LIG d   1      -7.318  77.756 117.711  0.00  0.00     0.091 C 
ENDROOT
BRANCH   1   7
ATOM      7  O   LIG d   1      -9.555  76.786 117.464  0.00  0.00    -0.368 OA
BRANCH   7   8
ATOM      8  C   LIG d   1      -9.611  75.559 118.232  0.00  0.00     0.119 C 
BRANCH   8   9
ATOM      9  C   LIG d   1     -10.791  74.728 117.692  0.00  0.00     0.028 C 
ATOM     10  C   LIG d   1     -10.449  73.233 117.572  0.00  0.00     0.006 C 
ENDBRANCH   8   9
BRANCH   8  11
ATOM     11  C   LIG d   1      -9.948  75.836 119.700  0.00  0.00     0.028 C 
ATOM     12  C   LIG d   1      -8.700  76.085 120.562  0.00  0.00     0.006 C 
ENDBRANCH   8  11
ENDBRANCH   7   8
ENDBRANCH   1   7
BRANCH   6  13
ATOM     13  N   LIG d   1      -7.752  79.171 117.840  0.00  0.00    -0.311 N 
ATOM     14  C   LIG d   1      -7.685  79.857 118.980  0.00  0.00     0.210 C 
ATOM     15  C   LIG d   1      -8.203  81.297 118.899  0.00  0.00     0.109 C 
ATOM     16  O   LIG d   1      -7.217  79.421 120.042  0.00  0.00    -0.276 OA
ATOM     17  H   LIG d   1      -8.116  79.613 117.019  0.00  0.00     0.149 HD
ENDBRANCH   6  13
BRANCH   5  18
ATOM     18  N   LIG d   1      -4.872  78.195 118.130  0.00  0.00     0.381 N 
ATOM     19  H   LIG d   1      -4.354  77.456 118.563  0.00  0.00    -0.090 HD
ATOM     20  H   LIG d   1      -5.354  78.705 118.848  0.00  0.00    -0.090 HD
ATOM     21  H   LIG d   1      -4.252  78.802 117.640  0.00  0.00    -0.090 HD
ENDBRANCH   5  18
BRANCH   3  22
ATOM     22  C   LIG d   1      -6.054  74.381 115.485  0.00  0.00     0.382 C 
ATOM     23  O   LIG d   1      -6.561  73.248 115.666  0.00  0.00    -0.241 OA
ATOM     24  O   LIG d   1      -5.136  74.517 114.654  0.00  0.00    -0.241 OA
ENDBRANCH   3  22
TORSDOF 7
ENDMDL
MODEL 9
REMARK VINA RESULT:      -4.7     34.757     36.898
REMARK  7 active torsions:
REMARK  status: ('A' for Active; 'I' for Inactive)
REMARK    1  A    between atoms: C_2  and  C_3 
REMARK    2  A    between atoms: C_3  and  O_6 
REMARK    3  A    between atoms: C_3  and  C_4 
REMARK    4  A    between atoms: C_7  and  O_6 
REMARK    5  A    between atoms: C_9  and  C_10 
REMARK    6  A    between atoms: N_15  and  C_14 
REMARK    7  A    between atoms: N_20  and  C_19 
REMARK       I    between atoms: C_22  and  N_20 
ROOT
ATOM      1  C   LIG d   1       1.118  57.989 117.791  0.00  0.00     0.161 C 
ATOM      2  C   LIG d   1       0.165  58.733 118.506  0.00  0.00     0.016 C 
ATOM      3  C   LIG d   1      -0.769  58.153 119.393  0.00  0.00     0.038 C 
ATOM      4  C   LIG d   1      -0.714  56.795 119.744  0.00  0.00     0.028 C 
ATOM      5  C   LIG d   1      -0.092  55.916 118.665  0.00  0.00    -0.047 C 
ATOM      6  C   LIG d   1       1.266  56.522 118.245  0.00  0.00     0.091 C 
ENDROOT
BRANCH   1   7
ATOM      7  O   LIG d   1       2.394  58.658 117.836  0.00  0.00    -0.368 OA
BRANCH   7   8
ATOM      8  C   LIG d   1       3.327  58.186 118.839  0.00  0.00     0.119 C 
BRANCH   8   9
ATOM      9  C   LIG d   1       3.313  59.202 119.998  0.00  0.00     0.028 C 
ATOM     10  C   LIG d   1       2.633  58.643 121.260  0.00  0.00     0.006 C 
ENDBRANCH   8   9
BRANCH   8  11
ATOM     11  C   LIG d   1       4.764  58.194 118.311  0.00  0.00     0.028 C 
ATOM     12  C   LIG d   1       5.564  56.954 118.742  0.00  0.00     0.006 C 
ENDBRANCH   8  11
ENDBRANCH   7   8
ENDBRANCH   1   7
BRANCH   6  13
ATOM     13  N   LIG d   1       1.903  55.769 117.133  0.00  0.00    -0.311 N 
ATOM     14  C   LIG d   1       2.791  54.794 117.322  0.00  0.00     0.210 C 
ATOM     15  C   LIG d   1       3.340  54.162 116.039  0.00  0.00     0.109 C 
ATOM     16  O   LIG d   1       3.151  54.371 118.430  0.00  0.00    -0.276 OA
ATOM     17  H   LIG d   1       1.644  56.027 116.201  0.00  0.00     0.149 HD
ENDBRANCH   6  13
BRANCH   5  18
ATOM     18  N   LIG d   1       0.028  54.553 119.216  0.00  0.00     0.381 N 
ATOM     19  H   LIG d   1      -0.512  53.916 118.665  0.00  0.00    -0.090 HD
ATOM     20  H   LIG d   1      -0.336  54.547 120.152  0.00  0.00    -0.090 HD
ATOM     21  H   LIG d   1       0.984  54.270 119.221  0.00  0.00    -0.090 HD
ENDBRANCH   5  18
BRANCH   3  22
ATOM     22  C   LIG d   1      -1.798  58.925 119.910  0.00  0.00     0.382 C 
ATOM     23  O   LIG d   1      -1.621  60.150 120.114  0.00  0.00    -0.241 OA
ATOM     24  O   LIG d   1      -2.887  58.404 120.217  0.00  0.00    -0.241 OA
ENDBRANCH   3  22
TORSDOF 7
ENDMDL
