MODEL 1
REMARK VINA RESULT:      -6.3      0.000      0.000
REMARK  7 active torsions:
REMARK  status: ('A' for Active; 'I' for Inactive)
REMARK    1  A    between atoms: C_2  and  C_3 
REMARK    2  A    between atoms: C_3  and  O_6 
REMARK    3  A    between atoms: C_3  and  C_4 
REMARK    4  A    between atoms: C_7  and  O_6 
REMARK    5  A    between atoms: C_9  and  C_10 
REMARK    6  A    between atoms: N_15  and  C_14 
REMARK    7  A    between atoms: N_20  and  C_19 
REMARK       I    between atoms: C_22  and  N_20 
ROOT
ATOM      1  C   LIG d   1       3.052  84.861 111.625  0.00  0.00     0.161 C 
ATOM      2  C   LIG d   1       1.809  84.528 111.062  0.00  0.00     0.016 C 
ATOM      3  C   LIG d   1       0.717  85.424 111.003  0.00  0.00     0.038 C 
ATOM      4  C   LIG d   1       0.843  86.773 111.369  0.00  0.00     0.028 C 
ATOM      5  C   LIG d   1       1.930  87.018 112.410  0.00  0.00    -0.047 C 
ATOM      6  C   LIG d   1       3.244  86.361 111.929  0.00  0.00     0.091 C 
ENDROOT
BRANCH   1   7
ATOM      7  O   LIG d   1       4.116  84.381 110.779  0.00  0.00    -0.368 OA
BRANCH   7   8
ATOM      8  C   LIG d   1       4.542  83.014 111.003  0.00  0.00     0.119 C 
BRANCH   8   9
ATOM      9  C   LIG d   1       5.616  83.040 112.108  0.00  0.00     0.028 C 
ATOM     10  C   LIG d   1       5.189  82.255 113.360  0.00  0.00     0.006 C 
ENDBRANCH   8   9
BRANCH   8  11
ATOM     11  C   LIG d   1       5.243  82.439 109.769  0.00  0.00     0.028 C 
ATOM     12  C   LIG d   1       5.106  80.912 109.664  0.00  0.00     0.006 C 
ENDBRANCH   8  11
ENDBRANCH   7   8
ENDBRANCH   1   7
BRANCH   6  13
ATOM     13  N   LIG d   1       4.337  86.482 112.928  0.00  0.00    -0.311 N 
ATOM     14  C   LIG d   1       5.198  87.498 112.954  0.00  0.00     0.210 C 
ATOM     15  C   LIG d   1       6.261  87.417 114.054  0.00  0.00     0.109 C 
ATOM     16  O   LIG d   1       5.163  88.474 112.190  0.00  0.00    -0.276 OA
ATOM     17  H   LIG d   1       4.420  85.749 113.605  0.00  0.00     0.149 HD
ENDBRANCH   6  13
BRANCH   5  18
ATOM     18  N   LIG d   1       2.047  88.477 112.597  0.00  0.00     0.381 N 
ATOM     19  H   LIG d   1       2.627  88.671 113.389  0.00  0.00    -0.090 HD
ATOM     20  H   LIG d   1       1.134  88.856 112.774  0.00  0.00    -0.090 HD
ATOM     21  H   LIG d   1       2.436  88.895 111.781  0.00  0.00    -0.090 HD
ENDBRANCH   5  18
BRANCH   3  22
ATOM     22  C   LIG d   1      -0.530  84.963 110.610  0.00  0.00     0.382 C 
ATOM     23  O   LIG d   1      -1.343  85.744 110.060  0.00  0.00    -0.241 OA
ATOM     24  O   LIG d   1      -0.869  83.786 110.839  0.00  0.00    -0.241 OA
ENDBRANCH   3  22
TORSDOF 7
ENDMDL
MODEL 2
REMARK VINA RESULT:      -6.2      1.585      4.913
REMARK  7 active torsions:
REMARK  status: ('A' for Active; 'I' for Inactive)
REMARK    1  A    between atoms: C_2  and  C_3 
REMARK    2  A    between atoms: C_3  and  O_6 
REMARK    3  A    between atoms: C_3  and  C_4 
REMARK    4  A    between atoms: C_7  and  O_6 
REMARK    5  A    between atoms: C_9  and  C_10 
REMARK    6  A    between atoms: N_15  and  C_14 
REMARK    7  A    between atoms: N_20  and  C_19 
REMARK       I    between atoms: C_22  and  N_20 
ROOT
ATOM      1  C   LIG d   1       3.706  85.892 111.162  0.00  0.00     0.161 C 
ATOM      2  C   LIG d   1       4.892  86.414 111.704  0.00  0.00     0.016 C 
ATOM      3  C   LIG d   1       4.932  87.565 112.525  0.00  0.00     0.038 C 
ATOM      4  C   LIG d   1       3.762  88.187 112.987  0.00  0.00     0.028 C 
ATOM      5  C   LIG d   1       2.568  87.997 112.057  0.00  0.00    -0.047 C 
ATOM      6  C   LIG d   1       2.410  86.491 111.745  0.00  0.00     0.091 C 
ENDROOT
BRANCH   1   7
ATOM      7  O   LIG d   1       3.699  84.457 111.296  0.00  0.00    -0.368 OA
BRANCH   7   8
ATOM      8  C   LIG d   1       4.153  83.707 110.142  0.00  0.00     0.119 C 
BRANCH   8   9
ATOM      9  C   LIG d   1       2.918  83.037 109.509  0.00  0.00     0.028 C 
ATOM     10  C   LIG d   1       1.877  82.614 110.560  0.00  0.00     0.006 C 
ENDBRANCH   8   9
BRANCH   8  11
ATOM     11  C   LIG d   1       5.073  82.553 110.555  0.00  0.00     0.028 C 
ATOM     12  C   LIG d   1       5.532  82.652 112.018  0.00  0.00     0.006 C 
ENDBRANCH   8  11
ENDBRANCH   7   8
ENDBRANCH   1   7
BRANCH   6  13
ATOM     13  N   LIG d   1       1.316  86.226 110.775  0.00  0.00    -0.311 N 
ATOM     14  C   LIG d   1       0.047  86.040 111.133  0.00  0.00     0.210 C 
ATOM     15  C   LIG d   1      -0.918  85.760 109.977  0.00  0.00     0.109 C 
ATOM     16  O   LIG d   1      -0.377  86.112 112.297  0.00  0.00    -0.276 OA
ATOM     17  H   LIG d   1       1.566  86.182 109.806  0.00  0.00     0.149 HD
ENDBRANCH   6  13
BRANCH   5  18
ATOM     18  N   LIG d   1       1.387  88.576 112.725  0.00  0.00     0.381 N 
ATOM     19  H   LIG d   1       1.064  87.956 113.441  0.00  0.00    -0.090 HD
ATOM     20  H   LIG d   1       0.653  88.686 112.048  0.00  0.00    -0.090 HD
ATOM     21  H   LIG d   1       1.619  89.461 113.121  0.00  0.00    -0.090 HD
ENDBRANCH   5  18
BRANCH   3  22
ATOM     22  C   LIG d   1       6.154  88.128 112.861  0.00  0.00     0.382 C 
ATOM     23  O   LIG d   1       6.779  87.715 113.868  0.00  0.00    -0.241 OA
ATOM     24  O   LIG d   1       6.617  89.073 112.196  0.00  0.00    -0.241 OA
ENDBRANCH   3  22
TORSDOF 7
ENDMDL
MODEL 3
REMARK VINA RESULT:      -5.9      9.119     11.174
REMARK  7 active torsions:
REMARK  status: ('A' for Active; 'I' for Inactive)
REMARK    1  A    between atoms: C_2  and  C_3 
REMARK    2  A    between atoms: C_3  and  O_6 
REMARK    3  A    between atoms: C_3  and  C_4 
REMARK    4  A    between atoms: C_7  and  O_6 
REMARK    5  A    between atoms: C_9  and  C_10 
REMARK    6  A    between atoms: N_15  and  C_14 
REMARK    7  A    between atoms: N_20  and  C_19 
REMARK       I    between atoms: C_22  and  N_20 
ROOT
ATOM      1  C   LIG d   1      -3.155  77.563 114.192  0.00  0.00     0.161 C 
ATOM      2  C   LIG d   1      -3.209  78.799 113.527  0.00  0.00     0.016 C 
ATOM      3  C   LIG d   1      -2.088  79.645 113.365  0.00  0.00     0.038 C 
ATOM      4  C   LIG d   1      -0.795  79.240 113.728  0.00  0.00     0.028 C 
ATOM      5  C   LIG d   1      -0.776  78.215 114.857  0.00  0.00    -0.047 C 
ATOM      6  C   LIG d   1      -1.731  77.054 114.497  0.00  0.00     0.091 C 
ENDROOT
BRANCH   1   7
ATOM      7  O   LIG d   1      -3.891  76.574 113.445  0.00  0.00    -0.368 OA
BRANCH   7   8
ATOM      8  C   LIG d   1      -5.071  76.035 114.091  0.00  0.00     0.119 C 
BRANCH   8   9
ATOM      9  C   LIG d   1      -4.971  74.499 114.033  0.00  0.00     0.028 C 
ATOM     10  C   LIG d   1      -5.725  73.817 115.187  0.00  0.00     0.006 C 
ENDBRANCH   8   9
BRANCH   8  11
ATOM     11  C   LIG d   1      -6.342  76.389 113.314  0.00  0.00     0.028 C 
ATOM     12  C   LIG d   1      -6.055  76.820 111.867  0.00  0.00     0.006 C 
ENDBRANCH   8  11
ENDBRANCH   7   8
ENDBRANCH   1   7
BRANCH   6  13
ATOM     13  N   LIG d   1      -1.836  76.048 115.586  0.00  0.00    -0.311 N 
ATOM     14  C   LIG d   1      -1.124  74.923 115.616  0.00  0.00     0.210 C 
ATOM     15  C   LIG d   1      -1.400  74.014 116.818  0.00  0.00     0.109 C 
ATOM     16  O   LIG d   1      -0.266  74.606 114.778  0.00  0.00    -0.276 OA
ATOM     17  H   LIG d   1      -2.486  76.240 116.323  0.00  0.00     0.149 HD
ENDBRANCH   6  13
BRANCH   5  18
ATOM     18  N   LIG d   1       0.622  77.778 115.039  0.00  0.00     0.381 N 
ATOM     19  H   LIG d   1       0.647  76.800 115.247  0.00  0.00    -0.090 HD
ATOM     20  H   LIG d   1       1.019  78.276 115.817  0.00  0.00    -0.090 HD
ATOM     21  H   LIG d   1       1.147  77.964 114.214  0.00  0.00    -0.090 HD
ENDBRANCH   5  18
BRANCH   3  22
ATOM     22  C   LIG d   1      -2.261  80.928 112.870  0.00  0.00     0.382 C 
ATOM     23  O   LIG d   1      -1.286  81.549 112.382  0.00  0.00    -0.241 OA
ATOM     24  O   LIG d   1      -3.370  81.490 112.947  0.00  0.00    -0.241 OA
ENDBRANCH   3  22
TORSDOF 7
ENDMDL
MODEL 4
REMARK VINA RESULT:      -5.9      3.100      5.096
REMARK  7 active torsions:
REMARK  status: ('A' for Active; 'I' for Inactive)
REMARK    1  A    between atoms: C_2  and  C_3 
REMARK    2  A    between atoms: C_3  and  O_6 
REMARK    3  A    between atoms: C_3  and  C_4 
REMARK    4  A    between atoms: C_7  and  O_6 
REMARK    5  A    between atoms: C_9  and  C_10 
REMARK    6  A    between atoms: N_15  and  C_14 
REMARK    7  A    between atoms: N_20  and  C_19 
REMARK       I    between atoms: C_22  and  N_20 
ROOT
ATOM      1  C   LIG d   1       1.493  82.988 109.777  0.00  0.00     0.161 C 
ATOM      2  C   LIG d   1       0.891  84.253 109.877  0.00  0.00     0.016 C 
ATOM      3  C   LIG d   1       0.063  84.638 110.956  0.00  0.00     0.038 C 
ATOM      4  C   LIG d   1      -0.099  83.829 112.091  0.00  0.00     0.028 C 
ATOM      5  C   LIG d   1       0.082  82.342 111.807  0.00  0.00    -0.047 C 
ATOM      6  C   LIG d   1       1.418  82.133 111.059  0.00  0.00     0.091 C 
ENDROOT
BRANCH   1   7
ATOM      7  O   LIG d   1       2.862  83.130 109.349  0.00  0.00    -0.368 OA
BRANCH   7   8
ATOM      8  C   LIG d   1       3.832  83.397 110.392  0.00  0.00     0.119 C 
BRANCH   8   9
ATOM      9  C   LIG d   1       4.260  84.871 110.259  0.00  0.00     0.028 C 
ATOM     10  C   LIG d   1       3.960  85.686 111.528  0.00  0.00     0.006 C 
ENDBRANCH   8   9
BRANCH   8  11
ATOM     11  C   LIG d   1       5.112  82.583 110.185  0.00  0.00     0.028 C 
ATOM     12  C   LIG d   1       4.862  81.258 109.446  0.00  0.00     0.006 C 
ENDBRANCH   8  11
ENDBRANCH   7   8
ENDBRANCH   1   7
BRANCH   6  13
ATOM     13  N   LIG d   1       1.633  80.715 110.668  0.00  0.00    -0.311 N 
ATOM     14  C   LIG d   1       0.769  80.019 109.932  0.00  0.00     0.210 C 
ATOM     15  C   LIG d   1       1.174  78.567 109.660  0.00  0.00     0.109 C 
ATOM     16  O   LIG d   1      -0.280  80.475 109.452  0.00  0.00    -0.276 OA
ATOM     17  H   LIG d   1       2.474  80.276 110.989  0.00  0.00     0.149 HD
ENDBRANCH   6  13
BRANCH   5  18
ATOM     18  N   LIG d   1       0.024  81.631 113.098  0.00  0.00     0.381 N 
ATOM     19  H   LIG d   1       0.688  80.883 113.103  0.00  0.00    -0.090 HD
ATOM     20  H   LIG d   1      -0.894  81.239 113.212  0.00  0.00    -0.090 HD
ATOM     21  H   LIG d   1       0.218  82.262 113.844  0.00  0.00    -0.090 HD
ENDBRANCH   5  18
BRANCH   3  22
ATOM     22  C   LIG d   1      -0.647  85.827 110.888  0.00  0.00     0.382 C 
ATOM     23  O   LIG d   1      -1.554  85.968 110.032  0.00  0.00    -0.241 OA
ATOM     24  O   LIG d   1      -0.361  86.777 111.641  0.00  0.00    -0.241 OA
ENDBRANCH   3  22
TORSDOF 7
ENDMDL
MODEL 5
REMARK VINA RESULT:      -5.7      1.837      4.768
REMARK  7 active torsions:
REMARK  status: ('A' for Active; 'I' for Inactive)
REMARK    1  A    between atoms: C_2  and  C_3 
REMARK    2  A    between atoms: C_3  and  O_6 
REMARK    3  A    between atoms: C_3  and  C_4 
REMARK    4  A    between atoms: C_7  and  O_6 
REMARK    5  A    between atoms: C_9  and  C_10 
REMARK    6  A    between atoms: N_15  and  C_14 
REMARK    7  A    between atoms: N_20  and  C_19 
REMARK       I    between atoms: C_22  and  N_20 
ROOT
ATOM      1  C   LIG d   1       4.732  86.007 111.601  0.00  0.00     0.161 C 
ATOM      2  C   LIG d   1       5.227  87.127 112.290  0.00  0.00     0.016 C 
ATOM      3  C   LIG d   1       4.404  88.174 112.765  0.00  0.00     0.038 C 
ATOM      4  C   LIG d   1       3.004  88.097 112.714  0.00  0.00     0.028 C 
ATOM      5  C   LIG d   1       2.485  87.223 111.578  0.00  0.00    -0.047 C 
ATOM      6  C   LIG d   1       3.197  85.852 111.634  0.00  0.00     0.091 C 
ENDROOT
BRANCH   1   7
ATOM      7  O   LIG d   1       5.367  84.810 112.094  0.00  0.00    -0.368 OA
BRANCH   7   8
ATOM      8  C   LIG d   1       4.661  84.099 113.140  0.00  0.00     0.119 C 
BRANCH   8   9
ATOM      9  C   LIG d   1       5.581  84.060 114.376  0.00  0.00     0.028 C 
ATOM     10  C   LIG d   1       5.242  85.161 115.394  0.00  0.00     0.006 C 
ENDBRANCH   8   9
BRANCH   8  11
ATOM     11  C   LIG d   1       4.431  82.633 112.759  0.00  0.00     0.028 C 
ATOM     12  C   LIG d   1       5.166  82.230 111.471  0.00  0.00     0.006 C 
ENDBRANCH   8  11
ENDBRANCH   7   8
ENDBRANCH   1   7
BRANCH   6  13
ATOM     13  N   LIG d   1       2.810  84.965 110.507  0.00  0.00    -0.311 N 
ATOM     14  C   LIG d   1       1.809  84.088 110.574  0.00  0.00     0.210 C 
ATOM     15  C   LIG d   1       1.591  83.258 109.305  0.00  0.00     0.109 C 
ATOM     16  O   LIG d   1       1.062  83.942 111.552  0.00  0.00    -0.276 OA
ATOM     17  H   LIG d   1       3.344  85.040 109.663  0.00  0.00     0.149 HD
ENDBRANCH   6  13
BRANCH   5  18
ATOM     18  N   LIG d   1       1.021  87.120 111.727  0.00  0.00     0.381 N 
ATOM     19  H   LIG d   1       0.576  87.855 111.214  0.00  0.00    -0.090 HD
ATOM     20  H   LIG d   1       0.785  87.225 112.698  0.00  0.00    -0.090 HD
ATOM     21  H   LIG d   1       0.706  86.235 111.394  0.00  0.00    -0.090 HD
ENDBRANCH   5  18
BRANCH   3  22
ATOM     22  C   LIG d   1       4.983  89.332 113.262  0.00  0.00     0.382 C 
ATOM     23  O   LIG d   1       4.405  89.984 114.164  0.00  0.00    -0.241 OA
ATOM     24  O   LIG d   1       6.053  89.756 112.788  0.00  0.00    -0.241 OA
ENDBRANCH   3  22
TORSDOF 7
ENDMDL
MODEL 6
REMARK VINA RESULT:      -5.3     27.197     29.318
REMARK  7 active torsions:
REMARK  status: ('A' for Active; 'I' for Inactive)
REMARK    1  A    between atoms: C_2  and  C_3 
REMARK    2  A    between atoms: C_3  and  O_6 
REMARK    3  A    between atoms: C_3  and  C_4 
REMARK    4  A    between atoms: C_7  and  O_6 
REMARK    5  A    between atoms: C_9  and  C_10 
REMARK    6  A    between atoms: N_15  and  C_14 
REMARK    7  A    between atoms: N_20  and  C_19 
REMARK       I    between atoms: C_22  and  N_20 
ROOT
ATOM      1  C   LIG d   1     -16.447  63.536 115.822  0.00  0.00     0.161 C 
ATOM      2  C   LIG d   1     -16.827  62.266 115.356  0.00  0.00     0.016 C 
ATOM      3  C   LIG d   1     -17.230  62.014 114.025  0.00  0.00     0.038 C 
ATOM      4  C   LIG d   1     -17.135  62.992 113.023  0.00  0.00     0.028 C 
ATOM      5  C   LIG d   1     -17.237  64.417 113.557  0.00  0.00    -0.047 C 
ATOM      6  C   LIG d   1     -16.230  64.591 114.717  0.00  0.00     0.091 C 
ENDROOT
BRANCH   1   7
ATOM      7  O   LIG d   1     -15.269  63.422 116.644  0.00  0.00    -0.368 OA
BRANCH   7   8
ATOM      8  C   LIG d   1     -15.463  63.623 118.066  0.00  0.00     0.119 C 
BRANCH   8   9
ATOM      9  C   LIG d   1     -14.891  65.009 118.420  0.00  0.00     0.028 C 
ATOM     10  C   LIG d   1     -15.955  65.950 119.010  0.00  0.00     0.006 C 
ENDBRANCH   8   9
BRANCH   8  11
ATOM     11  C   LIG d   1     -14.641  62.624 118.886  0.00  0.00     0.028 C 
ATOM     12  C   LIG d   1     -14.917  61.163 118.496  0.00  0.00     0.006 C 
ENDBRANCH   8  11
ENDBRANCH   7   8
ENDBRANCH   1   7
BRANCH   6  13
ATOM     13  N   LIG d   1     -16.324  65.932 115.351  0.00  0.00    -0.311 N 
ATOM     14  C   LIG d   1     -15.553  66.962 115.007  0.00  0.00     0.210 C 
ATOM     15  C   LIG d   1     -15.800  68.249 115.800  0.00  0.00     0.109 C 
ATOM     16  O   LIG d   1     -14.710  66.941 114.097  0.00  0.00    -0.276 OA
ATOM     17  H   LIG d   1     -17.004  66.046 116.078  0.00  0.00     0.149 HD
ENDBRANCH   6  13
BRANCH   5  18
ATOM     18  N   LIG d   1     -16.984  65.334 112.429  0.00  0.00     0.381 N 
ATOM     19  H   LIG d   1     -17.834  65.793 112.169  0.00  0.00    -0.090 HD
ATOM     20  H   LIG d   1     -16.660  64.800 111.642  0.00  0.00    -0.090 HD
ATOM     21  H   LIG d   1     -16.298  66.009 112.686  0.00  0.00    -0.090 HD
ENDBRANCH   5  18
BRANCH   3  22
ATOM     22  C   LIG d   1     -17.773  60.782 113.692  0.00  0.00     0.382 C 
ATOM     23  O   LIG d   1     -19.018  60.632 113.665  0.00  0.00    -0.241 OA
ATOM     24  O   LIG d   1     -17.032  59.807 113.463  0.00  0.00    -0.241 OA
ENDBRANCH   3  22
TORSDOF 7
ENDMDL
MODEL 7
REMARK VINA RESULT:      -5.1      2.646      4.317
REMARK  7 active torsions:
REMARK  status: ('A' for Active; 'I' for Inactive)
REMARK    1  A    between atoms: C_2  and  C_3 
REMARK    2  A    between atoms: C_3  and  O_6 
REMARK    3  A    between atoms: C_3  and  C_4 
REMARK    4  A    between atoms: C_7  and  O_6 
REMARK    5  A    between atoms: C_9  and  C_10 
REMARK    6  A    between atoms: N_15  and  C_14 
REMARK    7  A    between atoms: N_20  and  C_19 
REMARK       I    between atoms: C_22  and  N_20 
ROOT
ATOM      1  C   LIG d   1       2.415  84.152 111.891  0.00  0.00     0.161 C 
ATOM      2  C   LIG d   1       1.508  85.219 112.007  0.00  0.00     0.016 C 
ATOM      3  C   LIG d   1       0.147  85.126 111.637  0.00  0.00     0.038 C 
ATOM      4  C   LIG d   1      -0.439  83.907 111.264  0.00  0.00     0.028 C 
ATOM      5  C   LIG d   1       0.550  82.922 110.651  0.00  0.00    -0.047 C 
ATOM      6  C   LIG d   1       1.769  82.783 111.592  0.00  0.00     0.091 C 
ENDROOT
BRANCH   1   7
ATOM      7  O   LIG d   1       3.230  84.073 113.077  0.00  0.00    -0.368 OA
BRANCH   7   8
ATOM      8  C   LIG d   1       4.632  84.398 112.910  0.00  0.00     0.119 C 
BRANCH   8   9
ATOM      9  C   LIG d   1       5.424  83.577 113.947  0.00  0.00     0.028 C 
ATOM     10  C   LIG d   1       5.046  82.086 113.928  0.00  0.00     0.006 C 
ENDBRANCH   8   9
BRANCH   8  11
ATOM     11  C   LIG d   1       4.910  85.864 113.256  0.00  0.00     0.028 C 
ATOM     12  C   LIG d   1       5.113  86.741 112.011  0.00  0.00     0.006 C 
ENDBRANCH   8  11
ENDBRANCH   7   8
ENDBRANCH   1   7
BRANCH   6  13
ATOM     13  N   LIG d   1       2.824  81.902 111.026  0.00  0.00    -0.311 N 
ATOM     14  C   LIG d   1       3.530  82.208 109.939  0.00  0.00     0.210 C 
ATOM     15  C   LIG d   1       4.554  81.151 109.515  0.00  0.00     0.109 C 
ATOM     16  O   LIG d   1       3.428  83.270 109.306  0.00  0.00    -0.276 OA
ATOM     17  H   LIG d   1       2.994  81.035 111.497  0.00  0.00     0.149 HD
ENDBRANCH   6  13
BRANCH   5  18
ATOM     18  N   LIG d   1      -0.163  81.649 110.437  0.00  0.00     0.381 N 
ATOM     19  H   LIG d   1       0.231  80.938 111.020  0.00  0.00    -0.090 HD
ATOM     20  H   LIG d   1      -0.049  81.369 109.479  0.00  0.00    -0.090 HD
ATOM     21  H   LIG d   1      -1.131  81.761 110.646  0.00  0.00    -0.090 HD
ENDBRANCH   5  18
BRANCH   3  22
ATOM     22  C   LIG d   1      -0.635  86.271 111.599  0.00  0.00     0.382 C 
ATOM     23  O   LIG d   1      -1.866  86.182 111.378  0.00  0.00    -0.241 OA
ATOM     24  O   LIG d   1      -0.116  87.395 111.740  0.00  0.00    -0.241 OA
ENDBRANCH   3  22
TORSDOF 7
ENDMDL
MODEL 8
REMARK VINA RESULT:      -4.9     10.491     12.082
REMARK  7 active torsions:
REMARK  status: ('A' for Active; 'I' for Inactive)
REMARK    1  A    between atoms: C_2  and  C_3 
REMARK    2  A    between atoms: C_3  and  O_6 
REMARK    3  A    between atoms: C_3  and  C_4 
REMARK    4  A    between atoms: C_7  and  O_6 
REMARK    5  A    between atoms: C_9  and  C_10 
REMARK    6  A    between atoms: N_15  and  C_14 
REMARK    7  A    between atoms: N_20  and  C_19 
REMARK       I    between atoms: C_22  and  N_20 
ROOT
ATOM      1  C   LIG d   1      -3.983  77.277 115.628  0.00  0.00     0.161 C 
ATOM      2  C   LIG d   1      -4.263  76.084 114.941  0.00  0.00     0.016 C 
ATOM      3  C   LIG d   1      -5.440  75.327 115.144  0.00  0.00     0.038 C 
ATOM      4  C   LIG d   1      -6.494  75.794 115.943  0.00  0.00     0.028 C 
ATOM      5  C   LIG d   1      -6.041  76.745 117.046  0.00  0.00    -0.047 C 
ATOM      6  C   LIG d   1      -5.171  77.860 116.422  0.00  0.00     0.091 C 
ENDROOT
BRANCH   1   7
ATOM      7  O   LIG d   1      -3.464  78.259 114.711  0.00  0.00    -0.368 OA
BRANCH   7   8
ATOM      8  C   LIG d   1      -2.662  77.748 113.617  0.00  0.00     0.119 C 
BRANCH   8   9
ATOM      9  C   LIG d   1      -1.187  78.048 113.945  0.00  0.00     0.028 C 
ATOM     10  C   LIG d   1      -0.406  76.784 114.345  0.00  0.00     0.006 C 
ENDBRANCH   8   9
BRANCH   8  11
ATOM     11  C   LIG d   1      -2.949  78.503 112.316  0.00  0.00     0.028 C 
ATOM     12  C   LIG d   1      -2.138  77.968 111.125  0.00  0.00     0.006 C 
ENDBRANCH   8  11
ENDBRANCH   7   8
ENDBRANCH   1   7
BRANCH   6  13
ATOM     13  N   LIG d   1      -4.618  78.786 117.444  0.00  0.00    -0.311 N 
ATOM     14  C   LIG d   1      -5.183  79.949 117.763  0.00  0.00     0.210 C 
ATOM     15  C   LIG d   1      -4.438  80.760 118.828  0.00  0.00     0.109 C 
ATOM     16  O   LIG d   1      -6.248  80.371 117.287  0.00  0.00    -0.276 OA
ATOM     17  H   LIG d   1      -3.772  78.507 117.902  0.00  0.00     0.149 HD
ENDBRANCH   6  13
BRANCH   5  18
ATOM     18  N   LIG d   1      -7.251  77.262 117.713  0.00  0.00     0.381 N 
ATOM     19  H   LIG d   1      -8.049  77.120 117.126  0.00  0.00    -0.090 HD
ATOM     20  H   LIG d   1      -7.143  78.249 117.864  0.00  0.00    -0.090 HD
ATOM     21  H   LIG d   1      -7.385  76.798 118.585  0.00  0.00    -0.090 HD
ENDBRANCH   5  18
BRANCH   3  22
ATOM     22  C   LIG d   1      -5.554  74.068 114.574  0.00  0.00     0.382 C 
ATOM     23  O   LIG d   1      -5.948  73.099 115.267  0.00  0.00    -0.241 OA
ATOM     24  O   LIG d   1      -5.226  73.880 113.387  0.00  0.00    -0.241 OA
ENDBRANCH   3  22
TORSDOF 7
ENDMDL
MODEL 9
REMARK VINA RESULT:      -4.8      2.864      4.709
REMARK  7 active torsions:
REMARK  status: ('A' for Active; 'I' for Inactive)
REMARK    1  A    between atoms: C_2  and  C_3 
REMARK    2  A    between atoms: C_3  and  O_6 
REMARK    3  A    between atoms: C_3  and  C_4 
REMARK    4  A    between atoms: C_7  and  O_6 
REMARK    5  A    between atoms: C_9  and  C_10 
REMARK    6  A    between atoms: N_15  and  C_14 
REMARK    7  A    between atoms: N_20  and  C_19 
REMARK       I    between atoms: C_22  and  N_20 
ROOT
ATOM      1  C   LIG d   1       1.921  86.278 113.758  0.00  0.00     0.161 C 
ATOM      2  C   LIG d   1       0.759  85.621 113.320  0.00  0.00     0.016 C 
ATOM      3  C   LIG d   1       0.679  84.914 112.098  0.00  0.00     0.038 C 
ATOM      4  C   LIG d   1       1.808  84.687 111.297  0.00  0.00     0.028 C 
ATOM      5  C   LIG d   1       2.883  85.758 111.448  0.00  0.00    -0.047 C 
ATOM      6  C   LIG d   1       3.194  85.948 112.951  0.00  0.00     0.091 C 
ENDROOT
BRANCH   1   7
ATOM      7  O   LIG d   1       2.133  86.013 115.159  0.00  0.00    -0.368 OA
BRANCH   7   8
ATOM      8  C   LIG d   1       1.540  86.959 116.083  0.00  0.00     0.119 C 
BRANCH   8   9
ATOM      9  C   LIG d   1       2.649  87.936 116.519  0.00  0.00     0.028 C 
ATOM     10  C   LIG d   1       2.313  89.397 116.172  0.00  0.00     0.006 C 
ENDBRANCH   8   9
BRANCH   8  11
ATOM     11  C   LIG d   1       1.081  86.266 117.370  0.00  0.00     0.028 C 
ATOM     12  C   LIG d   1       1.050  84.735 117.244  0.00  0.00     0.006 C 
ENDBRANCH   8  11
ENDBRANCH   7   8
ENDBRANCH   1   7
BRANCH   6  13
ATOM     13  N   LIG d   1       4.175  87.038 113.193  0.00  0.00    -0.311 N 
ATOM     14  C   LIG d   1       3.929  88.319 112.926  0.00  0.00     0.210 C 
ATOM     15  C   LIG d   1       5.084  89.277 113.232  0.00  0.00     0.109 C 
ATOM     16  O   LIG d   1       2.852  88.757 112.494  0.00  0.00    -0.276 OA
ATOM     17  H   LIG d   1       5.064  86.775 113.571  0.00  0.00     0.149 HD
ENDBRANCH   6  13
BRANCH   5  18
ATOM     18  N   LIG d   1       4.056  85.326 110.665  0.00  0.00     0.381 N 
ATOM     19  H   LIG d   1       4.886  85.737 111.044  0.00  0.00    -0.090 HD
ATOM     20  H   LIG d   1       3.950  85.644 109.718  0.00  0.00    -0.090 HD
ATOM     21  H   LIG d   1       4.131  84.332 110.683  0.00  0.00    -0.090 HD
ENDBRANCH   5  18
BRANCH   3  22
ATOM     22  C   LIG d   1      -0.551  84.458 111.647  0.00  0.00     0.382 C 
ATOM     23  O   LIG d   1      -1.271  83.755 112.395  0.00  0.00    -0.241 OA
ATOM     24  O   LIG d   1      -0.929  84.706 110.486  0.00  0.00    -0.241 OA
ENDBRANCH   3  22
TORSDOF 7
ENDMDL
