MODEL 1
REMARK VINA RESULT:      -6.7      0.000      0.000
REMARK  7 active torsions:
REMARK  status: ('A' for Active; 'I' for Inactive)
REMARK    1  A    between atoms: C_2  and  C_3 
REMARK    2  A    between atoms: C_3  and  O_6 
REMARK    3  A    between atoms: C_3  and  C_4 
REMARK    4  A    between atoms: C_7  and  O_6 
REMARK    5  A    between atoms: C_9  and  C_10 
REMARK    6  A    between atoms: N_15  and  C_14 
REMARK    7  A    between atoms: N_20  and  C_19 
REMARK       I    between atoms: C_22  and  N_20 
ROOT
ATOM      1  C   LIG d   1       0.343  82.840 111.190  0.00  0.00     0.161 C 
ATOM      2  C   LIG d   1      -0.763  82.452 111.964  0.00  0.00     0.016 C 
ATOM      3  C   LIG d   1      -1.226  81.118 112.047  0.00  0.00     0.038 C 
ATOM      4  C   LIG d   1      -0.516  80.051 111.477  0.00  0.00     0.028 C 
ATOM      5  C   LIG d   1       0.321  80.456 110.269  0.00  0.00    -0.047 C 
ATOM      6  C   LIG d   1       1.196  81.672 110.650  0.00  0.00     0.091 C 
ENDROOT
BRANCH   1   7
ATOM      7  O   LIG d   1       1.166  83.757 111.938  0.00  0.00    -0.368 OA
BRANCH   7   8
ATOM      8  C   LIG d   1       1.277  85.097 111.400  0.00  0.00     0.119 C 
BRANCH   8   9
ATOM      9  C   LIG d   1       0.363  85.177 110.162  0.00  0.00     0.028 C 
ATOM     10  C   LIG d   1      -0.809  86.153 110.361  0.00  0.00     0.006 C 
ENDBRANCH   8   9
BRANCH   8  11
ATOM     11  C   LIG d   1       2.691  85.372 110.878  0.00  0.00     0.028 C 
ATOM     12  C   LIG d   1       3.774  84.623 111.669  0.00  0.00     0.006 C 
ENDBRANCH   8  11
ENDBRANCH   7   8
ENDBRANCH   1   7
BRANCH   6  13
ATOM     13  N   LIG d   1       1.984  82.186 109.500  0.00  0.00    -0.311 N 
ATOM     14  C   LIG d   1       3.245  81.830 109.258  0.00  0.00     0.210 C 
ATOM     15  C   LIG d   1       3.880  82.492 108.031  0.00  0.00     0.109 C 
ATOM     16  O   LIG d   1       3.887  81.004 109.924  0.00  0.00    -0.276 OA
ATOM     17  H   LIG d   1       1.530  82.838 108.890  0.00  0.00     0.149 HD
ENDBRANCH   6  13
BRANCH   5  18
ATOM     18  N   LIG d   1       1.112  79.281 109.860  0.00  0.00     0.381 N 
ATOM     19  H   LIG d   1       1.886  79.160 110.482  0.00  0.00    -0.090 HD
ATOM     20  H   LIG d   1       1.473  79.437 108.935  0.00  0.00    -0.090 HD
ATOM     21  H   LIG d   1       0.540  78.465 109.867  0.00  0.00    -0.090 HD
ENDBRANCH   5  18
BRANCH   3  22
ATOM     22  C   LIG d   1      -2.433  80.847 112.674  0.00  0.00     0.382 C 
ATOM     23  O   LIG d   1      -3.455  81.512 112.378  0.00  0.00    -0.241 OA
ATOM     24  O   LIG d   1      -2.502  79.977 113.562  0.00  0.00    -0.241 OA
ENDBRANCH   3  22
TORSDOF 7
ENDMDL
MODEL 2
REMARK VINA RESULT:      -6.7      1.772      4.978
REMARK  7 active torsions:
REMARK  status: ('A' for Active; 'I' for Inactive)
REMARK    1  A    between atoms: C_2  and  C_3 
REMARK    2  A    between atoms: C_3  and  O_6 
REMARK    3  A    between atoms: C_3  and  C_4 
REMARK    4  A    between atoms: C_7  and  O_6 
REMARK    5  A    between atoms: C_9  and  C_10 
REMARK    6  A    between atoms: N_15  and  C_14 
REMARK    7  A    between atoms: N_20  and  C_19 
REMARK       I    between atoms: C_22  and  N_20 
ROOT
ATOM      1  C   LIG d   1       1.335  81.614 111.950  0.00  0.00     0.161 C 
ATOM      2  C   LIG d   1       2.441  82.202 111.314  0.00  0.00     0.016 C 
ATOM      3  C   LIG d   1       2.676  82.114 109.923  0.00  0.00     0.038 C 
ATOM      4  C   LIG d   1       1.734  81.556 109.046  0.00  0.00     0.028 C 
ATOM      5  C   LIG d   1       0.844  80.505 109.701  0.00  0.00    -0.047 C 
ATOM      6  C   LIG d   1       0.239  81.096 110.995  0.00  0.00     0.091 C 
ENDROOT
BRANCH   1   7
ATOM      7  O   LIG d   1       0.773  82.536 112.904  0.00  0.00    -0.368 OA
BRANCH   7   8
ATOM      8  C   LIG d   1       0.940  83.943 112.605  0.00  0.00     0.119 C 
BRANCH   8   9
ATOM      9  C   LIG d   1       1.372  84.645 113.907  0.00  0.00     0.028 C 
ATOM     10  C   LIG d   1       0.850  86.089 113.997  0.00  0.00     0.006 C 
ENDBRANCH   8   9
BRANCH   8  11
ATOM     11  C   LIG d   1      -0.392  84.593 112.217  0.00  0.00     0.028 C 
ATOM     12  C   LIG d   1      -0.484  84.912 110.717  0.00  0.00     0.006 C 
ENDBRANCH   8  11
ENDBRANCH   7   8
ENDBRANCH   1   7
BRANCH   6  13
ATOM     13  N   LIG d   1      -0.578  80.105 111.742  0.00  0.00    -0.311 N 
ATOM     14  C   LIG d   1      -1.720  80.411 112.356  0.00  0.00     0.210 C 
ATOM     15  C   LIG d   1      -2.394  79.244 113.086  0.00  0.00     0.109 C 
ATOM     16  O   LIG d   1      -2.255  81.529 112.338  0.00  0.00    -0.276 OA
ATOM     17  H   LIG d   1      -0.233  79.166 111.781  0.00  0.00     0.149 HD
ENDBRANCH   6  13
BRANCH   5  18
ATOM     18  N   LIG d   1      -0.177  80.108 108.714  0.00  0.00     0.381 N 
ATOM     19  H   LIG d   1      -0.278  80.825 108.023  0.00  0.00    -0.090 HD
ATOM     20  H   LIG d   1      -1.058  79.997 109.184  0.00  0.00    -0.090 HD
ATOM     21  H   LIG d   1       0.085  79.251 108.277  0.00  0.00    -0.090 HD
ENDBRANCH   5  18
BRANCH   3  22
ATOM     22  C   LIG d   1       3.884  82.552 109.401  0.00  0.00     0.382 C 
ATOM     23  O   LIG d   1       4.108  82.452 108.171  0.00  0.00    -0.241 OA
ATOM     24  O   LIG d   1       4.768  83.006 110.151  0.00  0.00    -0.241 OA
ENDBRANCH   3  22
TORSDOF 7
ENDMDL
MODEL 3
REMARK VINA RESULT:      -6.5      2.567      4.630
REMARK  7 active torsions:
REMARK  status: ('A' for Active; 'I' for Inactive)
REMARK    1  A    between atoms: C_2  and  C_3 
REMARK    2  A    between atoms: C_3  and  O_6 
REMARK    3  A    between atoms: C_3  and  C_4 
REMARK    4  A    between atoms: C_7  and  O_6 
REMARK    5  A    between atoms: C_9  and  C_10 
REMARK    6  A    between atoms: N_15  and  C_14 
REMARK    7  A    between atoms: N_20  and  C_19 
REMARK       I    between atoms: C_22  and  N_20 
ROOT
ATOM      1  C   LIG d   1       2.144  83.396 112.143  0.00  0.00     0.161 C 
ATOM      2  C   LIG d   1       1.133  82.431 112.004  0.00  0.00     0.016 C 
ATOM      3  C   LIG d   1      -0.244  82.748 111.948  0.00  0.00     0.038 C 
ATOM      4  C   LIG d   1      -0.697  84.073 111.876  0.00  0.00     0.028 C 
ATOM      5  C   LIG d   1       0.255  85.075 112.521  0.00  0.00    -0.047 C 
ATOM      6  C   LIG d   1       1.675  84.855 111.954  0.00  0.00     0.091 C 
ENDROOT
BRANCH   1   7
ATOM      7  O   LIG d   1       3.231  83.099 111.245  0.00  0.00    -0.368 OA
BRANCH   7   8
ATOM      8  C   LIG d   1       2.916  82.231 110.128  0.00  0.00     0.119 C 
BRANCH   8   9
ATOM      9  C   LIG d   1       3.990  81.128 110.082  0.00  0.00     0.028 C 
ATOM     10  C   LIG d   1       3.620  79.988 109.119  0.00  0.00     0.006 C 
ENDBRANCH   8   9
BRANCH   8  11
ATOM     11  C   LIG d   1       3.039  82.973 108.794  0.00  0.00     0.028 C 
ATOM     12  C   LIG d   1       1.759  83.734 108.415  0.00  0.00     0.006 C 
ENDBRANCH   8  11
ENDBRANCH   7   8
ENDBRANCH   1   7
BRANCH   6  13
ATOM     13  N   LIG d   1       2.685  85.738 112.595  0.00  0.00    -0.311 N 
ATOM     14  C   LIG d   1       2.970  86.963 112.157  0.00  0.00     0.210 C 
ATOM     15  C   LIG d   1       4.056  87.696 112.950  0.00  0.00     0.109 C 
ATOM     16  O   LIG d   1       2.403  87.524 111.207  0.00  0.00    -0.276 OA
ATOM     17  H   LIG d   1       3.170  85.373 113.391  0.00  0.00     0.149 HD
ENDBRANCH   6  13
BRANCH   5  18
ATOM     18  N   LIG d   1      -0.272  86.427 112.253  0.00  0.00     0.381 N 
ATOM     19  H   LIG d   1       0.193  87.093 112.836  0.00  0.00    -0.090 HD
ATOM     20  H   LIG d   1      -1.252  86.443 112.474  0.00  0.00    -0.090 HD
ATOM     21  H   LIG d   1      -0.136  86.661 111.294  0.00  0.00    -0.090 HD
ENDBRANCH   5  18
BRANCH   3  22
ATOM     22  C   LIG d   1      -1.186  81.732 112.005  0.00  0.00     0.382 C 
ATOM     23  O   LIG d   1      -0.886  80.576 111.618  0.00  0.00    -0.241 OA
ATOM     24  O   LIG d   1      -2.345  81.966 112.396  0.00  0.00    -0.241 OA
ENDBRANCH   3  22
TORSDOF 7
ENDMDL
MODEL 4
REMARK VINA RESULT:      -6.5      0.546      1.751
REMARK  7 active torsions:
REMARK  status: ('A' for Active; 'I' for Inactive)
REMARK    1  A    between atoms: C_2  and  C_3 
REMARK    2  A    between atoms: C_3  and  O_6 
REMARK    3  A    between atoms: C_3  and  C_4 
REMARK    4  A    between atoms: C_7  and  O_6 
REMARK    5  A    between atoms: C_9  and  C_10 
REMARK    6  A    between atoms: N_15  and  C_14 
REMARK    7  A    between atoms: N_20  and  C_19 
REMARK       I    between atoms: C_22  and  N_20 
ROOT
ATOM      1  C   LIG d   1       0.242  82.888 111.095  0.00  0.00     0.161 C 
ATOM      2  C   LIG d   1      -0.843  82.491 111.894  0.00  0.00     0.016 C 
ATOM      3  C   LIG d   1      -1.260  81.147 112.028  0.00  0.00     0.038 C 
ATOM      4  C   LIG d   1      -0.521  80.084 111.488  0.00  0.00     0.028 C 
ATOM      5  C   LIG d   1       0.290  80.475 110.257  0.00  0.00    -0.047 C 
ATOM      6  C   LIG d   1       1.128  81.732 110.586  0.00  0.00     0.091 C 
ENDROOT
BRANCH   1   7
ATOM      7  O   LIG d   1       1.041  83.858 111.802  0.00  0.00    -0.368 OA
BRANCH   7   8
ATOM      8  C   LIG d   1       1.146  85.166 111.188  0.00  0.00     0.119 C 
BRANCH   8   9
ATOM      9  C   LIG d   1       2.642  85.449 110.955  0.00  0.00     0.028 C 
ATOM     10  C   LIG d   1       3.550  84.566 111.829  0.00  0.00     0.006 C 
ENDBRANCH   8   9
BRANCH   8  11
ATOM     11  C   LIG d   1       0.668  86.267 112.139  0.00  0.00     0.028 C 
ATOM     12  C   LIG d   1      -0.861  86.417 112.157  0.00  0.00     0.006 C 
ENDBRANCH   8  11
ENDBRANCH   7   8
ENDBRANCH   1   7
BRANCH   6  13
ATOM     13  N   LIG d   1       1.887  82.230 109.410  0.00  0.00    -0.311 N 
ATOM     14  C   LIG d   1       3.170  81.946 109.192  0.00  0.00     0.210 C 
ATOM     15  C   LIG d   1       3.767  82.579 107.931  0.00  0.00     0.109 C 
ATOM     16  O   LIG d   1       3.862  81.205 109.906  0.00  0.00    -0.276 OA
ATOM     17  H   LIG d   1       1.395  82.814 108.763  0.00  0.00     0.149 HD
ENDBRANCH   6  13
BRANCH   5  18
ATOM     18  N   LIG d   1       1.116  79.312 109.880  0.00  0.00     0.381 N 
ATOM     19  H   LIG d   1       1.107  79.198 108.887  0.00  0.00    -0.090 HD
ATOM     20  H   LIG d   1       0.724  78.486 110.297  0.00  0.00    -0.090 HD
ATOM     21  H   LIG d   1       2.051  79.441 110.198  0.00  0.00    -0.090 HD
ENDBRANCH   5  18
BRANCH   3  22
ATOM     22  C   LIG d   1      -2.451  80.858 112.677  0.00  0.00     0.382 C 
ATOM     23  O   LIG d   1      -3.480  81.532 112.428  0.00  0.00    -0.241 OA
ATOM     24  O   LIG d   1      -2.499  79.962 113.541  0.00  0.00    -0.241 OA
ENDBRANCH   3  22
TORSDOF 7
ENDMDL
MODEL 5
REMARK VINA RESULT:      -5.9      2.323      5.427
REMARK  7 active torsions:
REMARK  status: ('A' for Active; 'I' for Inactive)
REMARK    1  A    between atoms: C_2  and  C_3 
REMARK    2  A    between atoms: C_3  and  O_6 
REMARK    3  A    between atoms: C_3  and  C_4 
REMARK    4  A    between atoms: C_7  and  O_6 
REMARK    5  A    between atoms: C_9  and  C_10 
REMARK    6  A    between atoms: N_15  and  C_14 
REMARK    7  A    between atoms: N_20  and  C_19 
REMARK       I    between atoms: C_22  and  N_20 
ROOT
ATOM      1  C   LIG d   1       0.872  83.278 110.791  0.00  0.00     0.161 C 
ATOM      2  C   LIG d   1       1.126  84.652 110.639  0.00  0.00     0.016 C 
ATOM      3  C   LIG d   1       1.482  85.500 111.713  0.00  0.00     0.038 C 
ATOM      4  C   LIG d   1       1.757  85.000 112.994  0.00  0.00     0.028 C 
ATOM      5  C   LIG d   1       1.024  83.700 113.307  0.00  0.00    -0.047 C 
ATOM      6  C   LIG d   1       1.275  82.693 112.160  0.00  0.00     0.091 C 
ENDROOT
BRANCH   1   7
ATOM      7  O   LIG d   1       1.506  82.544 109.726  0.00  0.00    -0.368 OA
BRANCH   7   8
ATOM      8  C   LIG d   1       2.719  81.833 110.076  0.00  0.00     0.119 C 
BRANCH   8   9
ATOM      9  C   LIG d   1       3.897  82.569 109.408  0.00  0.00     0.028 C 
ATOM     10  C   LIG d   1       4.565  83.583 110.352  0.00  0.00     0.006 C 
ENDBRANCH   8   9
BRANCH   8  11
ATOM     11  C   LIG d   1       2.731  80.423 109.478  0.00  0.00     0.028 C 
ATOM     12  C   LIG d   1       1.331  79.936 109.073  0.00  0.00     0.006 C 
ENDBRANCH   8  11
ENDBRANCH   7   8
ENDBRANCH   1   7
BRANCH   6  13
ATOM     13  N   LIG d   1       0.525  81.424 112.346  0.00  0.00    -0.311 N 
ATOM     14  C   LIG d   1      -0.791  81.317 112.169  0.00  0.00     0.210 C 
ATOM     15  C   LIG d   1      -1.368  79.923 112.431  0.00  0.00     0.109 C 
ATOM     16  O   LIG d   1      -1.530  82.237 111.788  0.00  0.00    -0.276 OA
ATOM     17  H   LIG d   1       1.052  80.619 112.624  0.00  0.00     0.149 HD
ENDBRANCH   6  13
BRANCH   5  18
ATOM     18  N   LIG d   1       1.507  83.219 114.615  0.00  0.00     0.381 N 
ATOM     19  H   LIG d   1       0.730  82.948 115.184  0.00  0.00    -0.090 HD
ATOM     20  H   LIG d   1       1.992  83.967 115.077  0.00  0.00    -0.090 HD
ATOM     21  H   LIG d   1       2.120  82.444 114.488  0.00  0.00    -0.090 HD
ENDBRANCH   5  18
BRANCH   3  22
ATOM     22  C   LIG d   1       1.527  86.872 111.518  0.00  0.00     0.382 C 
ATOM     23  O   LIG d   1       2.623  87.437 111.286  0.00  0.00    -0.241 OA
ATOM     24  O   LIG d   1       0.492  87.559 111.616  0.00  0.00    -0.241 OA
ENDBRANCH   3  22
TORSDOF 7
ENDMDL
MODEL 6
REMARK VINA RESULT:      -5.8      3.433      6.482
REMARK  7 active torsions:
REMARK  status: ('A' for Active; 'I' for Inactive)
REMARK    1  A    between atoms: C_2  and  C_3 
REMARK    2  A    between atoms: C_3  and  O_6 
REMARK    3  A    between atoms: C_3  and  C_4 
REMARK    4  A    between atoms: C_7  and  O_6 
REMARK    5  A    between atoms: C_9  and  C_10 
REMARK    6  A    between atoms: N_15  and  C_14 
REMARK    7  A    between atoms: N_20  and  C_19 
REMARK       I    between atoms: C_22  and  N_20 
ROOT
ATOM      1  C   LIG d   1       2.905  85.513 111.726  0.00  0.00     0.161 C 
ATOM      2  C   LIG d   1       3.798  86.588 111.870  0.00  0.00     0.016 C 
ATOM      3  C   LIG d   1       3.845  87.411 113.019  0.00  0.00     0.038 C 
ATOM      4  C   LIG d   1       3.099  87.121 114.171  0.00  0.00     0.028 C 
ATOM      5  C   LIG d   1       1.818  86.346 113.883  0.00  0.00    -0.047 C 
ATOM      6  C   LIG d   1       2.160  85.113 113.017  0.00  0.00     0.091 C 
ENDROOT
BRANCH   1   7
ATOM      7  O   LIG d   1       3.594  84.376 111.171  0.00  0.00    -0.368 OA
BRANCH   7   8
ATOM      8  C   LIG d   1       3.452  84.178 109.743  0.00  0.00     0.119 C 
BRANCH   8   9
ATOM      9  C   LIG d   1       1.962  83.908 109.459  0.00  0.00     0.028 C 
ATOM     10  C   LIG d   1       1.221  85.163 108.967  0.00  0.00     0.006 C 
ENDBRANCH   8   9
BRANCH   8  11
ATOM     11  C   LIG d   1       4.189  82.918 109.279  0.00  0.00     0.028 C 
ATOM     12  C   LIG d   1       3.852  81.684 110.130  0.00  0.00     0.006 C 
ENDBRANCH   8  11
ENDBRANCH   7   8
ENDBRANCH   1   7
BRANCH   6  13
ATOM     13  N   LIG d   1       0.951  84.346 112.619  0.00  0.00    -0.311 N 
ATOM     14  C   LIG d   1       0.895  83.015 112.618  0.00  0.00     0.210 C 
ATOM     15  C   LIG d   1      -0.441  82.425 112.154  0.00  0.00     0.109 C 
ATOM     16  O   LIG d   1       1.813  82.268 112.988  0.00  0.00    -0.276 OA
ATOM     17  H   LIG d   1       0.149  84.873 112.334  0.00  0.00     0.149 HD
ENDBRANCH   6  13
BRANCH   5  18
ATOM     18  N   LIG d   1       1.211  85.991 115.180  0.00  0.00     0.381 N 
ATOM     19  H   LIG d   1       0.354  86.493 115.302  0.00  0.00    -0.090 HD
ATOM     20  H   LIG d   1       1.840  86.258 115.917  0.00  0.00    -0.090 HD
ATOM     21  H   LIG d   1       1.039  85.011 115.219  0.00  0.00    -0.090 HD
ENDBRANCH   5  18
BRANCH   3  22
ATOM     22  C   LIG d   1       4.616  88.564 113.007  0.00  0.00     0.382 C 
ATOM     23  O   LIG d   1       4.112  89.659 113.353  0.00  0.00    -0.241 OA
ATOM     24  O   LIG d   1       5.797  88.529 112.611  0.00  0.00    -0.241 OA
ENDBRANCH   3  22
TORSDOF 7
ENDMDL
MODEL 7
REMARK VINA RESULT:      -5.6      2.680      3.996
REMARK  7 active torsions:
REMARK  status: ('A' for Active; 'I' for Inactive)
REMARK    1  A    between atoms: C_2  and  C_3 
REMARK    2  A    between atoms: C_3  and  O_6 
REMARK    3  A    between atoms: C_3  and  C_4 
REMARK    4  A    between atoms: C_7  and  O_6 
REMARK    5  A    between atoms: C_9  and  C_10 
REMARK    6  A    between atoms: N_15  and  C_14 
REMARK    7  A    between atoms: N_20  and  C_19 
REMARK       I    between atoms: C_22  and  N_20 
ROOT
ATOM      1  C   LIG d   1       1.291  83.183 110.874  0.00  0.00     0.161 C 
ATOM      2  C   LIG d   1       0.874  81.957 110.329  0.00  0.00     0.016 C 
ATOM      3  C   LIG d   1       1.740  81.074 109.645  0.00  0.00     0.038 C 
ATOM      4  C   LIG d   1       3.126  81.289 109.591  0.00  0.00     0.028 C 
ATOM      5  C   LIG d   1       3.515  82.760 109.689  0.00  0.00    -0.047 C 
ATOM      6  C   LIG d   1       2.821  83.382 110.922  0.00  0.00     0.091 C 
ENDROOT
BRANCH   1   7
ATOM      7  O   LIG d   1       0.723  83.353 112.188  0.00  0.00    -0.368 OA
BRANCH   7   8
ATOM      8  C   LIG d   1      -0.290  84.380 112.316  0.00  0.00     0.119 C 
BRANCH   8   9
ATOM      9  C   LIG d   1      -0.528  84.974 110.914  0.00  0.00     0.028 C 
ATOM     10  C   LIG d   1      -0.783  86.490 110.953  0.00  0.00     0.006 C 
ENDBRANCH   8   9
BRANCH   8  11
ATOM     11  C   LIG d   1       0.206  85.549 113.172  0.00  0.00     0.028 C 
ATOM     12  C   LIG d   1       1.089  85.095 114.346  0.00  0.00     0.006 C 
ENDBRANCH   8  11
ENDBRANCH   7   8
ENDBRANCH   1   7
BRANCH   6  13
ATOM     13  N   LIG d   1       3.081  84.840 111.044  0.00  0.00    -0.311 N 
ATOM     14  C   LIG d   1       3.749  85.383 112.060  0.00  0.00     0.210 C 
ATOM     15  C   LIG d   1       3.888  86.907 112.001  0.00  0.00     0.109 C 
ATOM     16  O   LIG d   1       4.267  84.744 112.988  0.00  0.00    -0.276 OA
ATOM     17  H   LIG d   1       2.723  85.429 110.318  0.00  0.00     0.149 HD
ENDBRANCH   6  13
BRANCH   5  18
ATOM     18  N   LIG d   1       4.987  82.827 109.759  0.00  0.00     0.381 N 
ATOM     19  H   LIG d   1       5.325  83.516 109.116  0.00  0.00    -0.090 HD
ATOM     20  H   LIG d   1       5.366  81.935 109.494  0.00  0.00    -0.090 HD
ATOM     21  H   LIG d   1       5.274  83.057 110.684  0.00  0.00    -0.090 HD
ENDBRANCH   5  18
BRANCH   3  22
ATOM     22  C   LIG d   1       1.216  79.982 108.971  0.00  0.00     0.382 C 
ATOM     23  O   LIG d   1       1.910  78.947 108.819  0.00  0.00    -0.241 OA
ATOM     24  O   LIG d   1       0.075  80.033 108.475  0.00  0.00    -0.241 OA
ENDBRANCH   3  22
TORSDOF 7
ENDMDL
MODEL 8
REMARK VINA RESULT:      -5.5      3.444      5.890
REMARK  7 active torsions:
REMARK  status: ('A' for Active; 'I' for Inactive)
REMARK    1  A    between atoms: C_2  and  C_3 
REMARK    2  A    between atoms: C_3  and  O_6 
REMARK    3  A    between atoms: C_3  and  C_4 
REMARK    4  A    between atoms: C_7  and  O_6 
REMARK    5  A    between atoms: C_9  and  C_10 
REMARK    6  A    between atoms: N_15  and  C_14 
REMARK    7  A    between atoms: N_20  and  C_19 
REMARK       I    between atoms: C_22  and  N_20 
ROOT
ATOM      1  C   LIG d   1       2.237  84.477 112.560  0.00  0.00     0.161 C 
ATOM      2  C   LIG d   1       1.156  84.783 111.716  0.00  0.00     0.016 C 
ATOM      3  C   LIG d   1       0.789  86.103 111.369  0.00  0.00     0.038 C 
ATOM      4  C   LIG d   1       1.576  87.209 111.722  0.00  0.00     0.028 C 
ATOM      5  C   LIG d   1       2.391  86.991 112.993  0.00  0.00    -0.047 C 
ATOM      6  C   LIG d   1       3.174  85.664 112.865  0.00  0.00     0.091 C 
ENDROOT
BRANCH   1   7
ATOM      7  O   LIG d   1       2.986  83.374 112.013  0.00  0.00    -0.368 OA
BRANCH   7   8
ATOM      8  C   LIG d   1       2.668  83.000 110.650  0.00  0.00     0.119 C 
BRANCH   8   9
ATOM      9  C   LIG d   1       2.420  81.479 110.633  0.00  0.00     0.028 C 
ATOM     10  C   LIG d   1       0.923  81.128 110.665  0.00  0.00     0.006 C 
ENDBRANCH   8   9
BRANCH   8  11
ATOM     11  C   LIG d   1       3.860  83.227 109.717  0.00  0.00     0.028 C 
ATOM     12  C   LIG d   1       3.818  82.334 108.467  0.00  0.00     0.006 C 
ENDBRANCH   8  11
ENDBRANCH   7   8
ENDBRANCH   1   7
BRANCH   6  13
ATOM     13  N   LIG d   1       3.932  85.332 114.100  0.00  0.00    -0.311 N 
ATOM     14  C   LIG d   1       3.355  85.137 115.284  0.00  0.00     0.210 C 
ATOM     15  C   LIG d   1       4.322  84.825 116.431  0.00  0.00     0.109 C 
ATOM     16  O   LIG d   1       2.132  85.160 115.487  0.00  0.00    -0.276 OA
ATOM     17  H   LIG d   1       4.928  85.263 114.019  0.00  0.00     0.149 HD
ENDBRANCH   6  13
BRANCH   5  18
ATOM     18  N   LIG d   1       3.267  88.164 113.168  0.00  0.00     0.381 N 
ATOM     19  H   LIG d   1       2.901  88.940 112.653  0.00  0.00    -0.090 HD
ATOM     20  H   LIG d   1       4.178  87.947 112.805  0.00  0.00    -0.090 HD
ATOM     21  H   LIG d   1       3.334  88.399 114.134  0.00  0.00    -0.090 HD
ENDBRANCH   5  18
BRANCH   3  22
ATOM     22  C   LIG d   1      -0.400  86.331 110.692  0.00  0.00     0.382 C 
ATOM     23  O   LIG d   1      -1.369  86.861 111.288  0.00  0.00    -0.241 OA
ATOM     24  O   LIG d   1      -0.531  85.972 109.507  0.00  0.00    -0.241 OA
ENDBRANCH   3  22
TORSDOF 7
ENDMDL
MODEL 9
REMARK VINA RESULT:      -5.4      3.736      6.776
REMARK  7 active torsions:
REMARK  status: ('A' for Active; 'I' for Inactive)
REMARK    1  A    between atoms: C_2  and  C_3 
REMARK    2  A    between atoms: C_3  and  O_6 
REMARK    3  A    between atoms: C_3  and  C_4 
REMARK    4  A    between atoms: C_7  and  O_6 
REMARK    5  A    between atoms: C_9  and  C_10 
REMARK    6  A    between atoms: N_15  and  C_14 
REMARK    7  A    between atoms: N_20  and  C_19 
REMARK       I    between atoms: C_22  and  N_20 
ROOT
ATOM      1  C   LIG d   1       3.399  84.920 113.090  0.00  0.00     0.161 C 
ATOM      2  C   LIG d   1       3.980  86.166 113.380  0.00  0.00     0.016 C 
ATOM      3  C   LIG d   1       3.612  87.366 112.729  0.00  0.00     0.038 C 
ATOM      4  C   LIG d   1       2.524  87.427 111.846  0.00  0.00     0.028 C 
ATOM      5  C   LIG d   1       2.237  86.103 111.146  0.00  0.00    -0.047 C 
ATOM      6  C   LIG d   1       2.134  84.986 112.209  0.00  0.00     0.091 C 
ENDROOT
BRANCH   1   7
ATOM      7  O   LIG d   1       3.120  84.214 114.315  0.00  0.00    -0.368 OA
BRANCH   7   8
ATOM      8  C   LIG d   1       3.052  85.023 115.515  0.00  0.00     0.119 C 
BRANCH   8   9
ATOM      9  C   LIG d   1       3.696  84.213 116.657  0.00  0.00     0.028 C 
ATOM     10  C   LIG d   1       2.773  83.100 117.180  0.00  0.00     0.006 C 
ENDBRANCH   8   9
BRANCH   8  11
ATOM     11  C   LIG d   1       1.601  85.254 115.950  0.00  0.00     0.028 C 
ATOM     12  C   LIG d   1       1.097  86.667 115.615  0.00  0.00     0.006 C 
ENDBRANCH   8  11
ENDBRANCH   7   8
ENDBRANCH   1   7
BRANCH   6  13
ATOM     13  N   LIG d   1       1.938  83.643 111.603  0.00  0.00    -0.311 N 
ATOM     14  C   LIG d   1       0.921  82.840 111.912  0.00  0.00     0.210 C 
ATOM     15  C   LIG d   1       0.918  81.491 111.186  0.00  0.00     0.109 C 
ATOM     16  O   LIG d   1       0.003  83.131 112.694  0.00  0.00    -0.276 OA
ATOM     17  H   LIG d   1       2.620  83.340 110.934  0.00  0.00     0.149 HD
ENDBRANCH   6  13
BRANCH   5  18
ATOM     18  N   LIG d   1       0.999  86.272 110.362  0.00  0.00     0.381 N 
ATOM     19  H   LIG d   1       0.227  86.432 110.979  0.00  0.00    -0.090 HD
ATOM     20  H   LIG d   1       0.822  85.427 109.848  0.00  0.00    -0.090 HD
ATOM     21  H   LIG d   1       1.095  87.039 109.734  0.00  0.00    -0.090 HD
ENDBRANCH   5  18
BRANCH   3  22
ATOM     22  C   LIG d   1       4.362  88.515 112.931  0.00  0.00     0.382 C 
ATOM     23  O   LIG d   1       3.811  89.555 113.364  0.00  0.00    -0.241 OA
ATOM     24  O   LIG d   1       5.574  88.537 112.643  0.00  0.00    -0.241 OA
ENDBRANCH   3  22
TORSDOF 7
ENDMDL
