MODEL 1
REMARK VINA RESULT:      -5.8      0.000      0.000
REMARK  7 active torsions:
REMARK  status: ('A' for Active; 'I' for Inactive)
REMARK    1  A    between atoms: C_2  and  C_3 
REMARK    2  A    between atoms: C_3  and  O_6 
REMARK    3  A    between atoms: C_3  and  C_4 
REMARK    4  A    between atoms: C_7  and  O_6 
REMARK    5  A    between atoms: C_9  and  C_10 
REMARK    6  A    between atoms: N_15  and  C_14 
REMARK    7  A    between atoms: N_20  and  C_19 
REMARK       I    between atoms: C_22  and  N_20 
ROOT
ATOM      1  C   LIG d   1      -6.380  93.295 117.909  0.00  0.00     0.161 C 
ATOM      2  C   LIG d   1      -6.904  92.244 117.138  0.00  0.00     0.016 C 
ATOM      3  C   LIG d   1      -6.128  91.155 116.679  0.00  0.00     0.038 C 
ATOM      4  C   LIG d   1      -4.800  90.965 117.089  0.00  0.00     0.028 C 
ATOM      5  C   LIG d   1      -4.088  92.263 117.454  0.00  0.00    -0.047 C 
ATOM      6  C   LIG d   1      -4.960  93.049 118.459  0.00  0.00     0.091 C 
ENDROOT
BRANCH   1   7
ATOM      7  O   LIG d   1      -7.286  93.611 118.984  0.00  0.00    -0.368 OA
BRANCH   7   8
ATOM      8  C   LIG d   1      -8.252  94.658 118.717  0.00  0.00     0.119 C 
BRANCH   8   9
ATOM      9  C   LIG d   1      -7.467  95.914 118.290  0.00  0.00     0.028 C 
ATOM     10  C   LIG d   1      -8.315  97.194 118.379  0.00  0.00     0.006 C 
ENDBRANCH   8   9
BRANCH   8  11
ATOM     11  C   LIG d   1      -9.002  95.062 119.990  0.00  0.00     0.028 C 
ATOM     12  C   LIG d   1     -10.291  94.252 120.204  0.00  0.00     0.006 C 
ENDBRANCH   8  11
ENDBRANCH   7   8
ENDBRANCH   1   7
BRANCH   6  13
ATOM     13  N   LIG d   1      -4.375  94.371 118.804  0.00  0.00    -0.311 N 
ATOM     14  C   LIG d   1      -4.232  94.805 120.055  0.00  0.00     0.210 C 
ATOM     15  C   LIG d   1      -3.626  96.206 120.188  0.00  0.00     0.109 C 
ATOM     16  O   LIG d   1      -4.520  94.151 121.068  0.00  0.00    -0.276 OA
ATOM     17  H   LIG d   1      -4.086  94.954 118.044  0.00  0.00     0.149 HD
ENDBRANCH   6  13
BRANCH   5  18
ATOM     18  N   LIG d   1      -2.762  91.907 117.994  0.00  0.00     0.381 N 
ATOM     19  H   LIG d   1      -2.870  91.349 118.817  0.00  0.00    -0.090 HD
ATOM     20  H   LIG d   1      -2.276  92.750 118.245  0.00  0.00    -0.090 HD
ATOM     21  H   LIG d   1      -2.239  91.405 117.310  0.00  0.00    -0.090 HD
ENDBRANCH   5  18
BRANCH   3  22
ATOM     22  C   LIG d   1      -6.670  90.262 115.767  0.00  0.00     0.382 C 
ATOM     23  O   LIG d   1      -7.748  89.675 116.028  0.00  0.00    -0.241 OA
ATOM     24  O   LIG d   1      -6.071  90.002 114.705  0.00  0.00    -0.241 OA
ENDBRANCH   3  22
TORSDOF 7
ENDMDL
MODEL 2
REMARK VINA RESULT:      -5.7     16.681     19.310
REMARK  7 active torsions:
REMARK  status: ('A' for Active; 'I' for Inactive)
REMARK    1  A    between atoms: C_2  and  C_3 
REMARK    2  A    between atoms: C_3  and  O_6 
REMARK    3  A    between atoms: C_3  and  C_4 
REMARK    4  A    between atoms: C_7  and  O_6 
REMARK    5  A    between atoms: C_9  and  C_10 
REMARK    6  A    between atoms: N_15  and  C_14 
REMARK    7  A    between atoms: N_20  and  C_19 
REMARK       I    between atoms: C_22  and  N_20 
ROOT
ATOM      1  C   LIG d   1      -7.662  74.458 118.818  0.00  0.00     0.161 C 
ATOM      2  C   LIG d   1      -8.929  74.974 119.138  0.00  0.00     0.016 C 
ATOM      3  C   LIG d   1      -9.379  76.247 118.719  0.00  0.00     0.038 C 
ATOM      4  C   LIG d   1      -8.646  77.034 117.819  0.00  0.00     0.028 C 
ATOM      5  C   LIG d   1      -7.144  76.775 117.873  0.00  0.00    -0.047 C 
ATOM      6  C   LIG d   1      -6.892  75.255 117.744  0.00  0.00     0.091 C 
ENDROOT
BRANCH   1   7
ATOM      7  O   LIG d   1      -7.782  73.076 118.426  0.00  0.00    -0.368 OA
BRANCH   7   8
ATOM      8  C   LIG d   1      -8.550  72.818 117.225  0.00  0.00     0.119 C 
BRANCH   8   9
ATOM      9  C   LIG d   1      -9.345  71.519 117.454  0.00  0.00     0.028 C 
ATOM     10  C   LIG d   1      -9.306  71.057 118.921  0.00  0.00     0.006 C 
ENDBRANCH   8   9
BRANCH   8  11
ATOM     11  C   LIG d   1      -7.636  72.529 116.030  0.00  0.00     0.028 C 
ATOM     12  C   LIG d   1      -6.626  71.406 116.311  0.00  0.00     0.006 C 
ENDBRANCH   8  11
ENDBRANCH   7   8
ENDBRANCH   1   7
BRANCH   6  13
ATOM     13  N   LIG d   1      -5.452  74.907 117.872  0.00  0.00    -0.311 N 
ATOM     14  C   LIG d   1      -4.646  74.727 116.827  0.00  0.00     0.210 C 
ATOM     15  C   LIG d   1      -3.203  74.354 117.181  0.00  0.00     0.109 C 
ATOM     16  O   LIG d   1      -4.981  74.874 115.642  0.00  0.00    -0.276 OA
ATOM     17  H   LIG d   1      -5.090  74.799 118.799  0.00  0.00     0.149 HD
ENDBRANCH   6  13
BRANCH   5  18
ATOM     18  N   LIG d   1      -6.517  77.558 116.791  0.00  0.00     0.381 N 
ATOM     19  H   LIG d   1      -6.236  78.453 117.140  0.00  0.00    -0.090 HD
ATOM     20  H   LIG d   1      -7.193  77.702 116.061  0.00  0.00    -0.090 HD
ATOM     21  H   LIG d   1      -5.727  77.070 116.431  0.00  0.00    -0.090 HD
ENDBRANCH   5  18
BRANCH   3  22
ATOM     22  C   LIG d   1     -10.559  76.762 119.234  0.00  0.00     0.382 C 
ATOM     23  O   LIG d   1     -10.856  76.566 120.437  0.00  0.00    -0.241 OA
ATOM     24  O   LIG d   1     -11.351  77.382 118.499  0.00  0.00    -0.241 OA
ENDBRANCH   3  22
TORSDOF 7
ENDMDL
MODEL 3
REMARK VINA RESULT:      -5.6     14.684     17.785
REMARK  7 active torsions:
REMARK  status: ('A' for Active; 'I' for Inactive)
REMARK    1  A    between atoms: C_2  and  C_3 
REMARK    2  A    between atoms: C_3  and  O_6 
REMARK    3  A    between atoms: C_3  and  C_4 
REMARK    4  A    between atoms: C_7  and  O_6 
REMARK    5  A    between atoms: C_9  and  C_10 
REMARK    6  A    between atoms: N_15  and  C_14 
REMARK    7  A    between atoms: N_20  and  C_19 
REMARK       I    between atoms: C_22  and  N_20 
ROOT
ATOM      1  C   LIG d   1      -7.544  76.089 117.621  0.00  0.00     0.161 C 
ATOM      2  C   LIG d   1      -8.800  76.608 117.975  0.00  0.00     0.016 C 
ATOM      3  C   LIG d   1      -9.055  77.990 118.134  0.00  0.00     0.038 C 
ATOM      4  C   LIG d   1      -8.101  78.963 117.800  0.00  0.00     0.028 C 
ATOM      5  C   LIG d   1      -6.664  78.469 117.922  0.00  0.00    -0.047 C 
ATOM      6  C   LIG d   1      -6.521  77.141 117.144  0.00  0.00     0.091 C 
ENDROOT
BRANCH   1   7
ATOM      7  O   LIG d   1      -7.704  75.059 116.626  0.00  0.00    -0.368 OA
BRANCH   7   8
ATOM      8  C   LIG d   1      -7.556  73.695 117.092  0.00  0.00     0.119 C 
BRANCH   8   9
ATOM      9  C   LIG d   1      -6.750  72.927 116.026  0.00  0.00     0.028 C 
ATOM     10  C   LIG d   1      -6.788  71.405 116.245  0.00  0.00     0.006 C 
ENDBRANCH   8   9
BRANCH   8  11
ATOM     11  C   LIG d   1      -8.909  72.982 117.168  0.00  0.00     0.028 C 
ATOM     12  C   LIG d   1      -9.376  72.743 118.613  0.00  0.00     0.006 C 
ENDBRANCH   8  11
ENDBRANCH   7   8
ENDBRANCH   1   7
BRANCH   6  13
ATOM     13  N   LIG d   1      -5.166  76.546 117.282  0.00  0.00    -0.311 N 
ATOM     14  C   LIG d   1      -4.186  76.742 116.401  0.00  0.00     0.210 C 
ATOM     15  C   LIG d   1      -2.874  76.020 116.723  0.00  0.00     0.109 C 
ATOM     16  O   LIG d   1      -4.269  77.471 115.402  0.00  0.00    -0.276 OA
ATOM     17  H   LIG d   1      -5.002  75.966 118.081  0.00  0.00     0.149 HD
ENDBRANCH   6  13
BRANCH   5  18
ATOM     18  N   LIG d   1      -5.781  79.536 117.413  0.00  0.00     0.381 N 
ATOM     19  H   LIG d   1      -4.924  79.138 117.085  0.00  0.00    -0.090 HD
ATOM     20  H   LIG d   1      -5.569  80.169 118.164  0.00  0.00    -0.090 HD
ATOM     21  H   LIG d   1      -6.232  80.027 116.673  0.00  0.00    -0.090 HD
ENDBRANCH   5  18
BRANCH   3  22
ATOM     22  C   LIG d   1     -10.263  78.409 118.671  0.00  0.00     0.382 C 
ATOM     23  O   LIG d   1     -11.244  77.627 118.694  0.00  0.00    -0.241 OA
ATOM     24  O   LIG d   1     -10.397  79.573 119.092  0.00  0.00    -0.241 OA
ENDBRANCH   3  22
TORSDOF 7
ENDMDL
MODEL 4
REMARK VINA RESULT:      -5.6     15.279     18.299
REMARK  7 active torsions:
REMARK  status: ('A' for Active; 'I' for Inactive)
REMARK    1  A    between atoms: C_2  and  C_3 
REMARK    2  A    between atoms: C_3  and  O_6 
REMARK    3  A    between atoms: C_3  and  C_4 
REMARK    4  A    between atoms: C_7  and  O_6 
REMARK    5  A    between atoms: C_9  and  C_10 
REMARK    6  A    between atoms: N_15  and  C_14 
REMARK    7  A    between atoms: N_20  and  C_19 
REMARK       I    between atoms: C_22  and  N_20 
ROOT
ATOM      1  C   LIG d   1      -8.718  75.799 118.460  0.00  0.00     0.161 C 
ATOM      2  C   LIG d   1      -9.868  76.225 119.146  0.00  0.00     0.016 C 
ATOM      3  C   LIG d   1     -10.203  77.586 119.332  0.00  0.00     0.038 C 
ATOM      4  C   LIG d   1      -9.486  78.618 118.710  0.00  0.00     0.028 C 
ATOM      5  C   LIG d   1      -8.031  78.260 118.428  0.00  0.00    -0.047 C 
ATOM      6  C   LIG d   1      -7.983  76.908 117.679  0.00  0.00     0.091 C 
ENDROOT
BRANCH   1   7
ATOM      7  O   LIG d   1      -9.050  74.705 117.583  0.00  0.00    -0.368 OA
BRANCH   7   8
ATOM      8  C   LIG d   1      -8.435  73.430 117.894  0.00  0.00     0.119 C 
BRANCH   8   9
ATOM      9  C   LIG d   1      -8.236  72.676 116.565  0.00  0.00     0.028 C 
ATOM     10  C   LIG d   1      -6.757  72.600 116.149  0.00  0.00     0.006 C 
ENDBRANCH   8   9
BRANCH   8  11
ATOM     11  C   LIG d   1      -9.371  72.548 118.725  0.00  0.00     0.028 C 
ATOM     12  C   LIG d   1      -9.233  71.053 118.392  0.00  0.00     0.006 C 
ENDBRANCH   8  11
ENDBRANCH   7   8
ENDBRANCH   1   7
BRANCH   6  13
ATOM     13  N   LIG d   1      -6.592  76.443 117.439  0.00  0.00    -0.311 N 
ATOM     14  C   LIG d   1      -6.078  76.265 116.223  0.00  0.00     0.210 C 
ATOM     15  C   LIG d   1      -4.632  75.760 116.199  0.00  0.00     0.109 C 
ATOM     16  O   LIG d   1      -6.673  76.507 115.162  0.00  0.00    -0.276 OA
ATOM     17  H   LIG d   1      -6.029  76.252 118.245  0.00  0.00     0.149 HD
ENDBRANCH   6  13
BRANCH   5  18
ATOM     18  N   LIG d   1      -7.440  79.370 117.656  0.00  0.00     0.381 N 
ATOM     19  H   LIG d   1      -7.794  80.243 117.992  0.00  0.00    -0.090 HD
ATOM     20  H   LIG d   1      -7.705  79.272 116.692  0.00  0.00    -0.090 HD
ATOM     21  H   LIG d   1      -6.447  79.352 117.738  0.00  0.00    -0.090 HD
ENDBRANCH   5  18
BRANCH   3  22
ATOM     22  C   LIG d   1     -11.245  77.927 120.181  0.00  0.00     0.382 C 
ATOM     23  O   LIG d   1     -12.085  77.060 120.522  0.00  0.00    -0.241 OA
ATOM     24  O   LIG d   1     -11.381  79.101 120.575  0.00  0.00    -0.241 OA
ENDBRANCH   3  22
TORSDOF 7
ENDMDL
MODEL 5
REMARK VINA RESULT:      -5.5      2.508      5.029
REMARK  7 active torsions:
REMARK  status: ('A' for Active; 'I' for Inactive)
REMARK    1  A    between atoms: C_2  and  C_3 
REMARK    2  A    between atoms: C_3  and  O_6 
REMARK    3  A    between atoms: C_3  and  C_4 
REMARK    4  A    between atoms: C_7  and  O_6 
REMARK    5  A    between atoms: C_9  and  C_10 
REMARK    6  A    between atoms: N_15  and  C_14 
REMARK    7  A    between atoms: N_20  and  C_19 
REMARK       I    between atoms: C_22  and  N_20 
ROOT
ATOM      1  C   LIG d   1      -4.002  91.593 118.201  0.00  0.00     0.161 C 
ATOM      2  C   LIG d   1      -4.595  90.797 117.207  0.00  0.00     0.016 C 
ATOM      3  C   LIG d   1      -5.789  91.151 116.537  0.00  0.00     0.038 C 
ATOM      4  C   LIG d   1      -6.393  92.405 116.711  0.00  0.00     0.028 C 
ATOM      5  C   LIG d   1      -6.111  93.030 118.073  0.00  0.00    -0.047 C 
ATOM      6  C   LIG d   1      -4.586  93.016 118.324  0.00  0.00     0.091 C 
ENDROOT
BRANCH   1   7
ATOM      7  O   LIG d   1      -2.577  91.653 117.992  0.00  0.00    -0.368 OA
BRANCH   7   8
ATOM      8  C   LIG d   1      -1.754  91.128 119.063  0.00  0.00     0.119 C 
BRANCH   8   9
ATOM      9  C   LIG d   1      -0.446  91.944 119.084  0.00  0.00     0.028 C 
ATOM     10  C   LIG d   1      -0.362  92.947 117.922  0.00  0.00     0.006 C 
ENDBRANCH   8   9
BRANCH   8  11
ATOM     11  C   LIG d   1      -1.327  89.684 118.782  0.00  0.00     0.028 C 
ATOM     12  C   LIG d   1      -1.105  89.409 117.286  0.00  0.00     0.006 C 
ENDBRANCH   8  11
ENDBRANCH   7   8
ENDBRANCH   1   7
BRANCH   6  13
ATOM     13  N   LIG d   1      -4.228  93.533 119.671  0.00  0.00    -0.311 N 
ATOM     14  C   LIG d   1      -3.370  94.532 119.869  0.00  0.00     0.210 C 
ATOM     15  C   LIG d   1      -3.128  94.896 121.337  0.00  0.00     0.109 C 
ATOM     16  O   LIG d   1      -2.810  95.172 118.966  0.00  0.00    -0.276 OA
ATOM     17  H   LIG d   1      -4.661  93.092 120.459  0.00  0.00     0.149 HD
ENDBRANCH   6  13
BRANCH   5  18
ATOM     18  N   LIG d   1      -6.683  94.390 118.066  0.00  0.00     0.381 N 
ATOM     19  H   LIG d   1      -5.949  95.066 118.128  0.00  0.00    -0.090 HD
ATOM     20  H   LIG d   1      -7.278  94.495 118.869  0.00  0.00    -0.090 HD
ATOM     21  H   LIG d   1      -7.209  94.534 117.233  0.00  0.00    -0.090 HD
ENDBRANCH   5  18
BRANCH   3  22
ATOM     22  C   LIG d   1      -6.414  90.228 115.712  0.00  0.00     0.382 C 
ATOM     23  O   LIG d   1      -5.857  89.859 114.650  0.00  0.00    -0.241 OA
ATOM     24  O   LIG d   1      -7.546  89.792 115.994  0.00  0.00    -0.241 OA
ENDBRANCH   3  22
TORSDOF 7
ENDMDL
MODEL 6
REMARK VINA RESULT:      -5.5     14.615     17.934
REMARK  7 active torsions:
REMARK  status: ('A' for Active; 'I' for Inactive)
REMARK    1  A    between atoms: C_2  and  C_3 
REMARK    2  A    between atoms: C_3  and  O_6 
REMARK    3  A    between atoms: C_3  and  C_4 
REMARK    4  A    between atoms: C_7  and  O_6 
REMARK    5  A    between atoms: C_9  and  C_10 
REMARK    6  A    between atoms: N_15  and  C_14 
REMARK    7  A    between atoms: N_20  and  C_19 
REMARK       I    between atoms: C_22  and  N_20 
ROOT
ATOM      1  C   LIG d   1      -7.302  76.118 117.577  0.00  0.00     0.161 C 
ATOM      2  C   LIG d   1      -8.404  76.943 117.854  0.00  0.00     0.016 C 
ATOM      3  C   LIG d   1      -8.318  78.351 117.951  0.00  0.00     0.038 C 
ATOM      4  C   LIG d   1      -7.143  79.046 117.626  0.00  0.00     0.028 C 
ATOM      5  C   LIG d   1      -5.876  78.223 117.833  0.00  0.00    -0.047 C 
ATOM      6  C   LIG d   1      -6.035  76.866 117.110  0.00  0.00     0.091 C 
ENDROOT
BRANCH   1   7
ATOM      7  O   LIG d   1      -7.674  75.113 116.613  0.00  0.00    -0.368 OA
BRANCH   7   8
ATOM      8  C   LIG d   1      -7.608  73.739 117.068  0.00  0.00     0.119 C 
BRANCH   8   9
ATOM      9  C   LIG d   1      -6.905  72.920 115.968  0.00  0.00     0.028 C 
ATOM     10  C   LIG d   1      -6.846  71.420 116.301  0.00  0.00     0.006 C 
ENDBRANCH   8   9
BRANCH   8  11
ATOM     11  C   LIG d   1      -9.007  73.127 117.198  0.00  0.00     0.028 C 
ATOM     12  C   LIG d   1      -9.360  72.750 118.645  0.00  0.00     0.006 C 
ENDBRANCH   8  11
ENDBRANCH   7   8
ENDBRANCH   1   7
BRANCH   6  13
ATOM     13  N   LIG d   1      -4.874  75.966 117.332  0.00  0.00    -0.311 N 
ATOM     14  C   LIG d   1      -4.180  75.407 116.342  0.00  0.00     0.210 C 
ATOM     15  C   LIG d   1      -3.033  74.496 116.790  0.00  0.00     0.109 C 
ATOM     16  O   LIG d   1      -4.384  75.605 115.135  0.00  0.00    -0.276 OA
ATOM     17  H   LIG d   1      -4.619  75.775 118.281  0.00  0.00     0.149 HD
ENDBRANCH   6  13
BRANCH   5  18
ATOM     18  N   LIG d   1      -4.741  79.018 117.327  0.00  0.00     0.381 N 
ATOM     19  H   LIG d   1      -5.056  79.930 117.065  0.00  0.00    -0.090 HD
ATOM     20  H   LIG d   1      -4.367  78.567 116.510  0.00  0.00    -0.090 HD
ATOM     21  H   LIG d   1      -4.036  79.090 118.027  0.00  0.00    -0.090 HD
ENDBRANCH   5  18
BRANCH   3  22
ATOM     22  C   LIG d   1      -9.404  79.076 118.416  0.00  0.00     0.382 C 
ATOM     23  O   LIG d   1      -9.222  80.154 119.031  0.00  0.00    -0.241 OA
ATOM     24  O   LIG d   1     -10.563  78.644 118.266  0.00  0.00    -0.241 OA
ENDBRANCH   3  22
TORSDOF 7
ENDMDL
MODEL 7
REMARK VINA RESULT:      -5.5     16.096     18.299
REMARK  7 active torsions:
REMARK  status: ('A' for Active; 'I' for Inactive)
REMARK    1  A    between atoms: C_2  and  C_3 
REMARK    2  A    between atoms: C_3  and  O_6 
REMARK    3  A    between atoms: C_3  and  C_4 
REMARK    4  A    between atoms: C_7  and  O_6 
REMARK    5  A    between atoms: C_9  and  C_10 
REMARK    6  A    between atoms: N_15  and  C_14 
REMARK    7  A    between atoms: N_20  and  C_19 
REMARK       I    between atoms: C_22  and  N_20 
ROOT
ATOM      1  C   LIG d   1      -8.056  75.981 116.231  0.00  0.00     0.161 C 
ATOM      2  C   LIG d   1      -6.893  75.752 115.477  0.00  0.00     0.016 C 
ATOM      3  C   LIG d   1      -5.621  76.251 115.838  0.00  0.00     0.038 C 
ATOM      4  C   LIG d   1      -5.396  76.891 117.066  0.00  0.00     0.028 C 
ATOM      5  C   LIG d   1      -6.635  77.585 117.623  0.00  0.00    -0.047 C 
ATOM      6  C   LIG d   1      -7.811  76.582 117.631  0.00  0.00     0.091 C 
ENDROOT
BRANCH   1   7
ATOM      7  O   LIG d   1      -8.819  74.762 116.336  0.00  0.00    -0.368 OA
BRANCH   7   8
ATOM      8  C   LIG d   1      -8.291  73.755 117.234  0.00  0.00     0.119 C 
BRANCH   8   9
ATOM      9  C   LIG d   1      -7.907  72.530 116.382  0.00  0.00     0.028 C 
ATOM     10  C   LIG d   1      -6.388  72.286 116.357  0.00  0.00     0.006 C 
ENDBRANCH   8   9
BRANCH   8  11
ATOM     11  C   LIG d   1      -9.366  73.254 118.202  0.00  0.00     0.028 C 
ATOM     12  C   LIG d   1      -9.161  71.788 118.614  0.00  0.00     0.006 C 
ENDBRANCH   8  11
ENDBRANCH   7   8
ENDBRANCH   1   7
BRANCH   6  13
ATOM     13  N   LIG d   1      -9.083  77.204 118.083  0.00  0.00    -0.311 N 
ATOM     14  C   LIG d   1      -9.677  76.903 119.236  0.00  0.00     0.210 C 
ATOM     15  C   LIG d   1     -10.992  77.645 119.499  0.00  0.00     0.109 C 
ATOM     16  O   LIG d   1      -9.224  76.116 120.081  0.00  0.00    -0.276 OA
ATOM     17  H   LIG d   1      -9.504  77.877 117.472  0.00  0.00     0.149 HD
ENDBRANCH   6  13
BRANCH   5  18
ATOM     18  N   LIG d   1      -6.296  78.090 118.967  0.00  0.00     0.381 N 
ATOM     19  H   LIG d   1      -5.318  78.292 119.016  0.00  0.00    -0.090 HD
ATOM     20  H   LIG d   1      -6.506  77.378 119.644  0.00  0.00    -0.090 HD
ATOM     21  H   LIG d   1      -6.823  78.913 119.164  0.00  0.00    -0.090 HD
ENDBRANCH   5  18
BRANCH   3  22
ATOM     22  C   LIG d   1      -4.563  76.147 114.947  0.00  0.00     0.382 C 
ATOM     23  O   LIG d   1      -4.175  75.018 114.564  0.00  0.00    -0.241 OA
ATOM     24  O   LIG d   1      -3.965  77.167 114.556  0.00  0.00    -0.241 OA
ENDBRANCH   3  22
TORSDOF 7
ENDMDL
MODEL 8
REMARK VINA RESULT:      -5.4     16.023     19.072
REMARK  7 active torsions:
REMARK  status: ('A' for Active; 'I' for Inactive)
REMARK    1  A    between atoms: C_2  and  C_3 
REMARK    2  A    between atoms: C_3  and  O_6 
REMARK    3  A    between atoms: C_3  and  C_4 
REMARK    4  A    between atoms: C_7  and  O_6 
REMARK    5  A    between atoms: C_9  and  C_10 
REMARK    6  A    between atoms: N_15  and  C_14 
REMARK    7  A    between atoms: N_20  and  C_19 
REMARK       I    between atoms: C_22  and  N_20 
ROOT
ATOM      1  C   LIG d   1      -6.342  74.668 118.229  0.00  0.00     0.161 C 
ATOM      2  C   LIG d   1      -6.487  73.325 117.842  0.00  0.00     0.016 C 
ATOM      3  C   LIG d   1      -7.639  72.821 117.198  0.00  0.00     0.038 C 
ATOM      4  C   LIG d   1      -8.671  73.663 116.757  0.00  0.00     0.028 C 
ATOM      5  C   LIG d   1      -8.796  74.945 117.573  0.00  0.00    -0.047 C 
ATOM      6  C   LIG d   1      -7.410  75.624 117.657  0.00  0.00     0.091 C 
ENDROOT
BRANCH   1   7
ATOM      7  O   LIG d   1      -5.021  75.134 117.891  0.00  0.00    -0.368 OA
BRANCH   7   8
ATOM      8  C   LIG d   1      -4.343  74.416 116.831  0.00  0.00     0.119 C 
BRANCH   8   9
ATOM      9  C   LIG d   1      -2.852  74.327 117.212  0.00  0.00     0.028 C 
ATOM     10  C   LIG d   1      -1.924  74.677 116.037  0.00  0.00     0.006 C 
ENDBRANCH   8   9
BRANCH   8  11
ATOM     11  C   LIG d   1      -4.379  75.200 115.516  0.00  0.00     0.028 C 
ATOM     12  C   LIG d   1      -5.471  74.702 114.556  0.00  0.00     0.006 C 
ENDBRANCH   8  11
ENDBRANCH   7   8
ENDBRANCH   1   7
BRANCH   6  13
ATOM     13  N   LIG d   1      -7.426  76.842 118.509  0.00  0.00    -0.311 N 
ATOM     14  C   LIG d   1      -6.983  78.029 118.099  0.00  0.00     0.210 C 
ATOM     15  C   LIG d   1      -7.072  79.148 119.142  0.00  0.00     0.109 C 
ATOM     16  O   LIG d   1      -6.556  78.270 116.960  0.00  0.00    -0.276 OA
ATOM     17  H   LIG d   1      -7.786  76.744 119.438  0.00  0.00     0.149 HD
ENDBRANCH   6  13
BRANCH   5  18
ATOM     18  N   LIG d   1      -9.816  75.790 116.923  0.00  0.00     0.381 N 
ATOM     19  H   LIG d   1      -9.497  76.068 116.016  0.00  0.00    -0.090 HD
ATOM     20  H   LIG d   1      -9.953  76.617 117.476  0.00  0.00    -0.090 HD
ATOM     21  H   LIG d   1     -10.673  75.289 116.842  0.00  0.00    -0.090 HD
ENDBRANCH   5  18
BRANCH   3  22
ATOM     22  C   LIG d   1      -7.786  71.453 117.023  0.00  0.00     0.382 C 
ATOM     23  O   LIG d   1      -6.938  70.811 116.358  0.00  0.00    -0.241 OA
ATOM     24  O   LIG d   1      -8.779  70.860 117.486  0.00  0.00    -0.241 OA
ENDBRANCH   3  22
TORSDOF 7
ENDMDL
MODEL 9
REMARK VINA RESULT:      -5.2     15.176     18.200
REMARK  7 active torsions:
REMARK  status: ('A' for Active; 'I' for Inactive)
REMARK    1  A    between atoms: C_2  and  C_3 
REMARK    2  A    between atoms: C_3  and  O_6 
REMARK    3  A    between atoms: C_3  and  C_4 
REMARK    4  A    between atoms: C_7  and  O_6 
REMARK    5  A    between atoms: C_9  and  C_10 
REMARK    6  A    between atoms: N_15  and  C_14 
REMARK    7  A    between atoms: N_20  and  C_19 
REMARK       I    between atoms: C_22  and  N_20 
ROOT
ATOM      1  C   LIG d   1      -6.159  75.841 116.037  0.00  0.00     0.161 C 
ATOM      2  C   LIG d   1      -5.027  75.056 115.762  0.00  0.00     0.016 C 
ATOM      3  C   LIG d   1      -3.873  75.041 116.579  0.00  0.00     0.038 C 
ATOM      4  C   LIG d   1      -3.832  75.700 117.817  0.00  0.00     0.028 C 
ATOM      5  C   LIG d   1      -4.761  76.907 117.891  0.00  0.00    -0.047 C 
ATOM      6  C   LIG d   1      -6.177  76.480 117.442  0.00  0.00     0.091 C 
ENDROOT
BRANCH   1   7
ATOM      7  O   LIG d   1      -7.355  75.065 115.825  0.00  0.00    -0.368 OA
BRANCH   7   8
ATOM      8  C   LIG d   1      -7.712  74.142 116.884  0.00  0.00     0.119 C 
BRANCH   8   9
ATOM      9  C   LIG d   1      -7.806  72.736 116.260  0.00  0.00     0.028 C 
ATOM     10  C   LIG d   1      -6.613  71.844 116.642  0.00  0.00     0.006 C 
ENDBRANCH   8   9
BRANCH   8  11
ATOM     11  C   LIG d   1      -9.112  74.438 117.431  0.00  0.00     0.028 C 
ATOM     12  C   LIG d   1      -9.899  75.423 116.553  0.00  0.00     0.006 C 
ENDBRANCH   8  11
ENDBRANCH   7   8
ENDBRANCH   1   7
BRANCH   6  13
ATOM     13  N   LIG d   1      -7.128  77.621 117.405  0.00  0.00    -0.311 N 
ATOM     14  C   LIG d   1      -7.934  77.937 118.417  0.00  0.00     0.210 C 
ATOM     15  C   LIG d   1      -8.850  79.138 118.164  0.00  0.00     0.109 C 
ATOM     16  O   LIG d   1      -7.954  77.356 119.513  0.00  0.00    -0.276 OA
ATOM     17  H   LIG d   1      -7.155  78.165 116.565  0.00  0.00     0.149 HD
ENDBRANCH   6  13
BRANCH   5  18
ATOM     18  N   LIG d   1      -4.722  77.414 119.276  0.00  0.00     0.381 N 
ATOM     19  H   LIG d   1      -4.195  76.788 119.852  0.00  0.00    -0.090 HD
ATOM     20  H   LIG d   1      -5.661  77.456 119.633  0.00  0.00    -0.090 HD
ATOM     21  H   LIG d   1      -4.310  78.321 119.296  0.00  0.00    -0.090 HD
ENDBRANCH   5  18
BRANCH   3  22
ATOM     22  C   LIG d   1      -2.728  74.394 116.139  0.00  0.00     0.382 C 
ATOM     23  O   LIG d   1      -2.022  73.748 116.951  0.00  0.00    -0.241 OA
ATOM     24  O   LIG d   1      -2.369  74.483 114.950  0.00  0.00    -0.241 OA
ENDBRANCH   3  22
TORSDOF 7
ENDMDL
