MODEL 1
REMARK VINA RESULT:      -5.8      0.000      0.000
REMARK  7 active torsions:
REMARK  status: ('A' for Active; 'I' for Inactive)
REMARK    1  A    between atoms: C_2  and  C_3 
REMARK    2  A    between atoms: C_3  and  O_6 
REMARK    3  A    between atoms: C_3  and  C_4 
REMARK    4  A    between atoms: C_7  and  O_6 
REMARK    5  A    between atoms: C_9  and  C_10 
REMARK    6  A    between atoms: N_15  and  C_14 
REMARK    7  A    between atoms: N_20  and  C_19 
REMARK       I    between atoms: C_22  and  N_20 
ROOT
ATOM      1  C   LIG d   1       2.904  89.104 115.413  0.00  0.00     0.161 C 
ATOM      2  C   LIG d   1       2.194  88.353 114.462  0.00  0.00     0.016 C 
ATOM      3  C   LIG d   1       2.687  88.071 113.168  0.00  0.00     0.038 C 
ATOM      4  C   LIG d   1       3.997  88.396 112.786  0.00  0.00     0.028 C 
ATOM      5  C   LIG d   1       4.566  89.596 113.536  0.00  0.00    -0.047 C 
ATOM      6  C   LIG d   1       4.380  89.372 115.054  0.00  0.00     0.091 C 
ENDROOT
BRANCH   1   7
ATOM      7  O   LIG d   1       2.809  88.472 116.705  0.00  0.00    -0.368 OA
BRANCH   7   8
ATOM      8  C   LIG d   1       1.975  89.141 117.683  0.00  0.00     0.119 C 
BRANCH   8   9
ATOM      9  C   LIG d   1       1.411  90.412 117.018  0.00  0.00     0.028 C 
ATOM     10  C   LIG d   1      -0.121  90.378 116.893  0.00  0.00     0.006 C 
ENDBRANCH   8   9
BRANCH   8  11
ATOM     11  C   LIG d   1       2.800  89.638 118.873  0.00  0.00     0.028 C 
ATOM     12  C   LIG d   1       2.771  91.167 119.022  0.00  0.00     0.006 C 
ENDBRANCH   8  11
ENDBRANCH   7   8
ENDBRANCH   1   7
BRANCH   6  13
ATOM     13  N   LIG d   1       4.835  90.537 115.858  0.00  0.00    -0.311 N 
ATOM     14  C   LIG d   1       5.815  90.470 116.757  0.00  0.00     0.210 C 
ATOM     15  C   LIG d   1       6.112  91.782 117.490  0.00  0.00     0.109 C 
ATOM     16  O   LIG d   1       6.489  89.456 116.994  0.00  0.00    -0.276 OA
ATOM     17  H   LIG d   1       4.363  91.407 115.707  0.00  0.00     0.149 HD
ENDBRANCH   6  13
BRANCH   5  18
ATOM     18  N   LIG d   1       5.980  89.738 113.141  0.00  0.00     0.381 N 
ATOM     19  H   LIG d   1       6.514  90.088 113.912  0.00  0.00    -0.090 HD
ATOM     20  H   LIG d   1       6.042  90.400 112.388  0.00  0.00    -0.090 HD
ATOM     21  H   LIG d   1       6.343  88.857 112.849  0.00  0.00    -0.090 HD
ENDBRANCH   5  18
BRANCH   3  22
ATOM     22  C   LIG d   1       1.851  87.492 112.225  0.00  0.00     0.382 C 
ATOM     23  O   LIG d   1       0.667  87.206 112.528  0.00  0.00    -0.241 OA
ATOM     24  O   LIG d   1       2.278  87.211 111.089  0.00  0.00    -0.241 OA
ENDBRANCH   3  22
TORSDOF 7
ENDMDL
MODEL 2
REMARK VINA RESULT:      -5.7      1.509      2.167
REMARK  7 active torsions:
REMARK  status: ('A' for Active; 'I' for Inactive)
REMARK    1  A    between atoms: C_2  and  C_3 
REMARK    2  A    between atoms: C_3  and  O_6 
REMARK    3  A    between atoms: C_3  and  C_4 
REMARK    4  A    between atoms: C_7  and  O_6 
REMARK    5  A    between atoms: C_9  and  C_10 
REMARK    6  A    between atoms: N_15  and  C_14 
REMARK    7  A    between atoms: N_20  and  C_19 
REMARK       I    between atoms: C_22  and  N_20 
ROOT
ATOM      1  C   LIG d   1       3.005  89.011 115.538  0.00  0.00     0.161 C 
ATOM      2  C   LIG d   1       2.280  88.292 114.572  0.00  0.00     0.016 C 
ATOM      3  C   LIG d   1       2.739  88.083 113.251  0.00  0.00     0.038 C 
ATOM      4  C   LIG d   1       4.031  88.453 112.848  0.00  0.00     0.028 C 
ATOM      5  C   LIG d   1       4.600  89.626 113.639  0.00  0.00    -0.047 C 
ATOM      6  C   LIG d   1       4.464  89.326 115.149  0.00  0.00     0.091 C 
ENDROOT
BRANCH   1   7
ATOM      7  O   LIG d   1       2.961  88.315 116.799  0.00  0.00    -0.368 OA
BRANCH   7   8
ATOM      8  C   LIG d   1       4.036  87.375 117.046  0.00  0.00     0.119 C 
BRANCH   8   9
ATOM      9  C   LIG d   1       3.452  85.956 116.905  0.00  0.00     0.028 C 
ATOM     10  C   LIG d   1       4.079  85.176 115.737  0.00  0.00     0.006 C 
ENDBRANCH   8   9
BRANCH   8  11
ATOM     11  C   LIG d   1       4.535  87.467 118.491  0.00  0.00     0.028 C 
ATOM     12  C   LIG d   1       4.015  88.713 119.223  0.00  0.00     0.006 C 
ENDBRANCH   8  11
ENDBRANCH   7   8
ENDBRANCH   1   7
BRANCH   6  13
ATOM     13  N   LIG d   1       4.920  90.459 115.995  0.00  0.00    -0.311 N 
ATOM     14  C   LIG d   1       6.045  90.436 116.708  0.00  0.00     0.210 C 
ATOM     15  C   LIG d   1       6.318  91.701 117.527  0.00  0.00     0.109 C 
ATOM     16  O   LIG d   1       6.859  89.500 116.714  0.00  0.00    -0.276 OA
ATOM     17  H   LIG d   1       4.335  91.271 116.024  0.00  0.00     0.149 HD
ENDBRANCH   6  13
BRANCH   5  18
ATOM     18  N   LIG d   1       5.998  89.816 113.210  0.00  0.00     0.381 N 
ATOM     19  H   LIG d   1       6.619  89.510 113.933  0.00  0.00    -0.090 HD
ATOM     20  H   LIG d   1       6.159  90.795 113.051  0.00  0.00    -0.090 HD
ATOM     21  H   LIG d   1       6.171  89.303 112.374  0.00  0.00    -0.090 HD
ENDBRANCH   5  18
BRANCH   3  22
ATOM     22  C   LIG d   1       1.886  87.534 112.306  0.00  0.00     0.382 C 
ATOM     23  O   LIG d   1       0.703  87.255 112.616  0.00  0.00    -0.241 OA
ATOM     24  O   LIG d   1       2.297  87.272 111.160  0.00  0.00    -0.241 OA
ENDBRANCH   3  22
TORSDOF 7
ENDMDL
MODEL 3
REMARK VINA RESULT:      -5.4     10.168     12.007
REMARK  7 active torsions:
REMARK  status: ('A' for Active; 'I' for Inactive)
REMARK    1  A    between atoms: C_2  and  C_3 
REMARK    2  A    between atoms: C_3  and  O_6 
REMARK    3  A    between atoms: C_3  and  C_4 
REMARK    4  A    between atoms: C_7  and  O_6 
REMARK    5  A    between atoms: C_9  and  C_10 
REMARK    6  A    between atoms: N_15  and  C_14 
REMARK    7  A    between atoms: N_20  and  C_19 
REMARK       I    between atoms: C_22  and  N_20 
ROOT
ATOM      1  C   LIG d   1      -2.730  80.018 114.838  0.00  0.00     0.161 C 
ATOM      2  C   LIG d   1      -2.246  81.143 114.150  0.00  0.00     0.016 C 
ATOM      3  C   LIG d   1      -1.599  81.070 112.895  0.00  0.00     0.038 C 
ATOM      4  C   LIG d   1      -1.526  79.872 112.168  0.00  0.00     0.028 C 
ATOM      5  C   LIG d   1      -1.552  78.627 113.048  0.00  0.00    -0.047 C 
ATOM      6  C   LIG d   1      -2.759  78.717 114.009  0.00  0.00     0.091 C 
ENDROOT
BRANCH   1   7
ATOM      7  O   LIG d   1      -4.038  80.299 115.375  0.00  0.00    -0.368 OA
BRANCH   7   8
ATOM      8  C   LIG d   1      -4.110  80.491 116.809  0.00  0.00     0.119 C 
BRANCH   8   9
ATOM      9  C   LIG d   1      -5.507  80.030 117.268  0.00  0.00     0.028 C 
ATOM     10  C   LIG d   1      -6.535  81.175 117.260  0.00  0.00     0.006 C 
ENDBRANCH   8   9
BRANCH   8  11
ATOM     11  C   LIG d   1      -4.032  81.976 117.177  0.00  0.00     0.028 C 
ATOM     12  C   LIG d   1      -2.775  82.322 117.991  0.00  0.00     0.006 C 
ENDBRANCH   8  11
ENDBRANCH   7   8
ENDBRANCH   1   7
BRANCH   6  13
ATOM     13  N   LIG d   1      -2.810  77.578 114.963  0.00  0.00    -0.311 N 
ATOM     14  C   LIG d   1      -3.480  76.452 114.724  0.00  0.00     0.210 C 
ATOM     15  C   LIG d   1      -3.419  75.412 115.848  0.00  0.00     0.109 C 
ATOM     16  O   LIG d   1      -4.093  76.202 113.675  0.00  0.00    -0.276 OA
ATOM     17  H   LIG d   1      -2.315  77.683 115.826  0.00  0.00     0.149 HD
ENDBRANCH   6  13
BRANCH   5  18
ATOM     18  N   LIG d   1      -1.609  77.453 112.157  0.00  0.00     0.381 N 
ATOM     19  H   LIG d   1      -2.103  76.709 112.607  0.00  0.00    -0.090 HD
ATOM     20  H   LIG d   1      -0.672  77.141 111.970  0.00  0.00    -0.090 HD
ATOM     21  H   LIG d   1      -2.063  77.694 111.303  0.00  0.00    -0.090 HD
ENDBRANCH   5  18
BRANCH   3  22
ATOM     22  C   LIG d   1      -0.980  82.196 112.374  0.00  0.00     0.382 C 
ATOM     23  O   LIG d   1      -1.470  82.773 111.373  0.00  0.00    -0.241 OA
ATOM     24  O   LIG d   1       0.085  82.615 112.864  0.00  0.00    -0.241 OA
ENDBRANCH   3  22
TORSDOF 7
ENDMDL
MODEL 4
REMARK VINA RESULT:      -5.2      8.765     10.633
REMARK  7 active torsions:
REMARK  status: ('A' for Active; 'I' for Inactive)
REMARK    1  A    between atoms: C_2  and  C_3 
REMARK    2  A    between atoms: C_3  and  O_6 
REMARK    3  A    between atoms: C_3  and  C_4 
REMARK    4  A    between atoms: C_7  and  O_6 
REMARK    5  A    between atoms: C_9  and  C_10 
REMARK    6  A    between atoms: N_15  and  C_14 
REMARK    7  A    between atoms: N_20  and  C_19 
REMARK       I    between atoms: C_22  and  N_20 
ROOT
ATOM      1  C   LIG d   1      -2.782  81.089 112.891  0.00  0.00     0.161 C 
ATOM      2  C   LIG d   1      -3.224  79.770 113.085  0.00  0.00     0.016 C 
ATOM      3  C   LIG d   1      -2.502  78.635 112.650  0.00  0.00     0.038 C 
ATOM      4  C   LIG d   1      -1.206  78.738 112.122  0.00  0.00     0.028 C 
ATOM      5  C   LIG d   1      -0.933  80.077 111.445  0.00  0.00    -0.047 C 
ATOM      6  C   LIG d   1      -1.319  81.217 112.415  0.00  0.00     0.091 C 
ENDROOT
BRANCH   1   7
ATOM      7  O   LIG d   1      -2.986  81.855 114.094  0.00  0.00    -0.368 OA
BRANCH   7   8
ATOM      8  C   LIG d   1      -3.052  81.099 115.328  0.00  0.00     0.119 C 
BRANCH   8   9
ATOM      9  C   LIG d   1      -4.121  81.760 116.220  0.00  0.00     0.028 C 
ATOM     10  C   LIG d   1      -3.557  82.206 117.579  0.00  0.00     0.006 C 
ENDBRANCH   8   9
BRANCH   8  11
ATOM     11  C   LIG d   1      -1.744  81.205 116.117  0.00  0.00     0.028 C 
ATOM     12  C   LIG d   1      -0.902  79.920 116.051  0.00  0.00     0.006 C 
ENDBRANCH   8  11
ENDBRANCH   7   8
ENDBRANCH   1   7
BRANCH   6  13
ATOM     13  N   LIG d   1      -1.162  82.561 111.802  0.00  0.00    -0.311 N 
ATOM     14  C   LIG d   1      -0.059  83.298 111.922  0.00  0.00     0.210 C 
ATOM     15  C   LIG d   1      -0.113  84.662 111.228  0.00  0.00     0.109 C 
ATOM     16  O   LIG d   1       0.971  82.938 112.511  0.00  0.00    -0.276 OA
ATOM     17  H   LIG d   1      -1.938  82.918 111.279  0.00  0.00     0.149 HD
ENDBRANCH   6  13
BRANCH   5  18
ATOM     18  N   LIG d   1       0.491  80.101 111.063  0.00  0.00     0.381 N 
ATOM     19  H   LIG d   1       0.849  79.167 111.031  0.00  0.00    -0.090 HD
ATOM     20  H   LIG d   1       1.006  80.612 111.759  0.00  0.00    -0.090 HD
ATOM     21  H   LIG d   1       0.599  80.536 110.174  0.00  0.00    -0.090 HD
ENDBRANCH   5  18
BRANCH   3  22
ATOM     22  C   LIG d   1      -3.092  77.381 112.706  0.00  0.00     0.382 C 
ATOM     23  O   LIG d   1      -2.437  76.397 113.125  0.00  0.00    -0.241 OA
ATOM     24  O   LIG d   1      -4.258  77.214 112.300  0.00  0.00    -0.241 OA
ENDBRANCH   3  22
TORSDOF 7
ENDMDL
MODEL 5
REMARK VINA RESULT:      -5.1      7.799      9.652
REMARK  7 active torsions:
REMARK  status: ('A' for Active; 'I' for Inactive)
REMARK    1  A    between atoms: C_2  and  C_3 
REMARK    2  A    between atoms: C_3  and  O_6 
REMARK    3  A    between atoms: C_3  and  C_4 
REMARK    4  A    between atoms: C_7  and  O_6 
REMARK    5  A    between atoms: C_9  and  C_10 
REMARK    6  A    between atoms: N_15  and  C_14 
REMARK    7  A    between atoms: N_20  and  C_19 
REMARK       I    between atoms: C_22  and  N_20 
ROOT
ATOM      1  C   LIG d   1       0.719  81.349 113.384  0.00  0.00     0.161 C 
ATOM      2  C   LIG d   1      -0.635  81.442 113.020  0.00  0.00     0.016 C 
ATOM      3  C   LIG d   1      -1.697  81.057 113.870  0.00  0.00     0.038 C 
ATOM      4  C   LIG d   1      -1.482  80.693 115.208  0.00  0.00     0.028 C 
ATOM      5  C   LIG d   1      -0.098  80.102 115.459  0.00  0.00    -0.047 C 
ATOM      6  C   LIG d   1       0.969  81.059 114.878  0.00  0.00     0.091 C 
ENDROOT
BRANCH   1   7
ATOM      7  O   LIG d   1       1.416  82.545 112.983  0.00  0.00    -0.368 OA
BRANCH   7   8
ATOM      8  C   LIG d   1       1.977  82.538 111.647  0.00  0.00     0.119 C 
BRANCH   8   9
ATOM      9  C   LIG d   1       2.815  81.252 111.504  0.00  0.00     0.028 C 
ATOM     10  C   LIG d   1       3.583  81.198 110.173  0.00  0.00     0.006 C 
ENDBRANCH   8   9
BRANCH   8  11
ATOM     11  C   LIG d   1       2.967  83.691 111.453  0.00  0.00     0.028 C 
ATOM     12  C   LIG d   1       2.475  84.734 110.437  0.00  0.00     0.006 C 
ENDBRANCH   8  11
ENDBRANCH   7   8
ENDBRANCH   1   7
BRANCH   6  13
ATOM     13  N   LIG d   1       2.346  80.516 115.007  0.00  0.00    -0.311 N 
ATOM     14  C   LIG d   1       3.126  80.738 116.064  0.00  0.00     0.210 C 
ATOM     15  C   LIG d   1       4.518  80.103 115.985  0.00  0.00     0.109 C 
ATOM     16  O   LIG d   1       2.785  81.374 117.073  0.00  0.00    -0.276 OA
ATOM     17  H   LIG d   1       2.691  79.963 114.247  0.00  0.00     0.149 HD
ENDBRANCH   6  13
BRANCH   5  18
ATOM     18  N   LIG d   1       0.041  79.896 116.913  0.00  0.00     0.381 N 
ATOM     19  H   LIG d   1       0.090  78.917 117.113  0.00  0.00    -0.090 HD
ATOM     20  H   LIG d   1      -0.770  80.271 117.374  0.00  0.00    -0.090 HD
ATOM     21  H   LIG d   1       0.862  80.352 117.246  0.00  0.00    -0.090 HD
ENDBRANCH   5  18
BRANCH   3  22
ATOM     22  C   LIG d   1      -2.989  80.997 113.371  0.00  0.00     0.382 C 
ATOM     23  O   LIG d   1      -3.666  82.047 113.253  0.00  0.00    -0.241 OA
ATOM     24  O   LIG d   1      -3.503  79.901 113.080  0.00  0.00    -0.241 OA
ENDBRANCH   3  22
TORSDOF 7
ENDMDL
MODEL 6
REMARK VINA RESULT:      -5.1      1.588      2.213
REMARK  7 active torsions:
REMARK  status: ('A' for Active; 'I' for Inactive)
REMARK    1  A    between atoms: C_2  and  C_3 
REMARK    2  A    between atoms: C_3  and  O_6 
REMARK    3  A    between atoms: C_3  and  C_4 
REMARK    4  A    between atoms: C_7  and  O_6 
REMARK    5  A    between atoms: C_9  and  C_10 
REMARK    6  A    between atoms: N_15  and  C_14 
REMARK    7  A    between atoms: N_20  and  C_19 
REMARK       I    between atoms: C_22  and  N_20 
ROOT
ATOM      1  C   LIG d   1       3.573  88.354 115.662  0.00  0.00     0.161 C 
ATOM      2  C   LIG d   1       2.790  87.749 114.665  0.00  0.00     0.016 C 
ATOM      3  C   LIG d   1       3.048  87.888 113.282  0.00  0.00     0.038 C 
ATOM      4  C   LIG d   1       4.204  88.522 112.803  0.00  0.00     0.028 C 
ATOM      5  C   LIG d   1       4.754  89.579 113.755  0.00  0.00    -0.047 C 
ATOM      6  C   LIG d   1       4.903  88.957 115.163  0.00  0.00     0.091 C 
ENDROOT
BRANCH   1   7
ATOM      7  O   LIG d   1       3.818  87.415 116.728  0.00  0.00    -0.368 OA
BRANCH   7   8
ATOM      8  C   LIG d   1       2.764  87.280 117.713  0.00  0.00     0.119 C 
BRANCH   8   9
ATOM      9  C   LIG d   1       3.070  88.268 118.856  0.00  0.00     0.028 C 
ATOM     10  C   LIG d   1       2.152  89.501 118.826  0.00  0.00     0.006 C 
ENDBRANCH   8   9
BRANCH   8  11
ATOM     11  C   LIG d   1       2.782  85.892 118.360  0.00  0.00     0.028 C 
ATOM     12  C   LIG d   1       2.252  85.902 119.803  0.00  0.00     0.006 C 
ENDBRANCH   8  11
ENDBRANCH   7   8
ENDBRANCH   1   7
BRANCH   6  13
ATOM     13  N   LIG d   1       5.356  89.948 116.174  0.00  0.00    -0.311 N 
ATOM     14  C   LIG d   1       4.653  91.029 116.507  0.00  0.00     0.210 C 
ATOM     15  C   LIG d   1       5.311  91.930 117.557  0.00  0.00     0.109 C 
ATOM     16  O   LIG d   1       3.533  91.312 116.055  0.00  0.00    -0.276 OA
ATOM     17  H   LIG d   1       6.240  89.780 116.613  0.00  0.00     0.149 HD
ENDBRANCH   6  13
BRANCH   5  18
ATOM     18  N   LIG d   1       6.032  90.060 113.197  0.00  0.00     0.381 N 
ATOM     19  H   LIG d   1       6.774  89.449 113.475  0.00  0.00    -0.090 HD
ATOM     20  H   LIG d   1       6.222  90.976 113.564  0.00  0.00    -0.090 HD
ATOM     21  H   LIG d   1       5.977  90.097 112.203  0.00  0.00    -0.090 HD
ENDBRANCH   5  18
BRANCH   3  22
ATOM     22  C   LIG d   1       2.122  87.423 112.360  0.00  0.00     0.382 C 
ATOM     23  O   LIG d   1       2.476  87.189 111.179  0.00  0.00    -0.241 OA
ATOM     24  O   LIG d   1       0.928  87.276 112.683  0.00  0.00    -0.241 OA
ENDBRANCH   3  22
TORSDOF 7
ENDMDL
MODEL 7
REMARK VINA RESULT:      -4.9      9.817     11.547
REMARK  7 active torsions:
REMARK  status: ('A' for Active; 'I' for Inactive)
REMARK    1  A    between atoms: C_2  and  C_3 
REMARK    2  A    between atoms: C_3  and  O_6 
REMARK    3  A    between atoms: C_3  and  C_4 
REMARK    4  A    between atoms: C_7  and  O_6 
REMARK    5  A    between atoms: C_9  and  C_10 
REMARK    6  A    between atoms: N_15  and  C_14 
REMARK    7  A    between atoms: N_20  and  C_19 
REMARK       I    between atoms: C_22  and  N_20 
ROOT
ATOM      1  C   LIG d   1      -2.430  79.780 114.157  0.00  0.00     0.161 C 
ATOM      2  C   LIG d   1      -2.900  78.522 114.570  0.00  0.00     0.016 C 
ATOM      3  C   LIG d   1      -2.836  77.364 113.763  0.00  0.00     0.038 C 
ATOM      4  C   LIG d   1      -2.156  77.352 112.536  0.00  0.00     0.028 C 
ATOM      5  C   LIG d   1      -2.109  78.716 111.856  0.00  0.00    -0.047 C 
ATOM      6  C   LIG d   1      -1.585  79.762 112.866  0.00  0.00     0.091 C 
ENDROOT
BRANCH   1   7
ATOM      7  O   LIG d   1      -1.695  80.404 115.228  0.00  0.00    -0.368 OA
BRANCH   7   8
ATOM      8  C   LIG d   1      -2.478  80.850 116.363  0.00  0.00     0.119 C 
BRANCH   8   9
ATOM      9  C   LIG d   1      -3.641  81.701 115.817  0.00  0.00     0.028 C 
ATOM     10  C   LIG d   1      -4.892  81.625 116.708  0.00  0.00     0.006 C 
ENDBRANCH   8   9
BRANCH   8  11
ATOM     11  C   LIG d   1      -1.671  81.793 117.260  0.00  0.00     0.028 C 
ATOM     12  C   LIG d   1      -0.184  81.854 116.877  0.00  0.00     0.006 C 
ENDBRANCH   8  11
ENDBRANCH   7   8
ENDBRANCH   1   7
BRANCH   6  13
ATOM     13  N   LIG d   1      -1.588  81.140 112.308  0.00  0.00    -0.311 N 
ATOM     14  C   LIG d   1      -0.524  81.701 111.735  0.00  0.00     0.210 C 
ATOM     15  C   LIG d   1      -0.736  83.137 111.244  0.00  0.00     0.109 C 
ATOM     16  O   LIG d   1       0.565  81.135 111.559  0.00  0.00    -0.276 OA
ATOM     17  H   LIG d   1      -2.440  81.660 112.381  0.00  0.00     0.149 HD
ENDBRANCH   6  13
BRANCH   5  18
ATOM     18  N   LIG d   1      -1.256  78.589 110.660  0.00  0.00     0.381 N 
ATOM     19  H   LIG d   1      -1.738  78.070 109.953  0.00  0.00    -0.090 HD
ATOM     20  H   LIG d   1      -0.422  78.085 110.907  0.00  0.00    -0.090 HD
ATOM     21  H   LIG d   1      -1.017  79.492 110.314  0.00  0.00    -0.090 HD
ENDBRANCH   5  18
BRANCH   3  22
ATOM     22  C   LIG d   1      -3.491  76.209 114.163  0.00  0.00     0.382 C 
ATOM     23  O   LIG d   1      -4.625  75.939 113.699  0.00  0.00    -0.241 OA
ATOM     24  O   LIG d   1      -2.983  75.458 115.017  0.00  0.00    -0.241 OA
ENDBRANCH   3  22
TORSDOF 7
ENDMDL
MODEL 8
REMARK VINA RESULT:      -4.9      2.168      5.151
REMARK  7 active torsions:
REMARK  status: ('A' for Active; 'I' for Inactive)
REMARK    1  A    between atoms: C_2  and  C_3 
REMARK    2  A    between atoms: C_3  and  O_6 
REMARK    3  A    between atoms: C_3  and  C_4 
REMARK    4  A    between atoms: C_7  and  O_6 
REMARK    5  A    between atoms: C_9  and  C_10 
REMARK    6  A    between atoms: N_15  and  C_14 
REMARK    7  A    between atoms: N_20  and  C_19 
REMARK       I    between atoms: C_22  and  N_20 
ROOT
ATOM      1  C   LIG d   1       2.239  89.522 115.954  0.00  0.00     0.161 C 
ATOM      2  C   LIG d   1       0.938  90.007 116.164  0.00  0.00     0.016 C 
ATOM      3  C   LIG d   1       0.599  90.900 117.207  0.00  0.00     0.038 C 
ATOM      4  C   LIG d   1       1.574  91.490 118.024  0.00  0.00     0.028 C 
ATOM      5  C   LIG d   1       2.834  90.644 118.172  0.00  0.00    -0.047 C 
ATOM      6  C   LIG d   1       3.336  90.241 116.767  0.00  0.00     0.091 C 
ENDROOT
BRANCH   1   7
ATOM      7  O   LIG d   1       2.553  89.557 114.548  0.00  0.00    -0.368 OA
BRANCH   7   8
ATOM      8  C   LIG d   1       2.657  88.272 113.886  0.00  0.00     0.119 C 
BRANCH   8   9
ATOM      9  C   LIG d   1       3.951  88.286 113.050  0.00  0.00     0.028 C 
ATOM     10  C   LIG d   1       4.775  89.567 113.264  0.00  0.00     0.006 C 
ENDBRANCH   8   9
BRANCH   8  11
ATOM     11  C   LIG d   1       1.523  88.072 112.876  0.00  0.00     0.028 C 
ATOM     12  C   LIG d   1       1.925  87.166 111.702  0.00  0.00     0.006 C 
ENDBRANCH   8  11
ENDBRANCH   7   8
ENDBRANCH   1   7
BRANCH   6  13
ATOM     13  N   LIG d   1       4.517  89.341 116.823  0.00  0.00    -0.311 N 
ATOM     14  C   LIG d   1       5.774  89.774 116.735  0.00  0.00     0.210 C 
ATOM     15  C   LIG d   1       6.842  88.677 116.796  0.00  0.00     0.109 C 
ATOM     16  O   LIG d   1       6.107  90.965 116.646  0.00  0.00    -0.276 OA
ATOM     17  H   LIG d   1       4.340  88.361 116.926  0.00  0.00     0.149 HD
ENDBRANCH   6  13
BRANCH   5  18
ATOM     18  N   LIG d   1       3.817  91.437 118.933  0.00  0.00     0.381 N 
ATOM     19  H   LIG d   1       4.057  90.959 119.778  0.00  0.00    -0.090 HD
ATOM     20  H   LIG d   1       3.404  92.320 119.176  0.00  0.00    -0.090 HD
ATOM     21  H   LIG d   1       4.635  91.585 118.383  0.00  0.00    -0.090 HD
ENDBRANCH   5  18
BRANCH   3  22
ATOM     22  C   LIG d   1      -0.735  91.179 117.466  0.00  0.00     0.382 C 
ATOM     23  O   LIG d   1      -1.539  90.243 117.694  0.00  0.00    -0.241 OA
ATOM     24  O   LIG d   1      -1.153  92.352 117.431  0.00  0.00    -0.241 OA
ENDBRANCH   3  22
TORSDOF 7
ENDMDL
MODEL 9
REMARK VINA RESULT:      -4.9      7.465      9.404
REMARK  7 active torsions:
REMARK  status: ('A' for Active; 'I' for Inactive)
REMARK    1  A    between atoms: C_2  and  C_3 
REMARK    2  A    between atoms: C_3  and  O_6 
REMARK    3  A    between atoms: C_3  and  C_4 
REMARK    4  A    between atoms: C_7  and  O_6 
REMARK    5  A    between atoms: C_9  and  C_10 
REMARK    6  A    between atoms: N_15  and  C_14 
REMARK    7  A    between atoms: N_20  and  C_19 
REMARK       I    between atoms: C_22  and  N_20 
ROOT
ATOM      1  C   LIG d   1       0.578  81.917 113.368  0.00  0.00     0.161 C 
ATOM      2  C   LIG d   1      -0.779  81.636 113.601  0.00  0.00     0.016 C 
ATOM      3  C   LIG d   1      -1.538  80.749 112.805  0.00  0.00     0.038 C 
ATOM      4  C   LIG d   1      -0.949  79.961 111.804  0.00  0.00     0.028 C 
ATOM      5  C   LIG d   1       0.307  80.584 111.205  0.00  0.00    -0.047 C 
ATOM      6  C   LIG d   1       1.266  80.983 112.350  0.00  0.00     0.091 C 
ENDROOT
BRANCH   1   7
ATOM      7  O   LIG d   1       1.299  81.916 114.616  0.00  0.00    -0.368 OA
BRANCH   7   8
ATOM      8  C   LIG d   1       0.568  81.442 115.774  0.00  0.00     0.119 C 
BRANCH   8   9
ATOM      9  C   LIG d   1       0.923  82.365 116.955  0.00  0.00     0.028 C 
ATOM     10  C   LIG d   1       2.439  82.451 117.198  0.00  0.00     0.006 C 
ENDBRANCH   8   9
BRANCH   8  11
ATOM     11  C   LIG d   1       1.038  80.046 116.195  0.00  0.00     0.028 C 
ATOM     12  C   LIG d   1      -0.112  79.029 116.272  0.00  0.00     0.006 C 
ENDBRANCH   8  11
ENDBRANCH   7   8
ENDBRANCH   1   7
BRANCH   6  13
ATOM     13  N   LIG d   1       2.483  81.677 111.855  0.00  0.00    -0.311 N 
ATOM     14  C   LIG d   1       2.447  82.783 111.114  0.00  0.00     0.210 C 
ATOM     15  C   LIG d   1       3.816  83.324 110.693  0.00  0.00     0.109 C 
ATOM     16  O   LIG d   1       1.411  83.386 110.794  0.00  0.00    -0.276 OA
ATOM     17  H   LIG d   1       3.367  81.273 112.095  0.00  0.00     0.149 HD
ENDBRANCH   6  13
BRANCH   5  18
ATOM     18  N   LIG d   1       0.894  79.599 110.277  0.00  0.00     0.381 N 
ATOM     19  H   LIG d   1       1.825  79.874 110.035  0.00  0.00    -0.090 HD
ATOM     20  H   LIG d   1       0.343  79.575 109.437  0.00  0.00    -0.090 HD
ATOM     21  H   LIG d   1       0.906  78.697 110.700  0.00  0.00    -0.090 HD
ENDBRANCH   5  18
BRANCH   3  22
ATOM     22  C   LIG d   1      -2.912  80.673 112.979  0.00  0.00     0.382 C 
ATOM     23  O   LIG d   1      -3.644  81.625 112.615  0.00  0.00    -0.241 OA
ATOM     24  O   LIG d   1      -3.424  79.683 113.536  0.00  0.00    -0.241 OA
ENDBRANCH   3  22
TORSDOF 7
ENDMDL
