MODEL 1
REMARK VINA RESULT:      -6.1      0.000      0.000
REMARK  7 active torsions:
REMARK  status: ('A' for Active; 'I' for Inactive)
REMARK    1  A    between atoms: C_2  and  C_3 
REMARK    2  A    between atoms: C_3  and  O_6 
REMARK    3  A    between atoms: C_3  and  C_4 
REMARK    4  A    between atoms: C_7  and  O_6 
REMARK    5  A    between atoms: C_9  and  C_10 
REMARK    6  A    between atoms: N_15  and  C_14 
REMARK    7  A    between atoms: N_20  and  C_19 
REMARK       I    between atoms: C_22  and  N_20 
ROOT
ATOM      1  C   LIG d   1       0.467  83.025 112.151  0.00  0.00     0.161 C 
ATOM      2  C   LIG d   1      -0.742  82.610 112.734  0.00  0.00     0.016 C 
ATOM      3  C   LIG d   1      -1.322  81.341 112.504  0.00  0.00     0.038 C 
ATOM      4  C   LIG d   1      -0.650  80.338 111.790  0.00  0.00     0.028 C 
ATOM      5  C   LIG d   1       0.339  80.883 110.765  0.00  0.00    -0.047 C 
ATOM      6  C   LIG d   1       1.269  81.904 111.458  0.00  0.00     0.091 C 
ENDROOT
BRANCH   1   7
ATOM      7  O   LIG d   1       1.282  83.688 113.137  0.00  0.00    -0.368 OA
BRANCH   7   8
ATOM      8  C   LIG d   1       1.436  85.120 112.978  0.00  0.00     0.119 C 
BRANCH   8   9
ATOM      9  C   LIG d   1       0.678  85.799 114.136  0.00  0.00     0.028 C 
ATOM     10  C   LIG d   1       0.513  84.872 115.352  0.00  0.00     0.006 C 
ENDBRANCH   8   9
BRANCH   8  11
ATOM     11  C   LIG d   1       0.753  85.616 111.700  0.00  0.00     0.028 C 
ATOM     12  C   LIG d   1       1.732  86.283 110.722  0.00  0.00     0.006 C 
ENDBRANCH   8  11
ENDBRANCH   7   8
ENDBRANCH   1   7
BRANCH   6  13
ATOM     13  N   LIG d   1       2.212  82.548 110.508  0.00  0.00    -0.311 N 
ATOM     14  C   LIG d   1       3.462  82.128 110.318  0.00  0.00     0.210 C 
ATOM     15  C   LIG d   1       4.272  82.946 109.307  0.00  0.00     0.109 C 
ATOM     16  O   LIG d   1       3.966  81.137 110.866  0.00  0.00    -0.276 OA
ATOM     17  H   LIG d   1       1.876  83.341 109.997  0.00  0.00     0.149 HD
ENDBRANCH   6  13
BRANCH   5  18
ATOM     18  N   LIG d   1       1.066  79.734 110.192  0.00  0.00     0.381 N 
ATOM     19  H   LIG d   1       0.415  79.029 109.907  0.00  0.00    -0.090 HD
ATOM     20  H   LIG d   1       1.664  79.343 110.899  0.00  0.00    -0.090 HD
ATOM     21  H   LIG d   1       1.610  80.029 109.412  0.00  0.00    -0.090 HD
ENDBRANCH   5  18
BRANCH   3  22
ATOM     22  C   LIG d   1      -2.605  81.079 112.959  0.00  0.00     0.382 C 
ATOM     23  O   LIG d   1      -2.780  80.311 113.936  0.00  0.00    -0.241 OA
ATOM     24  O   LIG d   1      -3.593  81.566 112.376  0.00  0.00    -0.241 OA
ENDBRANCH   3  22
TORSDOF 7
ENDMDL
MODEL 2
REMARK VINA RESULT:      -5.7      3.609      6.948
REMARK  7 active torsions:
REMARK  status: ('A' for Active; 'I' for Inactive)
REMARK    1  A    between atoms: C_2  and  C_3 
REMARK    2  A    between atoms: C_3  and  O_6 
REMARK    3  A    between atoms: C_3  and  C_4 
REMARK    4  A    between atoms: C_7  and  O_6 
REMARK    5  A    between atoms: C_9  and  C_10 
REMARK    6  A    between atoms: N_15  and  C_14 
REMARK    7  A    between atoms: N_20  and  C_19 
REMARK       I    between atoms: C_22  and  N_20 
ROOT
ATOM      1  C   LIG d   1       2.552  86.218 112.241  0.00  0.00     0.161 C 
ATOM      2  C   LIG d   1       3.340  87.369 112.073  0.00  0.00     0.016 C 
ATOM      3  C   LIG d   1       3.904  88.090 113.151  0.00  0.00     0.038 C 
ATOM      4  C   LIG d   1       3.843  87.619 114.471  0.00  0.00     0.028 C 
ATOM      5  C   LIG d   1       2.632  86.734 114.743  0.00  0.00    -0.047 C 
ATOM      6  C   LIG d   1       2.568  85.626 113.666  0.00  0.00     0.091 C 
ENDROOT
BRANCH   1   7
ATOM      7  O   LIG d   1       2.938  85.217 111.279  0.00  0.00    -0.368 OA
BRANCH   7   8
ATOM      8  C   LIG d   1       1.888  84.733 110.407  0.00  0.00     0.119 C 
BRANCH   8   9
ATOM      9  C   LIG d   1       2.554  83.885 109.306  0.00  0.00     0.028 C 
ATOM     10  C   LIG d   1       3.986  83.463 109.676  0.00  0.00     0.006 C 
ENDBRANCH   8   9
BRANCH   8  11
ATOM     11  C   LIG d   1       1.200  85.886 109.670  0.00  0.00     0.028 C 
ATOM     12  C   LIG d   1      -0.331  85.753 109.654  0.00  0.00     0.006 C 
ENDBRANCH   8  11
ENDBRANCH   7   8
ENDBRANCH   1   7
BRANCH   6  13
ATOM     13  N   LIG d   1       1.364  84.766 113.809  0.00  0.00    -0.311 N 
ATOM     14  C   LIG d   1       1.414  83.436 113.843  0.00  0.00     0.210 C 
ATOM     15  C   LIG d   1       0.055  82.741 113.975  0.00  0.00     0.109 C 
ATOM     16  O   LIG d   1       2.457  82.766 113.808  0.00  0.00    -0.276 OA
ATOM     17  H   LIG d   1       0.478  85.228 113.876  0.00  0.00     0.149 HD
ENDBRANCH   6  13
BRANCH   5  18
ATOM     18  N   LIG d   1       2.767  86.202 116.112  0.00  0.00     0.381 N 
ATOM     19  H   LIG d   1       3.501  85.523 116.141  0.00  0.00    -0.090 HD
ATOM     20  H   LIG d   1       1.908  85.750 116.371  0.00  0.00    -0.090 HD
ATOM     21  H   LIG d   1       2.965  86.943 116.748  0.00  0.00    -0.090 HD
ENDBRANCH   5  18
BRANCH   3  22
ATOM     22  C   LIG d   1       4.504  89.318 112.917  0.00  0.00     0.382 C 
ATOM     23  O   LIG d   1       3.832  90.373 113.014  0.00  0.00    -0.241 OA
ATOM     24  O   LIG d   1       5.697  89.382 112.566  0.00  0.00    -0.241 OA
ENDBRANCH   3  22
TORSDOF 7
ENDMDL
MODEL 3
REMARK VINA RESULT:      -5.7      1.640      4.691
REMARK  7 active torsions:
REMARK  status: ('A' for Active; 'I' for Inactive)
REMARK    1  A    between atoms: C_2  and  C_3 
REMARK    2  A    between atoms: C_3  and  O_6 
REMARK    3  A    between atoms: C_3  and  C_4 
REMARK    4  A    between atoms: C_7  and  O_6 
REMARK    5  A    between atoms: C_9  and  C_10 
REMARK    6  A    between atoms: N_15  and  C_14 
REMARK    7  A    between atoms: N_20  and  C_19 
REMARK       I    between atoms: C_22  and  N_20 
ROOT
ATOM      1  C   LIG d   1       0.997  82.775 112.505  0.00  0.00     0.161 C 
ATOM      2  C   LIG d   1       2.044  83.361 111.774  0.00  0.00     0.016 C 
ATOM      3  C   LIG d   1       2.433  82.926 110.486  0.00  0.00     0.038 C 
ATOM      4  C   LIG d   1       1.698  81.967 109.774  0.00  0.00     0.028 C 
ATOM      5  C   LIG d   1       0.940  80.995 110.672  0.00  0.00    -0.047 C 
ATOM      6  C   LIG d   1       0.112  81.801 111.699  0.00  0.00     0.091 C 
ENDROOT
BRANCH   1   7
ATOM      7  O   LIG d   1       0.188  83.803 113.110  0.00  0.00    -0.368 OA
BRANCH   7   8
ATOM      8  C   LIG d   1       0.519  85.167 112.752  0.00  0.00     0.119 C 
BRANCH   8   9
ATOM      9  C   LIG d   1       0.735  85.950 114.062  0.00  0.00     0.028 C 
ATOM     10  C   LIG d   1       2.209  85.971 114.497  0.00  0.00     0.006 C 
ENDBRANCH   8   9
BRANCH   8  11
ATOM     11  C   LIG d   1      -0.654  85.860 112.053  0.00  0.00     0.028 C 
ATOM     12  C   LIG d   1      -0.488  85.921 110.527  0.00  0.00     0.006 C 
ENDBRANCH   8  11
ENDBRANCH   7   8
ENDBRANCH   1   7
BRANCH   6  13
ATOM     13  N   LIG d   1      -0.594  80.926 112.670  0.00  0.00    -0.311 N 
ATOM     14  C   LIG d   1      -1.911  80.963 112.868  0.00  0.00     0.210 C 
ATOM     15  C   LIG d   1      -2.433  79.990 113.930  0.00  0.00     0.109 C 
ATOM     16  O   LIG d   1      -2.700  81.686 112.241  0.00  0.00    -0.276 OA
ATOM     17  H   LIG d   1      -0.034  80.287 113.199  0.00  0.00     0.149 HD
ENDBRANCH   6  13
BRANCH   5  18
ATOM     18  N   LIG d   1       0.110  80.140 109.803  0.00  0.00     0.381 N 
ATOM     19  H   LIG d   1       0.190  80.443 108.853  0.00  0.00    -0.090 HD
ATOM     20  H   LIG d   1      -0.851  80.228 110.083  0.00  0.00    -0.090 HD
ATOM     21  H   LIG d   1       0.400  79.190 109.882  0.00  0.00    -0.090 HD
ENDBRANCH   5  18
BRANCH   3  22
ATOM     22  C   LIG d   1       3.594  83.424 109.914  0.00  0.00     0.382 C 
ATOM     23  O   LIG d   1       3.743  84.662 109.775  0.00  0.00    -0.241 OA
ATOM     24  O   LIG d   1       4.474  82.650 109.494  0.00  0.00    -0.241 OA
ENDBRANCH   3  22
TORSDOF 7
ENDMDL
MODEL 4
REMARK VINA RESULT:      -5.5      3.841      5.833
REMARK  7 active torsions:
REMARK  status: ('A' for Active; 'I' for Inactive)
REMARK    1  A    between atoms: C_2  and  C_3 
REMARK    2  A    between atoms: C_3  and  O_6 
REMARK    3  A    between atoms: C_3  and  C_4 
REMARK    4  A    between atoms: C_7  and  O_6 
REMARK    5  A    between atoms: C_9  and  C_10 
REMARK    6  A    between atoms: N_15  and  C_14 
REMARK    7  A    between atoms: N_20  and  C_19 
REMARK       I    between atoms: C_22  and  N_20 
ROOT
ATOM      1  C   LIG d   1       2.626  85.801 112.874  0.00  0.00     0.161 C 
ATOM      2  C   LIG d   1       1.578  84.933 113.221  0.00  0.00     0.016 C 
ATOM      3  C   LIG d   1       0.703  85.164 114.308  0.00  0.00     0.038 C 
ATOM      4  C   LIG d   1       0.724  86.363 115.034  0.00  0.00     0.028 C 
ATOM      5  C   LIG d   1       2.089  87.044 115.042  0.00  0.00    -0.047 C 
ATOM      6  C   LIG d   1       2.594  87.170 113.586  0.00  0.00     0.091 C 
ENDROOT
BRANCH   1   7
ATOM      7  O   LIG d   1       2.659  85.981 111.445  0.00  0.00    -0.368 OA
BRANCH   7   8
ATOM      8  C   LIG d   1       1.679  85.232 110.685  0.00  0.00     0.119 C 
BRANCH   8   9
ATOM      9  C   LIG d   1       2.438  84.438 109.605  0.00  0.00     0.028 C 
ATOM     10  C   LIG d   1       3.850  84.031 110.059  0.00  0.00     0.006 C 
ENDBRANCH   8   9
BRANCH   8  11
ATOM     11  C   LIG d   1       0.738  86.164 109.917  0.00  0.00     0.028 C 
ATOM     12  C   LIG d   1      -0.537  86.505 110.705  0.00  0.00     0.006 C 
ENDBRANCH   8  11
ENDBRANCH   7   8
ENDBRANCH   1   7
BRANCH   6  13
ATOM     13  N   LIG d   1       3.961  87.749 113.509  0.00  0.00    -0.311 N 
ATOM     14  C   LIG d   1       4.202  89.021 113.197  0.00  0.00     0.210 C 
ATOM     15  C   LIG d   1       5.684  89.407 113.154  0.00  0.00     0.109 C 
ATOM     16  O   LIG d   1       3.328  89.874 112.982  0.00  0.00    -0.276 OA
ATOM     17  H   LIG d   1       4.728  87.134 113.699  0.00  0.00     0.149 HD
ENDBRANCH   6  13
BRANCH   5  18
ATOM     18  N   LIG d   1       1.933  88.347 115.715  0.00  0.00     0.381 N 
ATOM     19  H   LIG d   1       2.334  89.070 115.151  0.00  0.00    -0.090 HD
ATOM     20  H   LIG d   1       2.426  88.321 116.590  0.00  0.00    -0.090 HD
ATOM     21  H   LIG d   1       0.968  88.536 115.874  0.00  0.00    -0.090 HD
ENDBRANCH   5  18
BRANCH   3  22
ATOM     22  C   LIG d   1      -0.179  84.170 114.703  0.00  0.00     0.382 C 
ATOM     23  O   LIG d   1      -1.263  84.014 114.091  0.00  0.00    -0.241 OA
ATOM     24  O   LIG d   1       0.075  83.456 115.691  0.00  0.00    -0.241 OA
ENDBRANCH   3  22
TORSDOF 7
ENDMDL
MODEL 5
REMARK VINA RESULT:      -5.5      2.874      4.886
REMARK  7 active torsions:
REMARK  status: ('A' for Active; 'I' for Inactive)
REMARK    1  A    between atoms: C_2  and  C_3 
REMARK    2  A    between atoms: C_3  and  O_6 
REMARK    3  A    between atoms: C_3  and  C_4 
REMARK    4  A    between atoms: C_7  and  O_6 
REMARK    5  A    between atoms: C_9  and  C_10 
REMARK    6  A    between atoms: N_15  and  C_14 
REMARK    7  A    between atoms: N_20  and  C_19 
REMARK       I    between atoms: C_22  and  N_20 
ROOT
ATOM      1  C   LIG d   1       2.155  84.565 113.076  0.00  0.00     0.161 C 
ATOM      2  C   LIG d   1       1.239  83.576 112.679  0.00  0.00     0.016 C 
ATOM      3  C   LIG d   1      -0.115  83.561 113.085  0.00  0.00     0.038 C 
ATOM      4  C   LIG d   1      -0.686  84.625 113.800  0.00  0.00     0.028 C 
ATOM      5  C   LIG d   1       0.320  85.393 114.649  0.00  0.00    -0.047 C 
ATOM      6  C   LIG d   1       1.523  85.792 113.764  0.00  0.00     0.091 C 
ENDROOT
BRANCH   1   7
ATOM      7  O   LIG d   1       2.949  84.977 111.946  0.00  0.00    -0.368 OA
BRANCH   7   8
ATOM      8  C   LIG d   1       2.418  84.647 110.639  0.00  0.00     0.119 C 
BRANCH   8   9
ATOM      9  C   LIG d   1       3.613  84.327 109.721  0.00  0.00     0.028 C 
ATOM     10  C   LIG d   1       3.928  82.822 109.671  0.00  0.00     0.006 C 
ENDBRANCH   8   9
BRANCH   8  11
ATOM     11  C   LIG d   1       1.726  85.854 109.998  0.00  0.00     0.028 C 
ATOM     12  C   LIG d   1       0.249  85.589 109.669  0.00  0.00     0.006 C 
ENDBRANCH   8  11
ENDBRANCH   7   8
ENDBRANCH   1   7
BRANCH   6  13
ATOM     13  N   LIG d   1       2.593  86.476 114.537  0.00  0.00    -0.311 N 
ATOM     14  C   LIG d   1       3.167  87.613 114.147  0.00  0.00     0.210 C 
ATOM     15  C   LIG d   1       4.263  88.137 115.080  0.00  0.00     0.109 C 
ATOM     16  O   LIG d   1       2.849  88.254 113.134  0.00  0.00    -0.276 OA
ATOM     17  H   LIG d   1       2.890  86.040 115.388  0.00  0.00     0.149 HD
ENDBRANCH   6  13
BRANCH   5  18
ATOM     18  N   LIG d   1      -0.381  86.554 115.230  0.00  0.00     0.381 N 
ATOM     19  H   LIG d   1       0.054  86.817 116.091  0.00  0.00    -0.090 HD
ATOM     20  H   LIG d   1      -1.333  86.296 115.422  0.00  0.00    -0.090 HD
ATOM     21  H   LIG d   1      -0.360  87.319 114.592  0.00  0.00    -0.090 HD
ENDBRANCH   5  18
BRANCH   3  22
ATOM     22  C   LIG d   1      -0.903  82.454 112.811  0.00  0.00     0.382 C 
ATOM     23  O   LIG d   1      -0.876  81.460 113.576  0.00  0.00    -0.241 OA
ATOM     24  O   LIG d   1      -1.607  82.418 111.784  0.00  0.00    -0.241 OA
ENDBRANCH   3  22
TORSDOF 7
ENDMDL
MODEL 6
REMARK VINA RESULT:      -5.4      3.680      7.140
REMARK  7 active torsions:
REMARK  status: ('A' for Active; 'I' for Inactive)
REMARK    1  A    between atoms: C_2  and  C_3 
REMARK    2  A    between atoms: C_3  and  O_6 
REMARK    3  A    between atoms: C_3  and  C_4 
REMARK    4  A    between atoms: C_7  and  O_6 
REMARK    5  A    between atoms: C_9  and  C_10 
REMARK    6  A    between atoms: N_15  and  C_14 
REMARK    7  A    between atoms: N_20  and  C_19 
REMARK       I    between atoms: C_22  and  N_20 
ROOT
ATOM      1  C   LIG d   1       2.775  86.105 112.409  0.00  0.00     0.161 C 
ATOM      2  C   LIG d   1       3.518  87.281 112.211  0.00  0.00     0.016 C 
ATOM      3  C   LIG d   1       4.014  88.076 113.270  0.00  0.00     0.038 C 
ATOM      4  C   LIG d   1       3.930  87.664 114.609  0.00  0.00     0.028 C 
ATOM      5  C   LIG d   1       2.749  86.739 114.885  0.00  0.00    -0.047 C 
ATOM      6  C   LIG d   1       2.768  85.581 113.861  0.00  0.00     0.091 C 
ENDROOT
BRANCH   1   7
ATOM      7  O   LIG d   1       3.235  85.079 111.508  0.00  0.00    -0.368 OA
BRANCH   7   8
ATOM      8  C   LIG d   1       2.718  85.139 110.156  0.00  0.00     0.119 C 
BRANCH   8   9
ATOM      9  C   LIG d   1       1.182  85.226 110.252  0.00  0.00     0.028 C 
ATOM     10  C   LIG d   1       0.521  83.841 110.346  0.00  0.00     0.006 C 
ENDBRANCH   8   9
BRANCH   8  11
ATOM     11  C   LIG d   1       3.004  83.843 109.392  0.00  0.00     0.028 C 
ATOM     12  C   LIG d   1       4.221  83.082 109.944  0.00  0.00     0.006 C 
ENDBRANCH   8  11
ENDBRANCH   7   8
ENDBRANCH   1   7
BRANCH   6  13
ATOM     13  N   LIG d   1       1.599  84.676 114.007  0.00  0.00    -0.311 N 
ATOM     14  C   LIG d   1       0.338  85.078 113.859  0.00  0.00     0.210 C 
ATOM     15  C   LIG d   1      -0.717  83.988 114.072  0.00  0.00     0.109 C 
ATOM     16  O   LIG d   1      -0.006  86.226 113.539  0.00  0.00    -0.276 OA
ATOM     17  H   LIG d   1       1.788  83.719 114.235  0.00  0.00     0.149 HD
ENDBRANCH   6  13
BRANCH   5  18
ATOM     18  N   LIG d   1       2.861  86.278 116.281  0.00  0.00     0.381 N 
ATOM     19  H   LIG d   1       3.341  85.401 116.311  0.00  0.00    -0.090 HD
ATOM     20  H   LIG d   1       1.938  86.145 116.655  0.00  0.00    -0.090 HD
ATOM     21  H   LIG d   1       3.352  86.953 116.825  0.00  0.00    -0.090 HD
ENDBRANCH   5  18
BRANCH   3  22
ATOM     22  C   LIG d   1       4.568  89.317 112.997  0.00  0.00     0.382 C 
ATOM     23  O   LIG d   1       5.815  89.456 112.972  0.00  0.00    -0.241 OA
ATOM     24  O   LIG d   1       3.837  90.310 112.818  0.00  0.00    -0.241 OA
ENDBRANCH   3  22
TORSDOF 7
ENDMDL
MODEL 7
REMARK VINA RESULT:      -5.4      2.520      5.566
REMARK  7 active torsions:
REMARK  status: ('A' for Active; 'I' for Inactive)
REMARK    1  A    between atoms: C_2  and  C_3 
REMARK    2  A    between atoms: C_3  and  O_6 
REMARK    3  A    between atoms: C_3  and  C_4 
REMARK    4  A    between atoms: C_7  and  O_6 
REMARK    5  A    between atoms: C_9  and  C_10 
REMARK    6  A    between atoms: N_15  and  C_14 
REMARK    7  A    between atoms: N_20  and  C_19 
REMARK       I    between atoms: C_22  and  N_20 
ROOT
ATOM      1  C   LIG d   1       2.739  84.578 112.576  0.00  0.00     0.161 C 
ATOM      2  C   LIG d   1       3.187  85.882 112.845  0.00  0.00     0.016 C 
ATOM      3  C   LIG d   1       2.841  87.002 112.055  0.00  0.00     0.038 C 
ATOM      4  C   LIG d   1       1.894  86.917 111.023  0.00  0.00     0.028 C 
ATOM      5  C   LIG d   1       1.803  85.530 110.397  0.00  0.00    -0.047 C 
ATOM      6  C   LIG d   1       1.617  84.484 111.520  0.00  0.00     0.091 C 
ENDROOT
BRANCH   1   7
ATOM      7  O   LIG d   1       2.328  83.939 113.801  0.00  0.00    -0.368 OA
BRANCH   7   8
ATOM      8  C   LIG d   1       0.966  84.191 114.226  0.00  0.00     0.119 C 
BRANCH   8   9
ATOM      9  C   LIG d   1       1.030  85.045 115.507  0.00  0.00     0.028 C 
ATOM     10  C   LIG d   1       0.350  86.413 115.335  0.00  0.00     0.006 C 
ENDBRANCH   8   9
BRANCH   8  11
ATOM     11  C   LIG d   1       0.262  82.895 114.637  0.00  0.00     0.028 C 
ATOM     12  C   LIG d   1      -1.195  82.828 114.152  0.00  0.00     0.006 C 
ENDBRANCH   8  11
ENDBRANCH   7   8
ENDBRANCH   1   7
BRANCH   6  13
ATOM     13  N   LIG d   1       1.603  83.091 111.002  0.00  0.00    -0.311 N 
ATOM     14  C   LIG d   1       0.486  82.437 110.689  0.00  0.00     0.210 C 
ATOM     15  C   LIG d   1       0.694  81.004 110.191  0.00  0.00     0.109 C 
ATOM     16  O   LIG d   1      -0.656  82.919 110.745  0.00  0.00    -0.276 OA
ATOM     17  H   LIG d   1       2.487  82.635 110.895  0.00  0.00     0.149 HD
ENDBRANCH   6  13
BRANCH   5  18
ATOM     18  N   LIG d   1       0.686  85.548 109.434  0.00  0.00     0.381 N 
ATOM     19  H   LIG d   1       0.025  84.834 109.667  0.00  0.00    -0.090 HD
ATOM     20  H   LIG d   1       1.046  85.356 108.515  0.00  0.00    -0.090 HD
ATOM     21  H   LIG d   1       0.241  86.439 109.445  0.00  0.00    -0.090 HD
ENDBRANCH   5  18
BRANCH   3  22
ATOM     22  C   LIG d   1       3.475  88.216 112.269  0.00  0.00     0.382 C 
ATOM     23  O   LIG d   1       4.727  88.282 112.246  0.00  0.00    -0.241 OA
ATOM     24  O   LIG d   1       2.811  89.238 112.529  0.00  0.00    -0.241 OA
ENDBRANCH   3  22
TORSDOF 7
ENDMDL
MODEL 8
REMARK VINA RESULT:      -5.2      5.960      9.030
REMARK  7 active torsions:
REMARK  status: ('A' for Active; 'I' for Inactive)
REMARK    1  A    between atoms: C_2  and  C_3 
REMARK    2  A    between atoms: C_3  and  O_6 
REMARK    3  A    between atoms: C_3  and  C_4 
REMARK    4  A    between atoms: C_7  and  O_6 
REMARK    5  A    between atoms: C_9  and  C_10 
REMARK    6  A    between atoms: N_15  and  C_14 
REMARK    7  A    between atoms: N_20  and  C_19 
REMARK       I    between atoms: C_22  and  N_20 
ROOT
ATOM      1  C   LIG d   1      -2.902  77.006 116.325  0.00  0.00     0.161 C 
ATOM      2  C   LIG d   1      -3.213  78.048 115.436  0.00  0.00     0.016 C 
ATOM      3  C   LIG d   1      -2.316  78.525 114.452  0.00  0.00     0.038 C 
ATOM      4  C   LIG d   1      -1.094  77.887 114.191  0.00  0.00     0.028 C 
ATOM      5  C   LIG d   1      -0.525  77.151 115.399  0.00  0.00    -0.047 C 
ATOM      6  C   LIG d   1      -1.616  76.224 115.982  0.00  0.00     0.091 C 
ENDROOT
BRANCH   1   7
ATOM      7  O   LIG d   1      -4.022  76.105 116.434  0.00  0.00    -0.368 OA
BRANCH   7   8
ATOM      8  C   LIG d   1      -5.283  76.591 115.912  0.00  0.00     0.119 C 
BRANCH   8   9
ATOM      9  C   LIG d   1      -6.247  76.751 117.104  0.00  0.00     0.028 C 
ATOM     10  C   LIG d   1      -7.541  75.939 116.926  0.00  0.00     0.006 C 
ENDBRANCH   8   9
BRANCH   8  11
ATOM     11  C   LIG d   1      -5.942  75.557 114.994  0.00  0.00     0.028 C 
ATOM     12  C   LIG d   1      -4.919  74.729 114.200  0.00  0.00     0.006 C 
ENDBRANCH   8  11
ENDBRANCH   7   8
ENDBRANCH   1   7
BRANCH   6  13
ATOM     13  N   LIG d   1      -1.169  75.529 117.217  0.00  0.00    -0.311 N 
ATOM     14  C   LIG d   1      -0.442  74.414 117.208  0.00  0.00     0.210 C 
ATOM     15  C   LIG d   1      -0.105  73.850 118.592  0.00  0.00     0.109 C 
ATOM     16  O   LIG d   1      -0.015  73.856 116.186  0.00  0.00    -0.276 OA
ATOM     17  H   LIG d   1      -1.444  75.931 118.092  0.00  0.00     0.149 HD
ENDBRANCH   6  13
BRANCH   5  18
ATOM     18  N   LIG d   1       0.675  76.419 114.950  0.00  0.00     0.381 N 
ATOM     19  H   LIG d   1       1.182  76.081 115.743  0.00  0.00    -0.090 HD
ATOM     20  H   LIG d   1       1.269  77.050 114.441  0.00  0.00    -0.090 HD
ATOM     21  H   LIG d   1       0.410  75.657 114.365  0.00  0.00    -0.090 HD
ENDBRANCH   5  18
BRANCH   3  22
ATOM     22  C   LIG d   1      -2.622  79.678 113.745  0.00  0.00     0.382 C 
ATOM     23  O   LIG d   1      -2.877  80.741 114.360  0.00  0.00    -0.241 OA
ATOM     24  O   LIG d   1      -2.689  79.657 112.501  0.00  0.00    -0.241 OA
ENDBRANCH   3  22
TORSDOF 7
ENDMDL
MODEL 9
REMARK VINA RESULT:      -5.1      8.083     10.215
REMARK  7 active torsions:
REMARK  status: ('A' for Active; 'I' for Inactive)
REMARK    1  A    between atoms: C_2  and  C_3 
REMARK    2  A    between atoms: C_3  and  O_6 
REMARK    3  A    between atoms: C_3  and  C_4 
REMARK    4  A    between atoms: C_7  and  O_6 
REMARK    5  A    between atoms: C_9  and  C_10 
REMARK    6  A    between atoms: N_15  and  C_14 
REMARK    7  A    between atoms: N_20  and  C_19 
REMARK       I    between atoms: C_22  and  N_20 
ROOT
ATOM      1  C   LIG d   1      -3.266  77.173 115.265  0.00  0.00     0.161 C 
ATOM      2  C   LIG d   1      -2.347  76.172 114.905  0.00  0.00     0.016 C 
ATOM      3  C   LIG d   1      -1.394  75.633 115.800  0.00  0.00     0.038 C 
ATOM      4  C   LIG d   1      -1.395  75.953 117.165  0.00  0.00     0.028 C 
ATOM      5  C   LIG d   1      -1.974  77.331 117.465  0.00  0.00    -0.047 C 
ATOM      6  C   LIG d   1      -3.355  77.454 116.780  0.00  0.00     0.091 C 
ENDROOT
BRANCH   1   7
ATOM      7  O   LIG d   1      -4.568  76.853 114.737  0.00  0.00    -0.368 OA
BRANCH   7   8
ATOM      8  C   LIG d   1      -5.236  75.714 115.334  0.00  0.00     0.119 C 
BRANCH   8   9
ATOM      9  C   LIG d   1      -5.397  74.645 114.237  0.00  0.00     0.028 C 
ATOM     10  C   LIG d   1      -5.633  73.240 114.816  0.00  0.00     0.006 C 
ENDBRANCH   8   9
BRANCH   8  11
ATOM     11  C   LIG d   1      -6.661  76.068 115.768  0.00  0.00     0.028 C 
ATOM     12  C   LIG d   1      -6.908  75.820 117.264  0.00  0.00     0.006 C 
ENDBRANCH   8  11
ENDBRANCH   7   8
ENDBRANCH   1   7
BRANCH   6  13
ATOM     13  N   LIG d   1      -3.954  78.803 116.952  0.00  0.00    -0.311 N 
ATOM     14  C   LIG d   1      -4.775  79.118 117.952  0.00  0.00     0.210 C 
ATOM     15  C   LIG d   1      -5.297  80.558 117.932  0.00  0.00     0.109 C 
ATOM     16  O   LIG d   1      -5.095  78.351 118.873  0.00  0.00    -0.276 OA
ATOM     17  H   LIG d   1      -3.723  79.496 116.267  0.00  0.00     0.149 HD
ENDBRANCH   6  13
BRANCH   5  18
ATOM     18  N   LIG d   1      -2.041  77.478 118.931  0.00  0.00     0.381 N 
ATOM     19  H   LIG d   1      -2.670  78.219 119.169  0.00  0.00    -0.090 HD
ATOM     20  H   LIG d   1      -1.128  77.716 119.276  0.00  0.00    -0.090 HD
ATOM     21  H   LIG d   1      -2.349  76.626 119.345  0.00  0.00    -0.090 HD
ENDBRANCH   5  18
BRANCH   3  22
ATOM     22  C   LIG d   1      -0.401  74.793 115.320  0.00  0.00     0.382 C 
ATOM     23  O   LIG d   1       0.173  73.992 116.098  0.00  0.00    -0.241 OA
ATOM     24  O   LIG d   1      -0.040  74.856 114.130  0.00  0.00    -0.241 OA
ENDBRANCH   3  22
TORSDOF 7
ENDMDL
