MODEL 1
REMARK VINA RESULT:      -6.5      0.000      0.000
REMARK  7 active torsions:
REMARK  status: ('A' for Active; 'I' for Inactive)
REMARK    1  A    between atoms: C_2  and  C_3 
REMARK    2  A    between atoms: C_3  and  O_6 
REMARK    3  A    between atoms: C_3  and  C_4 
REMARK    4  A    between atoms: C_7  and  O_6 
REMARK    5  A    between atoms: C_9  and  C_10 
REMARK    6  A    between atoms: N_15  and  C_14 
REMARK    7  A    between atoms: N_20  and  C_19 
REMARK       I    between atoms: C_22  and  N_20 
ROOT
ATOM      1  C   LIG d   1       0.343  82.918 110.944  0.00  0.00     0.161 C 
ATOM      2  C   LIG d   1      -0.749  82.617 111.774  0.00  0.00     0.016 C 
ATOM      3  C   LIG d   1      -1.225  81.302 111.987  0.00  0.00     0.038 C 
ATOM      4  C   LIG d   1      -0.541  80.178 111.500  0.00  0.00     0.028 C 
ATOM      5  C   LIG d   1       0.273  80.462 110.242  0.00  0.00    -0.047 C 
ATOM      6  C   LIG d   1       1.170  81.696 110.493  0.00  0.00     0.091 C 
ENDROOT
BRANCH   1   7
ATOM      7  O   LIG d   1       1.193  83.888 111.588  0.00  0.00    -0.368 OA
BRANCH   7   8
ATOM      8  C   LIG d   1       1.177  85.223 111.026  0.00  0.00     0.119 C 
BRANCH   8   9
ATOM      9  C   LIG d   1       0.161  85.225 109.867  0.00  0.00     0.028 C 
ATOM     10  C   LIG d   1       0.819  85.526 108.510  0.00  0.00     0.006 C 
ENDBRANCH   8   9
BRANCH   8  11
ATOM     11  C   LIG d   1       2.524  85.574 110.385  0.00  0.00     0.028 C 
ATOM     12  C   LIG d   1       3.722  85.065 111.201  0.00  0.00     0.006 C 
ENDBRANCH   8  11
ENDBRANCH   7   8
ENDBRANCH   1   7
BRANCH   6  13
ATOM     13  N   LIG d   1       1.938  82.093 109.284  0.00  0.00    -0.311 N 
ATOM     14  C   LIG d   1       3.268  82.056 109.215  0.00  0.00     0.210 C 
ATOM     15  C   LIG d   1       3.860  82.527 107.883  0.00  0.00     0.109 C 
ATOM     16  O   LIG d   1       4.011  81.646 110.119  0.00  0.00    -0.276 OA
ATOM     17  H   LIG d   1       1.412  82.409 108.493  0.00  0.00     0.149 HD
ENDBRANCH   6  13
BRANCH   5  18
ATOM     18  N   LIG d   1       1.041  79.244 109.924  0.00  0.00     0.381 N 
ATOM     19  H   LIG d   1       0.674  78.468 110.437  0.00  0.00    -0.090 HD
ATOM     20  H   LIG d   1       1.997  79.381 110.200  0.00  0.00    -0.090 HD
ATOM     21  H   LIG d   1       0.994  79.057 108.946  0.00  0.00    -0.090 HD
ENDBRANCH   5  18
BRANCH   3  22
ATOM     22  C   LIG d   1      -2.420  81.105 112.661  0.00  0.00     0.382 C 
ATOM     23  O   LIG d   1      -3.478  81.619 112.225  0.00  0.00    -0.241 OA
ATOM     24  O   LIG d   1      -2.446  80.457 113.724  0.00  0.00    -0.241 OA
ENDBRANCH   3  22
TORSDOF 7
ENDMDL
MODEL 2
REMARK VINA RESULT:      -6.5      2.805      3.999
REMARK  7 active torsions:
REMARK  status: ('A' for Active; 'I' for Inactive)
REMARK    1  A    between atoms: C_2  and  C_3 
REMARK    2  A    between atoms: C_3  and  O_6 
REMARK    3  A    between atoms: C_3  and  C_4 
REMARK    4  A    between atoms: C_7  and  O_6 
REMARK    5  A    between atoms: C_9  and  C_10 
REMARK    6  A    between atoms: N_15  and  C_14 
REMARK    7  A    between atoms: N_20  and  C_19 
REMARK       I    between atoms: C_22  and  N_20 
ROOT
ATOM      1  C   LIG d   1       2.320  85.270 110.123  0.00  0.00     0.161 C 
ATOM      2  C   LIG d   1       1.333  86.045 110.754  0.00  0.00     0.016 C 
ATOM      3  C   LIG d   1       0.050  85.552 111.085  0.00  0.00     0.038 C 
ATOM      4  C   LIG d   1      -0.283  84.197 110.942  0.00  0.00     0.028 C 
ATOM      5  C   LIG d   1       0.506  83.492 109.844  0.00  0.00    -0.047 C 
ATOM      6  C   LIG d   1       2.013  83.759 110.060  0.00  0.00     0.091 C 
ENDROOT
BRANCH   1   7
ATOM      7  O   LIG d   1       3.597  85.496 110.753  0.00  0.00    -0.368 OA
BRANCH   7   8
ATOM      8  C   LIG d   1       3.560  85.853 112.156  0.00  0.00     0.119 C 
BRANCH   8   9
ATOM      9  C   LIG d   1       4.703  86.855 112.409  0.00  0.00     0.028 C 
ATOM     10  C   LIG d   1       5.008  87.032 113.906  0.00  0.00     0.006 C 
ENDBRANCH   8   9
BRANCH   8  11
ATOM     11  C   LIG d   1       3.875  84.646 113.046  0.00  0.00     0.028 C 
ATOM     12  C   LIG d   1       2.633  84.097 113.766  0.00  0.00     0.006 C 
ENDBRANCH   8  11
ENDBRANCH   7   8
ENDBRANCH   1   7
BRANCH   6  13
ATOM     13  N   LIG d   1       2.852  83.174 108.981  0.00  0.00    -0.311 N 
ATOM     14  C   LIG d   1       3.788  82.252 109.199  0.00  0.00     0.210 C 
ATOM     15  C   LIG d   1       4.552  81.799 107.951  0.00  0.00     0.109 C 
ATOM     16  O   LIG d   1       4.036  81.743 110.302  0.00  0.00    -0.276 OA
ATOM     17  H   LIG d   1       2.696  83.508 108.050  0.00  0.00     0.149 HD
ENDBRANCH   6  13
BRANCH   5  18
ATOM     18  N   LIG d   1       0.160  82.059 109.897  0.00  0.00     0.381 N 
ATOM     19  H   LIG d   1       0.393  81.687 110.796  0.00  0.00    -0.090 HD
ATOM     20  H   LIG d   1       0.697  81.569 109.203  0.00  0.00    -0.090 HD
ATOM     21  H   LIG d   1      -0.813  81.937 109.721  0.00  0.00    -0.090 HD
ENDBRANCH   5  18
BRANCH   3  22
ATOM     22  C   LIG d   1      -0.929  86.428 111.528  0.00  0.00     0.382 C 
ATOM     23  O   LIG d   1      -1.267  86.431 112.737  0.00  0.00    -0.241 OA
ATOM     24  O   LIG d   1      -1.510  87.185 110.727  0.00  0.00    -0.241 OA
ENDBRANCH   3  22
TORSDOF 7
ENDMDL
MODEL 3
REMARK VINA RESULT:      -6.4      2.377      3.767
REMARK  7 active torsions:
REMARK  status: ('A' for Active; 'I' for Inactive)
REMARK    1  A    between atoms: C_2  and  C_3 
REMARK    2  A    between atoms: C_3  and  O_6 
REMARK    3  A    between atoms: C_3  and  C_4 
REMARK    4  A    between atoms: C_7  and  O_6 
REMARK    5  A    between atoms: C_9  and  C_10 
REMARK    6  A    between atoms: N_15  and  C_14 
REMARK    7  A    between atoms: N_20  and  C_19 
REMARK       I    between atoms: C_22  and  N_20 
ROOT
ATOM      1  C   LIG d   1       0.891  83.594 109.392  0.00  0.00     0.161 C 
ATOM      2  C   LIG d   1       0.448  84.825 109.904  0.00  0.00     0.016 C 
ATOM      3  C   LIG d   1      -0.250  84.954 111.126  0.00  0.00     0.038 C 
ATOM      4  C   LIG d   1      -0.421  83.869 112.000  0.00  0.00     0.028 C 
ATOM      5  C   LIG d   1      -0.434  82.518 111.293  0.00  0.00    -0.047 C 
ATOM      6  C   LIG d   1       0.812  82.415 110.384  0.00  0.00     0.091 C 
ENDROOT
BRANCH   1   7
ATOM      7  O   LIG d   1       2.233  83.731 108.883  0.00  0.00    -0.368 OA
BRANCH   7   8
ATOM      8  C   LIG d   1       3.297  83.660 109.864  0.00  0.00     0.119 C 
BRANCH   8   9
ATOM      9  C   LIG d   1       3.752  85.102 110.158  0.00  0.00     0.028 C 
ATOM     10  C   LIG d   1       3.783  85.412 111.664  0.00  0.00     0.006 C 
ENDBRANCH   8   9
BRANCH   8  11
ATOM     11  C   LIG d   1       4.531  82.952 109.296  0.00  0.00     0.028 C 
ATOM     12  C   LIG d   1       4.248  82.235 107.967  0.00  0.00     0.006 C 
ENDBRANCH   8  11
ENDBRANCH   7   8
ENDBRANCH   1   7
BRANCH   6  13
ATOM     13  N   LIG d   1       0.833  81.158 109.592  0.00  0.00    -0.311 N 
ATOM     14  C   LIG d   1       1.771  80.222 109.726  0.00  0.00     0.210 C 
ATOM     15  C   LIG d   1       1.616  79.014 108.797  0.00  0.00     0.109 C 
ATOM     16  O   LIG d   1       2.699  80.264 110.547  0.00  0.00    -0.276 OA
ATOM     17  H   LIG d   1       0.099  81.028 108.923  0.00  0.00     0.149 HD
ENDBRANCH   6  13
BRANCH   5  18
ATOM     18  N   LIG d   1      -0.480  81.472 112.332  0.00  0.00     0.381 N 
ATOM     19  H   LIG d   1       0.450  81.214 112.594  0.00  0.00    -0.090 HD
ATOM     20  H   LIG d   1      -0.939  80.661 111.957  0.00  0.00    -0.090 HD
ATOM     21  H   LIG d   1      -0.977  81.805 113.130  0.00  0.00    -0.090 HD
ENDBRANCH   5  18
BRANCH   3  22
ATOM     22  C   LIG d   1      -0.821  86.170 111.467  0.00  0.00     0.382 C 
ATOM     23  O   LIG d   1      -1.163  86.392 112.654  0.00  0.00    -0.241 OA
ATOM     24  O   LIG d   1      -1.038  87.033 110.595  0.00  0.00    -0.241 OA
ENDBRANCH   3  22
TORSDOF 7
ENDMDL
MODEL 4
REMARK VINA RESULT:      -6.3      1.683      4.984
REMARK  7 active torsions:
REMARK  status: ('A' for Active; 'I' for Inactive)
REMARK    1  A    between atoms: C_2  and  C_3 
REMARK    2  A    between atoms: C_3  and  O_6 
REMARK    3  A    between atoms: C_3  and  C_4 
REMARK    4  A    between atoms: C_7  and  O_6 
REMARK    5  A    between atoms: C_9  and  C_10 
REMARK    6  A    between atoms: N_15  and  C_14 
REMARK    7  A    between atoms: N_20  and  C_19 
REMARK       I    between atoms: C_22  and  N_20 
ROOT
ATOM      1  C   LIG d   1       1.262  82.223 111.816  0.00  0.00     0.161 C 
ATOM      2  C   LIG d   1       2.301  82.732 111.019  0.00  0.00     0.016 C 
ATOM      3  C   LIG d   1       2.453  82.422 109.648  0.00  0.00     0.038 C 
ATOM      4  C   LIG d   1       1.484  81.697 108.940  0.00  0.00     0.028 C 
ATOM      5  C   LIG d   1       0.681  80.741 109.817  0.00  0.00    -0.047 C 
ATOM      6  C   LIG d   1       0.133  81.520 111.035  0.00  0.00     0.091 C 
ENDROOT
BRANCH   1   7
ATOM      7  O   LIG d   1       0.721  83.273 112.642  0.00  0.00    -0.368 OA
BRANCH   7   8
ATOM      8  C   LIG d   1       0.877  84.623 112.141  0.00  0.00     0.119 C 
BRANCH   8   9
ATOM      9  C   LIG d   1       1.313  85.509 113.324  0.00  0.00     0.028 C 
ATOM     10  C   LIG d   1       2.467  86.456 112.955  0.00  0.00     0.006 C 
ENDBRANCH   8   9
BRANCH   8  11
ATOM     11  C   LIG d   1      -0.462  85.202 111.673  0.00  0.00     0.028 C 
ATOM     12  C   LIG d   1      -0.425  85.685 110.215  0.00  0.00     0.006 C 
ENDBRANCH   8  11
ENDBRANCH   7   8
ENDBRANCH   1   7
BRANCH   6  13
ATOM     13  N   LIG d   1      -0.594  80.641 111.988  0.00  0.00    -0.311 N 
ATOM     14  C   LIG d   1      -1.780  80.949 112.511  0.00  0.00     0.210 C 
ATOM     15  C   LIG d   1      -2.344  79.913 113.488  0.00  0.00     0.109 C 
ATOM     16  O   LIG d   1      -2.432  81.967 112.234  0.00  0.00    -0.276 OA
ATOM     17  H   LIG d   1      -0.151  79.780 112.243  0.00  0.00     0.149 HD
ENDBRANCH   6  13
BRANCH   5  18
ATOM     18  N   LIG d   1      -0.382  80.154 108.979  0.00  0.00     0.381 N 
ATOM     19  H   LIG d   1      -0.726  79.318 109.407  0.00  0.00    -0.090 HD
ATOM     20  H   LIG d   1       0.006  79.913 108.084  0.00  0.00    -0.090 HD
ATOM     21  H   LIG d   1      -1.125  80.807 108.864  0.00  0.00    -0.090 HD
ENDBRANCH   5  18
BRANCH   3  22
ATOM     22  C   LIG d   1       3.606  82.806 108.980  0.00  0.00     0.382 C 
ATOM     23  O   LIG d   1       3.815  82.407 107.809  0.00  0.00    -0.241 OA
ATOM     24  O   LIG d   1       4.461  83.510 109.550  0.00  0.00    -0.241 OA
ENDBRANCH   3  22
TORSDOF 7
ENDMDL
MODEL 5
REMARK VINA RESULT:      -6.2      2.317      4.136
REMARK  7 active torsions:
REMARK  status: ('A' for Active; 'I' for Inactive)
REMARK    1  A    between atoms: C_2  and  C_3 
REMARK    2  A    between atoms: C_3  and  O_6 
REMARK    3  A    between atoms: C_3  and  C_4 
REMARK    4  A    between atoms: C_7  and  O_6 
REMARK    5  A    between atoms: C_9  and  C_10 
REMARK    6  A    between atoms: N_15  and  C_14 
REMARK    7  A    between atoms: N_20  and  C_19 
REMARK       I    between atoms: C_22  and  N_20 
ROOT
ATOM      1  C   LIG d   1       2.183  82.706 111.744  0.00  0.00     0.161 C 
ATOM      2  C   LIG d   1       1.053  81.873 111.698  0.00  0.00     0.016 C 
ATOM      3  C   LIG d   1      -0.272  82.361 111.628  0.00  0.00     0.038 C 
ATOM      4  C   LIG d   1      -0.551  83.723 111.444  0.00  0.00     0.028 C 
ATOM      5  C   LIG d   1       0.535  84.643 111.991  0.00  0.00    -0.047 C 
ATOM      6  C   LIG d   1       1.904  84.191 111.432  0.00  0.00     0.091 C 
ENDROOT
BRANCH   1   7
ATOM      7  O   LIG d   1       3.204  82.193 110.865  0.00  0.00    -0.368 OA
BRANCH   7   8
ATOM      8  C   LIG d   1       2.754  81.728 109.569  0.00  0.00     0.119 C 
BRANCH   8   9
ATOM      9  C   LIG d   1       3.350  80.324 109.349  0.00  0.00     0.028 C 
ATOM     10  C   LIG d   1       2.269  79.260 109.095  0.00  0.00     0.006 C 
ENDBRANCH   8   9
BRANCH   8  11
ATOM     11  C   LIG d   1       3.322  82.591 108.438  0.00  0.00     0.028 C 
ATOM     12  C   LIG d   1       4.849  82.475 108.310  0.00  0.00     0.006 C 
ENDBRANCH   8  11
ENDBRANCH   7   8
ENDBRANCH   1   7
BRANCH   6  13
ATOM     13  N   LIG d   1       3.032  84.986 111.984  0.00  0.00    -0.311 N 
ATOM     14  C   LIG d   1       3.465  86.121 111.438  0.00  0.00     0.210 C 
ATOM     15  C   LIG d   1       4.653  86.771 112.154  0.00  0.00     0.109 C 
ATOM     16  O   LIG d   1       2.958  86.668 110.447  0.00  0.00    -0.276 OA
ATOM     17  H   LIG d   1       3.481  84.632 112.805  0.00  0.00     0.149 HD
ENDBRANCH   6  13
BRANCH   5  18
ATOM     18  N   LIG d   1       0.183  86.024 111.611  0.00  0.00     0.381 N 
ATOM     19  H   LIG d   1       0.383  86.170 110.642  0.00  0.00    -0.090 HD
ATOM     20  H   LIG d   1       0.742  86.663 112.148  0.00  0.00    -0.090 HD
ATOM     21  H   LIG d   1      -0.784  86.190 111.786  0.00  0.00    -0.090 HD
ENDBRANCH   5  18
BRANCH   3  22
ATOM     22  C   LIG d   1      -1.336  81.485 111.781  0.00  0.00     0.382 C 
ATOM     23  O   LIG d   1      -2.411  81.888 112.290  0.00  0.00    -0.241 OA
ATOM     24  O   LIG d   1      -1.221  80.288 111.459  0.00  0.00    -0.241 OA
ENDBRANCH   3  22
TORSDOF 7
ENDMDL
MODEL 6
REMARK VINA RESULT:      -6.1      2.578      4.546
REMARK  7 active torsions:
REMARK  status: ('A' for Active; 'I' for Inactive)
REMARK    1  A    between atoms: C_2  and  C_3 
REMARK    2  A    between atoms: C_3  and  O_6 
REMARK    3  A    between atoms: C_3  and  C_4 
REMARK    4  A    between atoms: C_7  and  O_6 
REMARK    5  A    between atoms: C_9  and  C_10 
REMARK    6  A    between atoms: N_15  and  C_14 
REMARK    7  A    between atoms: N_20  and  C_19 
REMARK       I    between atoms: C_22  and  N_20 
ROOT
ATOM      1  C   LIG d   1       2.250  82.918 110.637  0.00  0.00     0.161 C 
ATOM      2  C   LIG d   1       2.694  81.751 109.993  0.00  0.00     0.016 C 
ATOM      3  C   LIG d   1       1.898  80.591 109.849  0.00  0.00     0.038 C 
ATOM      4  C   LIG d   1       0.542  80.573 110.209  0.00  0.00     0.028 C 
ATOM      5  C   LIG d   1       0.197  81.559 111.320  0.00  0.00    -0.047 C 
ATOM      6  C   LIG d   1       0.737  82.956 110.937  0.00  0.00     0.091 C 
ENDROOT
BRANCH   1   7
ATOM      7  O   LIG d   1       2.638  84.076 109.872  0.00  0.00    -0.368 OA
BRANCH   7   8
ATOM      8  C   LIG d   1       3.749  84.844 110.396  0.00  0.00     0.119 C 
BRANCH   8   9
ATOM      9  C   LIG d   1       4.303  84.083 111.616  0.00  0.00     0.028 C 
ATOM     10  C   LIG d   1       4.660  85.021 112.781  0.00  0.00     0.006 C 
ENDBRANCH   8   9
BRANCH   8  11
ATOM     11  C   LIG d   1       3.283  86.198 110.940  0.00  0.00     0.028 C 
ATOM     12  C   LIG d   1       2.045  86.740 110.209  0.00  0.00     0.006 C 
ENDBRANCH   8  11
ENDBRANCH   7   8
ENDBRANCH   1   7
BRANCH   6  13
ATOM     13  N   LIG d   1       0.516  83.962 112.009  0.00  0.00    -0.311 N 
ATOM     14  C   LIG d   1      -0.274  85.024 111.864  0.00  0.00     0.210 C 
ATOM     15  C   LIG d   1      -0.346  85.947 113.085  0.00  0.00     0.109 C 
ATOM     16  O   LIG d   1      -0.947  85.274 110.853  0.00  0.00    -0.276 OA
ATOM     17  H   LIG d   1       0.999  83.820 112.874  0.00  0.00     0.149 HD
ENDBRANCH   6  13
BRANCH   5  18
ATOM     18  N   LIG d   1      -1.267  81.534 111.499  0.00  0.00     0.381 N 
ATOM     19  H   LIG d   1      -1.709  81.272 110.641  0.00  0.00    -0.090 HD
ATOM     20  H   LIG d   1      -1.580  82.456 111.746  0.00  0.00    -0.090 HD
ATOM     21  H   LIG d   1      -1.512  80.888 112.218  0.00  0.00    -0.090 HD
ENDBRANCH   5  18
BRANCH   3  22
ATOM     22  C   LIG d   1       2.470  79.420 109.376  0.00  0.00     0.382 C 
ATOM     23  O   LIG d   1       3.714  79.264 109.428  0.00  0.00    -0.241 OA
ATOM     24  O   LIG d   1       1.762  78.536 108.858  0.00  0.00    -0.241 OA
ENDBRANCH   3  22
TORSDOF 7
ENDMDL
MODEL 7
REMARK VINA RESULT:      -6.0      2.270      5.573
REMARK  7 active torsions:
REMARK  status: ('A' for Active; 'I' for Inactive)
REMARK    1  A    between atoms: C_2  and  C_3 
REMARK    2  A    between atoms: C_3  and  O_6 
REMARK    3  A    between atoms: C_3  and  C_4 
REMARK    4  A    between atoms: C_7  and  O_6 
REMARK    5  A    between atoms: C_9  and  C_10 
REMARK    6  A    between atoms: N_15  and  C_14 
REMARK    7  A    between atoms: N_20  and  C_19 
REMARK       I    between atoms: C_22  and  N_20 
ROOT
ATOM      1  C   LIG d   1       1.332  82.943 110.258  0.00  0.00     0.161 C 
ATOM      2  C   LIG d   1       1.928  84.192 110.020  0.00  0.00     0.016 C 
ATOM      3  C   LIG d   1       2.513  84.982 111.036  0.00  0.00     0.038 C 
ATOM      4  C   LIG d   1       2.675  84.504 112.345  0.00  0.00     0.028 C 
ATOM      5  C   LIG d   1       1.638  83.459 112.742  0.00  0.00    -0.047 C 
ATOM      6  C   LIG d   1       1.598  82.356 111.659  0.00  0.00     0.091 C 
ENDROOT
BRANCH   1   7
ATOM      7  O   LIG d   1       1.733  82.007 109.238  0.00  0.00    -0.368 OA
BRANCH   7   8
ATOM      8  C   LIG d   1       3.015  81.361 109.435  0.00  0.00     0.119 C 
BRANCH   8   9
ATOM      9  C   LIG d   1       3.900  81.708 108.221  0.00  0.00     0.028 C 
ATOM     10  C   LIG d   1       5.020  82.700 108.576  0.00  0.00     0.006 C 
ENDBRANCH   8   9
BRANCH   8  11
ATOM     11  C   LIG d   1       2.879  79.836 109.415  0.00  0.00     0.028 C 
ATOM     12  C   LIG d   1       1.456  79.369 109.069  0.00  0.00     0.006 C 
ENDBRANCH   8  11
ENDBRANCH   7   8
ENDBRANCH   1   7
BRANCH   6  13
ATOM     13  N   LIG d   1       0.550  81.337 111.927  0.00  0.00    -0.311 N 
ATOM     14  C   LIG d   1      -0.754  81.607 111.915  0.00  0.00     0.210 C 
ATOM     15  C   LIG d   1      -1.664  80.416 112.237  0.00  0.00     0.109 C 
ATOM     16  O   LIG d   1      -1.246  82.711 111.638  0.00  0.00    -0.276 OA
ATOM     17  H   LIG d   1       0.859  80.407 112.130  0.00  0.00     0.149 HD
ENDBRANCH   6  13
BRANCH   5  18
ATOM     18  N   LIG d   1       2.007  82.948 114.075  0.00  0.00     0.381 N 
ATOM     19  H   LIG d   1       1.926  81.951 114.090  0.00  0.00    -0.090 HD
ATOM     20  H   LIG d   1       1.372  83.326 114.756  0.00  0.00    -0.090 HD
ATOM     21  H   LIG d   1       2.941  83.215 114.296  0.00  0.00    -0.090 HD
ENDBRANCH   5  18
BRANCH   3  22
ATOM     22  C   LIG d   1       2.906  86.282 110.757  0.00  0.00     0.382 C 
ATOM     23  O   LIG d   1       4.125  86.581 110.752  0.00  0.00    -0.241 OA
ATOM     24  O   LIG d   1       2.056  87.169 110.552  0.00  0.00    -0.241 OA
ENDBRANCH   3  22
TORSDOF 7
ENDMDL
MODEL 8
REMARK VINA RESULT:      -5.5      1.443      2.096
REMARK  7 active torsions:
REMARK  status: ('A' for Active; 'I' for Inactive)
REMARK    1  A    between atoms: C_2  and  C_3 
REMARK    2  A    between atoms: C_3  and  O_6 
REMARK    3  A    between atoms: C_3  and  C_4 
REMARK    4  A    between atoms: C_7  and  O_6 
REMARK    5  A    between atoms: C_9  and  C_10 
REMARK    6  A    between atoms: N_15  and  C_14 
REMARK    7  A    between atoms: N_20  and  C_19 
REMARK       I    between atoms: C_22  and  N_20 
ROOT
ATOM      1  C   LIG d   1       1.511  82.812 111.137  0.00  0.00     0.161 C 
ATOM      2  C   LIG d   1       0.312  82.458 111.778  0.00  0.00     0.016 C 
ATOM      3  C   LIG d   1      -0.442  81.311 111.440  0.00  0.00     0.038 C 
ATOM      4  C   LIG d   1       0.033  80.352 110.533  0.00  0.00     0.028 C 
ATOM      5  C   LIG d   1       0.994  80.923 109.496  0.00  0.00    -0.047 C 
ATOM      6  C   LIG d   1       2.102  81.719 110.222  0.00  0.00     0.091 C 
ENDROOT
BRANCH   1   7
ATOM      7  O   LIG d   1       2.484  83.227 112.115  0.00  0.00    -0.368 OA
BRANCH   7   8
ATOM      8  C   LIG d   1       2.826  84.635 112.117  0.00  0.00     0.119 C 
BRANCH   8   9
ATOM      9  C   LIG d   1       1.846  85.349 113.067  0.00  0.00     0.028 C 
ATOM     10  C   LIG d   1       2.458  85.611 114.453  0.00  0.00     0.006 C 
ENDBRANCH   8   9
BRANCH   8  11
ATOM     11  C   LIG d   1       2.591  85.267 110.742  0.00  0.00     0.028 C 
ATOM     12  C   LIG d   1       2.129  86.730 110.829  0.00  0.00     0.006 C 
ENDBRANCH   8  11
ENDBRANCH   7   8
ENDBRANCH   1   7
BRANCH   6  13
ATOM     13  N   LIG d   1       3.037  82.382 109.276  0.00  0.00    -0.311 N 
ATOM     14  C   LIG d   1       4.172  81.825 108.856  0.00  0.00     0.210 C 
ATOM     15  C   LIG d   1       4.999  82.688 107.898  0.00  0.00     0.109 C 
ATOM     16  O   LIG d   1       4.556  80.686 109.161  0.00  0.00    -0.276 OA
ATOM     17  H   LIG d   1       2.787  83.296 108.953  0.00  0.00     0.149 HD
ENDBRANCH   6  13
BRANCH   5  18
ATOM     18  N   LIG d   1       1.517  79.794 108.704  0.00  0.00     0.381 N 
ATOM     19  H   LIG d   1       1.080  78.943 108.997  0.00  0.00    -0.090 HD
ATOM     20  H   LIG d   1       2.505  79.713 108.868  0.00  0.00    -0.090 HD
ATOM     21  H   LIG d   1       1.345  79.948 107.735  0.00  0.00    -0.090 HD
ENDBRANCH   5  18
BRANCH   3  22
ATOM     22  C   LIG d   1      -1.706  81.135 111.983  0.00  0.00     0.382 C 
ATOM     23  O   LIG d   1      -2.225  79.993 112.005  0.00  0.00    -0.241 OA
ATOM     24  O   LIG d   1      -2.352  82.111 112.410  0.00  0.00    -0.241 OA
ENDBRANCH   3  22
TORSDOF 7
ENDMDL
MODEL 9
REMARK VINA RESULT:      -5.4      3.583      6.216
REMARK  7 active torsions:
REMARK  status: ('A' for Active; 'I' for Inactive)
REMARK    1  A    between atoms: C_2  and  C_3 
REMARK    2  A    between atoms: C_3  and  O_6 
REMARK    3  A    between atoms: C_3  and  C_4 
REMARK    4  A    between atoms: C_7  and  O_6 
REMARK    5  A    between atoms: C_9  and  C_10 
REMARK    6  A    between atoms: N_15  and  C_14 
REMARK    7  A    between atoms: N_20  and  C_19 
REMARK       I    between atoms: C_22  and  N_20 
ROOT
ATOM      1  C   LIG d   1       2.916  84.587 111.867  0.00  0.00     0.161 C 
ATOM      2  C   LIG d   1       4.119  84.816 112.555  0.00  0.00     0.016 C 
ATOM      3  C   LIG d   1       4.202  85.576 113.744  0.00  0.00     0.038 C 
ATOM      4  C   LIG d   1       3.057  86.033 114.414  0.00  0.00     0.028 C 
ATOM      5  C   LIG d   1       1.864  86.257 113.490  0.00  0.00    -0.047 C 
ATOM      6  C   LIG d   1       1.642  84.984 112.641  0.00  0.00     0.091 C 
ENDROOT
BRANCH   1   7
ATOM      7  O   LIG d   1       2.843  83.207 111.457  0.00  0.00    -0.368 OA
BRANCH   7   8
ATOM      8  C   LIG d   1       3.119  82.941 110.060  0.00  0.00     0.119 C 
BRANCH   8   9
ATOM      9  C   LIG d   1       1.765  82.773 109.344  0.00  0.00     0.028 C 
ATOM     10  C   LIG d   1       1.641  83.675 108.104  0.00  0.00     0.006 C 
ENDBRANCH   8   9
BRANCH   8  11
ATOM     11  C   LIG d   1       3.842  81.603 109.879  0.00  0.00     0.028 C 
ATOM     12  C   LIG d   1       4.838  81.617 108.709  0.00  0.00     0.006 C 
ENDBRANCH   8  11
ENDBRANCH   7   8
ENDBRANCH   1   7
BRANCH   6  13
ATOM     13  N   LIG d   1       0.546  85.148 111.651  0.00  0.00    -0.311 N 
ATOM     14  C   LIG d   1       0.517  86.123 110.745  0.00  0.00     0.210 C 
ATOM     15  C   LIG d   1      -0.714  86.122 109.832  0.00  0.00     0.109 C 
ATOM     16  O   LIG d   1       1.409  86.971 110.588  0.00  0.00    -0.276 OA
ATOM     17  H   LIG d   1      -0.204  84.485 111.686  0.00  0.00     0.149 HD
ENDBRANCH   6  13
BRANCH   5  18
ATOM     18  N   LIG d   1       0.705  86.599 114.335  0.00  0.00     0.381 N 
ATOM     19  H   LIG d   1      -0.110  86.124 114.000  0.00  0.00    -0.090 HD
ATOM     20  H   LIG d   1       0.540  87.588 114.275  0.00  0.00    -0.090 HD
ATOM     21  H   LIG d   1       0.883  86.341 115.280  0.00  0.00    -0.090 HD
ENDBRANCH   5  18
BRANCH   3  22
ATOM     22  C   LIG d   1       5.445  85.918 114.255  0.00  0.00     0.382 C 
ATOM     23  O   LIG d   1       6.272  85.021 114.547  0.00  0.00    -0.241 OA
ATOM     24  O   LIG d   1       5.733  87.111 114.470  0.00  0.00    -0.241 OA
ENDBRANCH   3  22
TORSDOF 7
ENDMDL
