MODEL 1
REMARK VINA RESULT:      -6.2      0.000      0.000
REMARK  7 active torsions:
REMARK  status: ('A' for Active; 'I' for Inactive)
REMARK    1  A    between atoms: C_2  and  C_3 
REMARK    2  A    between atoms: C_3  and  O_6 
REMARK    3  A    between atoms: C_3  and  C_4 
REMARK    4  A    between atoms: C_7  and  O_6 
REMARK    5  A    between atoms: C_9  and  C_10 
REMARK    6  A    between atoms: N_15  and  C_14 
REMARK    7  A    between atoms: N_20  and  C_19 
REMARK       I    between atoms: C_22  and  N_20 
ROOT
ATOM      1  C   LIG d   1       1.616  83.821 111.323  0.00  0.00     0.161 C 
ATOM      2  C   LIG d   1       0.561  82.894 111.286  0.00  0.00     0.016 C 
ATOM      3  C   LIG d   1      -0.593  82.995 112.098  0.00  0.00     0.038 C 
ATOM      4  C   LIG d   1      -0.839  84.120 112.899  0.00  0.00     0.028 C 
ATOM      5  C   LIG d   1       0.431  84.834 113.348  0.00  0.00    -0.047 C 
ATOM      6  C   LIG d   1       1.314  85.113 112.110  0.00  0.00     0.091 C 
ENDROOT
BRANCH   1   7
ATOM      7  O   LIG d   1       2.036  84.138 109.982  0.00  0.00    -0.368 OA
BRANCH   7   8
ATOM      8  C   LIG d   1       3.325  83.614 109.577  0.00  0.00     0.119 C 
BRANCH   8   9
ATOM      9  C   LIG d   1       3.071  82.537 108.505  0.00  0.00     0.028 C 
ATOM     10  C   LIG d   1       1.808  82.821 107.674  0.00  0.00     0.006 C 
ENDBRANCH   8   9
BRANCH   8  11
ATOM     11  C   LIG d   1       4.017  82.883 110.731  0.00  0.00     0.028 C 
ATOM     12  C   LIG d   1       4.530  81.491 110.332  0.00  0.00     0.006 C 
ENDBRANCH   8  11
ENDBRANCH   7   8
ENDBRANCH   1   7
BRANCH   6  13
ATOM     13  N   LIG d   1       2.615  85.734 112.471  0.00  0.00    -0.311 N 
ATOM     14  C   LIG d   1       3.045  86.886 111.959  0.00  0.00     0.210 C 
ATOM     15  C   LIG d   1       4.423  87.339 112.450  0.00  0.00     0.109 C 
ATOM     16  O   LIG d   1       2.401  87.592 111.168  0.00  0.00    -0.276 OA
ATOM     17  H   LIG d   1       3.188  85.244 113.130  0.00  0.00     0.149 HD
ENDBRANCH   6  13
BRANCH   5  18
ATOM     18  N   LIG d   1       0.025  86.061 114.058  0.00  0.00     0.381 N 
ATOM     19  H   LIG d   1      -0.972  86.140 114.056  0.00  0.00    -0.090 HD
ATOM     20  H   LIG d   1       0.405  86.857 113.575  0.00  0.00    -0.090 HD
ATOM     21  H   LIG d   1       0.362  86.040 114.995  0.00  0.00    -0.090 HD
ENDBRANCH   5  18
BRANCH   3  22
ATOM     22  C   LIG d   1      -1.496  81.944 112.142  0.00  0.00     0.382 C 
ATOM     23  O   LIG d   1      -1.139  80.795 111.784  0.00  0.00    -0.241 OA
ATOM     24  O   LIG d   1      -2.674  82.138 112.495  0.00  0.00    -0.241 OA
ENDBRANCH   3  22
TORSDOF 7
ENDMDL
MODEL 2
REMARK VINA RESULT:      -6.2      1.174      2.006
REMARK  7 active torsions:
REMARK  status: ('A' for Active; 'I' for Inactive)
REMARK    1  A    between atoms: C_2  and  C_3 
REMARK    2  A    between atoms: C_3  and  O_6 
REMARK    3  A    between atoms: C_3  and  C_4 
REMARK    4  A    between atoms: C_7  and  O_6 
REMARK    5  A    between atoms: C_9  and  C_10 
REMARK    6  A    between atoms: N_15  and  C_14 
REMARK    7  A    between atoms: N_20  and  C_19 
REMARK       I    between atoms: C_22  and  N_20 
ROOT
ATOM      1  C   LIG d   1       1.698  83.821 111.672  0.00  0.00     0.161 C 
ATOM      2  C   LIG d   1       0.660  82.875 111.696  0.00  0.00     0.016 C 
ATOM      3  C   LIG d   1      -0.487  82.999 112.513  0.00  0.00     0.038 C 
ATOM      4  C   LIG d   1      -0.747  84.161 113.255  0.00  0.00     0.028 C 
ATOM      5  C   LIG d   1       0.514  84.921 113.651  0.00  0.00    -0.047 C 
ATOM      6  C   LIG d   1       1.380  85.148 112.391  0.00  0.00     0.091 C 
ENDROOT
BRANCH   1   7
ATOM      7  O   LIG d   1       2.099  84.072 110.310  0.00  0.00    -0.368 OA
BRANCH   7   8
ATOM      8  C   LIG d   1       1.055  83.974 109.310  0.00  0.00     0.119 C 
BRANCH   8   9
ATOM      9  C   LIG d   1       1.680  83.347 108.049  0.00  0.00     0.028 C 
ATOM     10  C   LIG d   1       2.918  82.494 108.370  0.00  0.00     0.006 C 
ENDBRANCH   8   9
BRANCH   8  11
ATOM     11  C   LIG d   1       0.568  85.360 108.876  0.00  0.00     0.028 C 
ATOM     12  C   LIG d   1      -0.689  85.815 109.635  0.00  0.00     0.006 C 
ENDBRANCH   8  11
ENDBRANCH   7   8
ENDBRANCH   1   7
BRANCH   6  13
ATOM     13  N   LIG d   1       2.672  85.812 112.703  0.00  0.00    -0.311 N 
ATOM     14  C   LIG d   1       3.115  86.892 112.063  0.00  0.00     0.210 C 
ATOM     15  C   LIG d   1       4.482  87.405 112.529  0.00  0.00     0.109 C 
ATOM     16  O   LIG d   1       2.492  87.494 111.176  0.00  0.00    -0.276 OA
ATOM     17  H   LIG d   1       3.228  85.407 113.431  0.00  0.00     0.149 HD
ENDBRANCH   6  13
BRANCH   5  18
ATOM     18  N   LIG d   1       0.092  86.178 114.298  0.00  0.00     0.381 N 
ATOM     19  H   LIG d   1      -0.901  86.180 114.417  0.00  0.00    -0.090 HD
ATOM     20  H   LIG d   1       0.341  86.948 113.703  0.00  0.00    -0.090 HD
ATOM     21  H   LIG d   1       0.541  86.273 115.183  0.00  0.00    -0.090 HD
ENDBRANCH   5  18
BRANCH   3  22
ATOM     22  C   LIG d   1      -1.370  81.935 112.624  0.00  0.00     0.382 C 
ATOM     23  O   LIG d   1      -0.937  80.785 112.875  0.00  0.00    -0.241 OA
ATOM     24  O   LIG d   1      -2.589  82.103 112.433  0.00  0.00    -0.241 OA
ENDBRANCH   3  22
TORSDOF 7
ENDMDL
MODEL 3
REMARK VINA RESULT:      -6.1      2.477      5.515
REMARK  7 active torsions:
REMARK  status: ('A' for Active; 'I' for Inactive)
REMARK    1  A    between atoms: C_2  and  C_3 
REMARK    2  A    between atoms: C_3  and  O_6 
REMARK    3  A    between atoms: C_3  and  C_4 
REMARK    4  A    between atoms: C_7  and  O_6 
REMARK    5  A    between atoms: C_9  and  C_10 
REMARK    6  A    between atoms: N_15  and  C_14 
REMARK    7  A    between atoms: N_20  and  C_19 
REMARK       I    between atoms: C_22  and  N_20 
ROOT
ATOM      1  C   LIG d   1       1.601  83.700 112.196  0.00  0.00     0.161 C 
ATOM      2  C   LIG d   1       2.724  83.570 111.362  0.00  0.00     0.016 C 
ATOM      3  C   LIG d   1       2.957  82.443 110.541  0.00  0.00     0.038 C 
ATOM      4  C   LIG d   1       2.000  81.430 110.383  0.00  0.00     0.028 C 
ATOM      5  C   LIG d   1       1.080  81.273 111.589  0.00  0.00    -0.047 C 
ATOM      6  C   LIG d   1       0.492  82.655 111.954  0.00  0.00     0.091 C 
ENDROOT
BRANCH   1   7
ATOM      7  O   LIG d   1       1.065  85.034 112.091  0.00  0.00    -0.368 OA
BRANCH   7   8
ATOM      8  C   LIG d   1       1.346  85.737 110.856  0.00  0.00     0.119 C 
BRANCH   8   9
ATOM      9  C   LIG d   1       1.706  87.190 111.223  0.00  0.00     0.028 C 
ATOM     10  C   LIG d   1       3.023  87.288 112.011  0.00  0.00     0.006 C 
ENDBRANCH   8   9
BRANCH   8  11
ATOM     11  C   LIG d   1       0.097  85.839 109.976  0.00  0.00     0.028 C 
ATOM     12  C   LIG d   1      -1.135  86.341 110.745  0.00  0.00     0.006 C 
ENDBRANCH   8  11
ENDBRANCH   7   8
ENDBRANCH   1   7
BRANCH   6  13
ATOM     13  N   LIG d   1      -0.354  82.606 113.175  0.00  0.00    -0.311 N 
ATOM     14  C   LIG d   1      -1.675  82.437 113.146  0.00  0.00     0.210 C 
ATOM     15  C   LIG d   1      -2.358  82.437 114.517  0.00  0.00     0.109 C 
ATOM     16  O   LIG d   1      -2.342  82.256 112.116  0.00  0.00    -0.276 OA
ATOM     17  H   LIG d   1       0.109  82.714 114.056  0.00  0.00     0.149 HD
ENDBRANCH   6  13
BRANCH   5  18
ATOM     18  N   LIG d   1       0.048  80.280 111.236  0.00  0.00     0.381 N 
ATOM     19  H   LIG d   1       0.327  79.374 111.553  0.00  0.00    -0.090 HD
ATOM     20  H   LIG d   1      -0.045  80.250 110.235  0.00  0.00    -0.090 HD
ATOM     21  H   LIG d   1      -0.823  80.532 111.650  0.00  0.00    -0.090 HD
ENDBRANCH   5  18
BRANCH   3  22
ATOM     22  C   LIG d   1       4.177  82.303 109.896  0.00  0.00     0.382 C 
ATOM     23  O   LIG d   1       5.244  82.381 110.551  0.00  0.00    -0.241 OA
ATOM     24  O   LIG d   1       4.225  82.144 108.662  0.00  0.00    -0.241 OA
ENDBRANCH   3  22
TORSDOF 7
ENDMDL
MODEL 4
REMARK VINA RESULT:      -6.0      2.707      4.373
REMARK  7 active torsions:
REMARK  status: ('A' for Active; 'I' for Inactive)
REMARK    1  A    between atoms: C_2  and  C_3 
REMARK    2  A    between atoms: C_3  and  O_6 
REMARK    3  A    between atoms: C_3  and  C_4 
REMARK    4  A    between atoms: C_7  and  O_6 
REMARK    5  A    between atoms: C_9  and  C_10 
REMARK    6  A    between atoms: N_15  and  C_14 
REMARK    7  A    between atoms: N_20  and  C_19 
REMARK       I    between atoms: C_22  and  N_20 
ROOT
ATOM      1  C   LIG d   1      -0.041  82.726 111.230  0.00  0.00     0.161 C 
ATOM      2  C   LIG d   1      -1.144  82.486 112.066  0.00  0.00     0.016 C 
ATOM      3  C   LIG d   1      -1.700  81.202 112.271  0.00  0.00     0.038 C 
ATOM      4  C   LIG d   1      -1.091  80.042 111.769  0.00  0.00     0.028 C 
ATOM      5  C   LIG d   1      -0.269  80.286 110.508  0.00  0.00    -0.047 C 
ATOM      6  C   LIG d   1       0.705  81.459 110.763  0.00  0.00     0.091 C 
ENDROOT
BRANCH   1   7
ATOM      7  O   LIG d   1       0.872  83.635 111.877  0.00  0.00    -0.368 OA
BRANCH   7   8
ATOM      8  C   LIG d   1       0.962  84.963 111.304  0.00  0.00     0.119 C 
BRANCH   8   9
ATOM      9  C   LIG d   1       0.022  85.005 110.084  0.00  0.00     0.028 C 
ATOM     10  C   LIG d   1      -1.105  86.039 110.247  0.00  0.00     0.006 C 
ENDBRANCH   8   9
BRANCH   8  11
ATOM     11  C   LIG d   1       2.363  85.236 110.747  0.00  0.00     0.028 C 
ATOM     12  C   LIG d   1       3.480  84.690 111.650  0.00  0.00     0.006 C 
ENDBRANCH   8  11
ENDBRANCH   7   8
ENDBRANCH   1   7
BRANCH   6  13
ATOM     13  N   LIG d   1       1.488  81.819 109.552  0.00  0.00    -0.311 N 
ATOM     14  C   LIG d   1       2.817  81.755 109.492  0.00  0.00     0.210 C 
ATOM     15  C   LIG d   1       3.426  82.189 108.156  0.00  0.00     0.109 C 
ATOM     16  O   LIG d   1       3.547  81.348 110.409  0.00  0.00    -0.276 OA
ATOM     17  H   LIG d   1       0.973  82.129 108.751  0.00  0.00     0.149 HD
ENDBRANCH   6  13
BRANCH   5  18
ATOM     18  N   LIG d   1       0.419  79.025 110.173  0.00  0.00     0.381 N 
ATOM     19  H   LIG d   1       0.137  78.306 110.809  0.00  0.00    -0.090 HD
ATOM     20  H   LIG d   1       1.410  79.160 110.270  0.00  0.00    -0.090 HD
ATOM     21  H   LIG d   1       0.202  78.756 109.239  0.00  0.00    -0.090 HD
ENDBRANCH   5  18
BRANCH   3  22
ATOM     22  C   LIG d   1      -2.900  81.073 112.953  0.00  0.00     0.382 C 
ATOM     23  O   LIG d   1      -3.885  81.779 112.626  0.00  0.00    -0.241 OA
ATOM     24  O   LIG d   1      -2.998  80.293 113.918  0.00  0.00    -0.241 OA
ENDBRANCH   3  22
TORSDOF 7
ENDMDL
MODEL 5
REMARK VINA RESULT:      -5.8      2.916      5.858
REMARK  7 active torsions:
REMARK  status: ('A' for Active; 'I' for Inactive)
REMARK    1  A    between atoms: C_2  and  C_3 
REMARK    2  A    between atoms: C_3  and  O_6 
REMARK    3  A    between atoms: C_3  and  C_4 
REMARK    4  A    between atoms: C_7  and  O_6 
REMARK    5  A    between atoms: C_9  and  C_10 
REMARK    6  A    between atoms: N_15  and  C_14 
REMARK    7  A    between atoms: N_20  and  C_19 
REMARK       I    between atoms: C_22  and  N_20 
ROOT
ATOM      1  C   LIG d   1       0.174  82.896 111.061  0.00  0.00     0.161 C 
ATOM      2  C   LIG d   1       0.950  83.174 109.923  0.00  0.00     0.016 C 
ATOM      3  C   LIG d   1       1.338  82.189 108.986  0.00  0.00     0.038 C 
ATOM      4  C   LIG d   1       0.845  80.876 109.043  0.00  0.00     0.028 C 
ATOM      5  C   LIG d   1       0.468  80.432 110.453  0.00  0.00    -0.047 C 
ATOM      6  C   LIG d   1      -0.465  81.492 111.080  0.00  0.00     0.091 C 
ENDROOT
BRANCH   1   7
ATOM      7  O   LIG d   1      -0.838  83.910 111.221  0.00  0.00    -0.368 OA
BRANCH   7   8
ATOM      8  C   LIG d   1      -0.698  84.773 112.376  0.00  0.00     0.119 C 
BRANCH   8   9
ATOM      9  C   LIG d   1      -0.618  86.224 111.862  0.00  0.00     0.028 C 
ATOM     10  C   LIG d   1      -1.184  86.375 110.440  0.00  0.00     0.006 C 
ENDBRANCH   8   9
BRANCH   8  11
ATOM     11  C   LIG d   1       0.629  84.526 113.099  0.00  0.00     0.028 C 
ATOM     12  C   LIG d   1       0.438  84.070 114.554  0.00  0.00     0.006 C 
ENDBRANCH   8  11
ENDBRANCH   7   8
ENDBRANCH   1   7
BRANCH   6  13
ATOM     13  N   LIG d   1      -0.815  81.176 112.490  0.00  0.00    -0.311 N 
ATOM     14  C   LIG d   1      -2.026  81.375 113.007  0.00  0.00     0.210 C 
ATOM     15  C   LIG d   1      -2.167  81.000 114.486  0.00  0.00     0.109 C 
ATOM     16  O   LIG d   1      -3.005  81.795 112.373  0.00  0.00    -0.276 OA
ATOM     17  H   LIG d   1      -0.087  80.802 113.067  0.00  0.00     0.149 HD
ENDBRANCH   6  13
BRANCH   5  18
ATOM     18  N   LIG d   1      -0.157  79.100 110.347  0.00  0.00     0.381 N 
ATOM     19  H   LIG d   1       0.204  78.618 109.548  0.00  0.00    -0.090 HD
ATOM     20  H   LIG d   1      -1.148  79.215 110.225  0.00  0.00    -0.090 HD
ATOM     21  H   LIG d   1       0.024  78.572 111.173  0.00  0.00    -0.090 HD
ENDBRANCH   5  18
BRANCH   3  22
ATOM     22  C   LIG d   1       2.261  82.503 108.000  0.00  0.00     0.382 C 
ATOM     23  O   LIG d   1       1.882  83.064 106.943  0.00  0.00    -0.241 OA
ATOM     24  O   LIG d   1       3.460  82.194 108.135  0.00  0.00    -0.241 OA
ENDBRANCH   3  22
TORSDOF 7
ENDMDL
MODEL 6
REMARK VINA RESULT:      -5.7      3.118      6.392
REMARK  7 active torsions:
REMARK  status: ('A' for Active; 'I' for Inactive)
REMARK    1  A    between atoms: C_2  and  C_3 
REMARK    2  A    between atoms: C_3  and  O_6 
REMARK    3  A    between atoms: C_3  and  C_4 
REMARK    4  A    between atoms: C_7  and  O_6 
REMARK    5  A    between atoms: C_9  and  C_10 
REMARK    6  A    between atoms: N_15  and  C_14 
REMARK    7  A    between atoms: N_20  and  C_19 
REMARK       I    between atoms: C_22  and  N_20 
ROOT
ATOM      1  C   LIG d   1       1.151  81.238 111.695  0.00  0.00     0.161 C 
ATOM      2  C   LIG d   1       2.183  82.005 111.129  0.00  0.00     0.016 C 
ATOM      3  C   LIG d   1       2.369  82.153 109.735  0.00  0.00     0.038 C 
ATOM      4  C   LIG d   1       1.438  81.662 108.807  0.00  0.00     0.028 C 
ATOM      5  C   LIG d   1       0.658  80.453 109.313  0.00  0.00    -0.047 C 
ATOM      6  C   LIG d   1       0.062  80.786 110.700  0.00  0.00     0.091 C 
ENDROOT
BRANCH   1   7
ATOM      7  O   LIG d   1       0.558  81.952 112.797  0.00  0.00    -0.368 OA
BRANCH   7   8
ATOM      8  C   LIG d   1       0.566  83.398 112.697  0.00  0.00     0.119 C 
BRANCH   8   9
ATOM      9  C   LIG d   1       0.744  83.959 114.121  0.00  0.00     0.028 C 
ATOM     10  C   LIG d   1       0.123  85.356 114.283  0.00  0.00     0.006 C 
ENDBRANCH   8   9
BRANCH   8  11
ATOM     11  C   LIG d   1      -0.788  83.930 112.218  0.00  0.00     0.028 C 
ATOM     12  C   LIG d   1      -0.776  84.340 110.737  0.00  0.00     0.006 C 
ENDBRANCH   8  11
ENDBRANCH   7   8
ENDBRANCH   1   7
BRANCH   6  13
ATOM     13  N   LIG d   1      -0.647  79.628 111.304  0.00  0.00    -0.311 N 
ATOM     14  C   LIG d   1      -1.803  79.736 111.958  0.00  0.00     0.210 C 
ATOM     15  C   LIG d   1      -2.353  78.421 112.520  0.00  0.00     0.109 C 
ATOM     16  O   LIG d   1      -2.441  80.790 112.098  0.00  0.00    -0.276 OA
ATOM     17  H   LIG d   1      -0.216  78.730 111.211  0.00  0.00     0.149 HD
ENDBRANCH   6  13
BRANCH   5  18
ATOM     18  N   LIG d   1      -0.369  80.132 108.304  0.00  0.00     0.381 N 
ATOM     19  H   LIG d   1      -0.178  80.627 107.456  0.00  0.00    -0.090 HD
ATOM     20  H   LIG d   1      -1.266  80.427 108.647  0.00  0.00    -0.090 HD
ATOM     21  H   LIG d   1      -0.379  79.151 108.129  0.00  0.00    -0.090 HD
ENDBRANCH   5  18
BRANCH   3  22
ATOM     22  C   LIG d   1       3.517  82.764 109.256  0.00  0.00     0.382 C 
ATOM     23  O   LIG d   1       4.130  82.269 108.280  0.00  0.00    -0.241 OA
ATOM     24  O   LIG d   1       3.973  83.779 109.816  0.00  0.00    -0.241 OA
ENDBRANCH   3  22
TORSDOF 7
ENDMDL
MODEL 7
REMARK VINA RESULT:      -5.6      2.593      5.870
REMARK  7 active torsions:
REMARK  status: ('A' for Active; 'I' for Inactive)
REMARK    1  A    between atoms: C_2  and  C_3 
REMARK    2  A    between atoms: C_3  and  O_6 
REMARK    3  A    between atoms: C_3  and  C_4 
REMARK    4  A    between atoms: C_7  and  O_6 
REMARK    5  A    between atoms: C_9  and  C_10 
REMARK    6  A    between atoms: N_15  and  C_14 
REMARK    7  A    between atoms: N_20  and  C_19 
REMARK       I    between atoms: C_22  and  N_20 
ROOT
ATOM      1  C   LIG d   1       2.552  82.977 111.662  0.00  0.00     0.161 C 
ATOM      2  C   LIG d   1       2.801  84.321 111.986  0.00  0.00     0.016 C 
ATOM      3  C   LIG d   1       2.518  85.397 111.114  0.00  0.00     0.038 C 
ATOM      4  C   LIG d   1       1.822  85.212 109.910  0.00  0.00     0.028 C 
ATOM      5  C   LIG d   1       2.003  83.820 109.313  0.00  0.00    -0.047 C 
ATOM      6  C   LIG d   1       1.692  82.765 110.399  0.00  0.00     0.091 C 
ENDROOT
BRANCH   1   7
ATOM      7  O   LIG d   1       1.960  82.304 112.791  0.00  0.00    -0.368 OA
BRANCH   7   8
ATOM      8  C   LIG d   1       0.516  82.369 112.886  0.00  0.00     0.119 C 
BRANCH   8   9
ATOM      9  C   LIG d   1       0.171  83.299 114.065  0.00  0.00     0.028 C 
ATOM     10  C   LIG d   1      -0.535  84.587 113.609  0.00  0.00     0.006 C 
ENDBRANCH   8   9
BRANCH   8  11
ATOM     11  C   LIG d   1      -0.080  81.007 113.256  0.00  0.00     0.028 C 
ATOM     12  C   LIG d   1      -1.595  80.933 113.007  0.00  0.00     0.006 C 
ENDBRANCH   8  11
ENDBRANCH   7   8
ENDBRANCH   1   7
BRANCH   6  13
ATOM     13  N   LIG d   1       1.926  81.376 109.923  0.00  0.00    -0.311 N 
ATOM     14  C   LIG d   1       0.943  80.518 109.656  0.00  0.00     0.210 C 
ATOM     15  C   LIG d   1       1.404  79.131 109.197  0.00  0.00     0.109 C 
ATOM     16  O   LIG d   1      -0.266  80.783 109.724  0.00  0.00    -0.276 OA
ATOM     17  H   LIG d   1       2.877  81.087 109.810  0.00  0.00     0.149 HD
ENDBRANCH   6  13
BRANCH   5  18
ATOM     18  N   LIG d   1       1.116  83.720 108.139  0.00  0.00     0.381 N 
ATOM     19  H   LIG d   1       1.275  82.852 107.668  0.00  0.00    -0.090 HD
ATOM     20  H   LIG d   1       1.334  84.468 107.503  0.00  0.00    -0.090 HD
ATOM     21  H   LIG d   1       0.164  83.783 108.424  0.00  0.00    -0.090 HD
ENDBRANCH   5  18
BRANCH   3  22
ATOM     22  C   LIG d   1       2.968  86.671 111.425  0.00  0.00     0.382 C 
ATOM     23  O   LIG d   1       2.236  87.666 111.206  0.00  0.00    -0.241 OA
ATOM     24  O   LIG d   1       4.114  86.842 111.882  0.00  0.00    -0.241 OA
ENDBRANCH   3  22
TORSDOF 7
ENDMDL
MODEL 8
REMARK VINA RESULT:      -5.6      3.256      5.423
REMARK  7 active torsions:
REMARK  status: ('A' for Active; 'I' for Inactive)
REMARK    1  A    between atoms: C_2  and  C_3 
REMARK    2  A    between atoms: C_3  and  O_6 
REMARK    3  A    between atoms: C_3  and  C_4 
REMARK    4  A    between atoms: C_7  and  O_6 
REMARK    5  A    between atoms: C_9  and  C_10 
REMARK    6  A    between atoms: N_15  and  C_14 
REMARK    7  A    between atoms: N_20  and  C_19 
REMARK       I    between atoms: C_22  and  N_20 
ROOT
ATOM      1  C   LIG d   1      -0.350  81.712 111.060  0.00  0.00     0.161 C 
ATOM      2  C   LIG d   1      -1.071  80.800 111.850  0.00  0.00     0.016 C 
ATOM      3  C   LIG d   1      -1.304  79.458 111.471  0.00  0.00     0.038 C 
ATOM      4  C   LIG d   1      -0.699  78.891 110.340  0.00  0.00     0.028 C 
ATOM      5  C   LIG d   1      -0.378  79.909 109.250  0.00  0.00    -0.047 C 
ATOM      6  C   LIG d   1       0.411  81.081 109.876  0.00  0.00     0.091 C 
ENDROOT
BRANCH   1   7
ATOM      7  O   LIG d   1       0.552  82.470 111.890  0.00  0.00    -0.368 OA
BRANCH   7   8
ATOM      8  C   LIG d   1       0.256  83.881 112.031  0.00  0.00     0.119 C 
BRANCH   8   9
ATOM      9  C   LIG d   1      -0.330  84.092 113.441  0.00  0.00     0.028 C 
ATOM     10  C   LIG d   1      -0.284  85.565 113.881  0.00  0.00     0.006 C 
ENDBRANCH   8   9
BRANCH   8  11
ATOM     11  C   LIG d   1      -0.848  84.318 111.064  0.00  0.00     0.028 C 
ATOM     12  C   LIG d   1      -0.382  85.400 110.078  0.00  0.00     0.006 C 
ENDBRANCH   8  11
ENDBRANCH   7   8
ENDBRANCH   1   7
BRANCH   6  13
ATOM     13  N   LIG d   1       0.692  82.162 108.895  0.00  0.00    -0.311 N 
ATOM     14  C   LIG d   1       1.835  82.259 108.218  0.00  0.00     0.210 C 
ATOM     15  C   LIG d   1       1.927  83.461 107.272  0.00  0.00     0.109 C 
ATOM     16  O   LIG d   1       2.769  81.446 108.287  0.00  0.00    -0.276 OA
ATOM     17  H   LIG d   1      -0.024  82.848 108.754  0.00  0.00     0.149 HD
ENDBRANCH   6  13
BRANCH   5  18
ATOM     18  N   LIG d   1       0.371  79.207 108.191  0.00  0.00     0.381 N 
ATOM     19  H   LIG d   1      -0.123  78.382 107.916  0.00  0.00    -0.090 HD
ATOM     20  H   LIG d   1       1.267  78.931 108.555  0.00  0.00    -0.090 HD
ATOM     21  H   LIG d   1       0.494  79.807 107.406  0.00  0.00    -0.090 HD
ENDBRANCH   5  18
BRANCH   3  22
ATOM     22  C   LIG d   1      -2.183  78.679 112.208  0.00  0.00     0.382 C 
ATOM     23  O   LIG d   1      -3.092  79.224 112.879  0.00  0.00    -0.241 OA
ATOM     24  O   LIG d   1      -2.050  77.441 112.246  0.00  0.00    -0.241 OA
ENDBRANCH   3  22
TORSDOF 7
ENDMDL
MODEL 9
REMARK VINA RESULT:      -5.4      2.125      4.526
REMARK  7 active torsions:
REMARK  status: ('A' for Active; 'I' for Inactive)
REMARK    1  A    between atoms: C_2  and  C_3 
REMARK    2  A    between atoms: C_3  and  O_6 
REMARK    3  A    between atoms: C_3  and  C_4 
REMARK    4  A    between atoms: C_7  and  O_6 
REMARK    5  A    between atoms: C_9  and  C_10 
REMARK    6  A    between atoms: N_15  and  C_14 
REMARK    7  A    between atoms: N_20  and  C_19 
REMARK       I    between atoms: C_22  and  N_20 
ROOT
ATOM      1  C   LIG d   1       1.243  83.319 110.821  0.00  0.00     0.161 C 
ATOM      2  C   LIG d   1       1.541  83.426 109.452  0.00  0.00     0.016 C 
ATOM      3  C   LIG d   1       0.991  84.420 108.611  0.00  0.00     0.038 C 
ATOM      4  C   LIG d   1       0.216  85.475 109.118  0.00  0.00     0.028 C 
ATOM      5  C   LIG d   1      -0.521  85.121 110.405  0.00  0.00    -0.047 C 
ATOM      6  C   LIG d   1       0.488  84.527 111.414  0.00  0.00     0.091 C 
ENDROOT
BRANCH   1   7
ATOM      7  O   LIG d   1       2.451  83.069 111.566  0.00  0.00    -0.368 OA
BRANCH   7   8
ATOM      8  C   LIG d   1       3.629  83.793 111.133  0.00  0.00     0.119 C 
BRANCH   8   9
ATOM      9  C   LIG d   1       4.802  82.795 111.105  0.00  0.00     0.028 C 
ATOM     10  C   LIG d   1       4.637  81.726 110.012  0.00  0.00     0.006 C 
ENDBRANCH   8   9
BRANCH   8  11
ATOM     11  C   LIG d   1       4.031  84.863 112.153  0.00  0.00     0.028 C 
ATOM     12  C   LIG d   1       3.779  86.292 111.648  0.00  0.00     0.006 C 
ENDBRANCH   8  11
ENDBRANCH   7   8
ENDBRANCH   1   7
BRANCH   6  13
ATOM     13  N   LIG d   1      -0.166  84.076 112.670  0.00  0.00    -0.311 N 
ATOM     14  C   LIG d   1      -1.213  83.253 112.697  0.00  0.00     0.210 C 
ATOM     15  C   LIG d   1      -1.746  82.930 114.097  0.00  0.00     0.109 C 
ATOM     16  O   LIG d   1      -1.731  82.735 111.697  0.00  0.00    -0.276 OA
ATOM     17  H   LIG d   1       0.211  84.424 113.531  0.00  0.00     0.149 HD
ENDBRANCH   6  13
BRANCH   5  18
ATOM     18  N   LIG d   1      -1.176  86.348 110.895  0.00  0.00     0.381 N 
ATOM     19  H   LIG d   1      -1.462  86.912 110.120  0.00  0.00    -0.090 HD
ATOM     20  H   LIG d   1      -0.515  86.873 111.441  0.00  0.00    -0.090 HD
ATOM     21  H   LIG d   1      -1.967  86.113 111.454  0.00  0.00    -0.090 HD
ENDBRANCH   5  18
BRANCH   3  22
ATOM     22  C   LIG d   1       1.181  84.343 107.240  0.00  0.00     0.382 C 
ATOM     23  O   LIG d   1       0.976  85.350 106.520  0.00  0.00    -0.241 OA
ATOM     24  O   LIG d   1       1.511  83.266 106.708  0.00  0.00    -0.241 OA
ENDBRANCH   3  22
TORSDOF 7
ENDMDL
