MODEL 1
REMARK VINA RESULT:      -6.0      0.000      0.000
REMARK  7 active torsions:
REMARK  status: ('A' for Active; 'I' for Inactive)
REMARK    1  A    between atoms: C_2  and  C_3 
REMARK    2  A    between atoms: C_3  and  O_6 
REMARK    3  A    between atoms: C_3  and  C_4 
REMARK    4  A    between atoms: C_7  and  O_6 
REMARK    5  A    between atoms: C_9  and  C_10 
REMARK    6  A    between atoms: N_15  and  C_14 
REMARK    7  A    between atoms: N_20  and  C_19 
REMARK       I    between atoms: C_22  and  N_20 
ROOT
ATOM      1  C   LIG d   1       1.554  88.499 115.590  0.00  0.00     0.161 C 
ATOM      2  C   LIG d   1       0.288  88.656 116.179  0.00  0.00     0.016 C 
ATOM      3  C   LIG d   1      -0.047  89.736 117.028  0.00  0.00     0.038 C 
ATOM      4  C   LIG d   1       0.821  90.820 117.226  0.00  0.00     0.028 C 
ATOM      5  C   LIG d   1       2.292  90.457 117.056  0.00  0.00    -0.047 C 
ATOM      6  C   LIG d   1       2.477  89.730 115.705  0.00  0.00     0.091 C 
ENDROOT
BRANCH   1   7
ATOM      7  O   LIG d   1       1.405  88.111 114.210  0.00  0.00    -0.368 OA
BRANCH   7   8
ATOM      8  C   LIG d   1       2.133  86.927 113.799  0.00  0.00     0.119 C 
BRANCH   8   9
ATOM      9  C   LIG d   1       2.572  87.138 112.337  0.00  0.00     0.028 C 
ATOM     10  C   LIG d   1       3.917  86.460 112.025  0.00  0.00     0.006 C 
ENDBRANCH   8   9
BRANCH   8  11
ATOM     11  C   LIG d   1       1.224  85.694 113.777  0.00  0.00     0.028 C 
ATOM     12  C   LIG d   1      -0.172  85.994 113.210  0.00  0.00     0.006 C 
ENDBRANCH   8  11
ENDBRANCH   7   8
ENDBRANCH   1   7
BRANCH   6  13
ATOM     13  N   LIG d   1       3.874  89.265 115.498  0.00  0.00    -0.311 N 
ATOM     14  C   LIG d   1       4.592  89.562 114.416  0.00  0.00     0.210 C 
ATOM     15  C   LIG d   1       6.003  88.965 114.394  0.00  0.00     0.109 C 
ATOM     16  O   LIG d   1       4.207  90.289 113.488  0.00  0.00    -0.276 OA
ATOM     17  H   LIG d   1       4.276  88.696 116.216  0.00  0.00     0.149 HD
ENDBRANCH   6  13
BRANCH   5  18
ATOM     18  N   LIG d   1       3.073  91.705 117.153  0.00  0.00     0.381 N 
ATOM     19  H   LIG d   1       3.521  91.893 116.278  0.00  0.00    -0.090 HD
ATOM     20  H   LIG d   1       3.784  91.590 117.853  0.00  0.00    -0.090 HD
ATOM     21  H   LIG d   1       2.475  92.464 117.397  0.00  0.00    -0.090 HD
ENDBRANCH   5  18
BRANCH   3  22
ATOM     22  C   LIG d   1      -1.247  89.718 117.722  0.00  0.00     0.382 C 
ATOM     23  O   LIG d   1      -1.271  90.010 118.942  0.00  0.00    -0.241 OA
ATOM     24  O   LIG d   1      -2.300  89.371 117.154  0.00  0.00    -0.241 OA
ENDBRANCH   3  22
TORSDOF 7
ENDMDL
MODEL 2
REMARK VINA RESULT:      -5.6     10.713     12.481
REMARK  7 active torsions:
REMARK  status: ('A' for Active; 'I' for Inactive)
REMARK    1  A    between atoms: C_2  and  C_3 
REMARK    2  A    between atoms: C_3  and  O_6 
REMARK    3  A    between atoms: C_3  and  C_4 
REMARK    4  A    between atoms: C_7  and  O_6 
REMARK    5  A    between atoms: C_9  and  C_10 
REMARK    6  A    between atoms: N_15  and  C_14 
REMARK    7  A    between atoms: N_20  and  C_19 
REMARK       I    between atoms: C_22  and  N_20 
ROOT
ATOM      1  C   LIG d   1      -6.451  79.680 117.659  0.00  0.00     0.161 C 
ATOM      2  C   LIG d   1      -7.777  79.261 117.856  0.00  0.00     0.016 C 
ATOM      3  C   LIG d   1      -8.825  80.139 118.216  0.00  0.00     0.038 C 
ATOM      4  C   LIG d   1      -8.646  81.530 118.256  0.00  0.00     0.028 C 
ATOM      5  C   LIG d   1      -7.211  81.948 118.558  0.00  0.00    -0.047 C 
ATOM      6  C   LIG d   1      -6.259  81.209 117.589  0.00  0.00     0.091 C 
ENDROOT
BRANCH   1   7
ATOM      7  O   LIG d   1      -5.910  79.053 116.479  0.00  0.00    -0.368 OA
BRANCH   7   8
ATOM      8  C   LIG d   1      -5.331  77.738 116.664  0.00  0.00     0.119 C 
BRANCH   8   9
ATOM      9  C   LIG d   1      -3.856  77.816 116.226  0.00  0.00     0.028 C 
ATOM     10  C   LIG d   1      -2.930  78.276 117.364  0.00  0.00     0.006 C 
ENDBRANCH   8   9
BRANCH   8  11
ATOM     11  C   LIG d   1      -5.977  76.708 115.732  0.00  0.00     0.028 C 
ATOM     12  C   LIG d   1      -7.130  75.942 116.398  0.00  0.00     0.006 C 
ENDBRANCH   8  11
ENDBRANCH   7   8
ENDBRANCH   1   7
BRANCH   6  13
ATOM     13  N   LIG d   1      -4.828  81.497 117.871  0.00  0.00    -0.311 N 
ATOM     14  C   LIG d   1      -3.965  81.904 116.942  0.00  0.00     0.210 C 
ATOM     15  C   LIG d   1      -2.534  82.124 117.442  0.00  0.00     0.109 C 
ATOM     16  O   LIG d   1      -4.257  82.135 115.759  0.00  0.00    -0.276 OA
ATOM     17  H   LIG d   1      -4.514  81.366 118.813  0.00  0.00     0.149 HD
ENDBRANCH   6  13
BRANCH   5  18
ATOM     18  N   LIG d   1      -7.138  83.416 118.433  0.00  0.00     0.381 N 
ATOM     19  H   LIG d   1      -8.046  83.813 118.573  0.00  0.00    -0.090 HD
ATOM     20  H   LIG d   1      -6.832  83.648 117.504  0.00  0.00    -0.090 HD
ATOM     21  H   LIG d   1      -6.500  83.784 119.103  0.00  0.00    -0.090 HD
ENDBRANCH   5  18
BRANCH   3  22
ATOM     22  C   LIG d   1     -10.059  79.623 118.580  0.00  0.00     0.382 C 
ATOM     23  O   LIG d   1     -10.607  79.999 119.644  0.00  0.00    -0.241 OA
ATOM     24  O   LIG d   1     -10.612  78.753 117.880  0.00  0.00    -0.241 OA
ENDBRANCH   3  22
TORSDOF 7
ENDMDL
MODEL 3
REMARK VINA RESULT:      -5.4      1.536      4.953
REMARK  7 active torsions:
REMARK  status: ('A' for Active; 'I' for Inactive)
REMARK    1  A    between atoms: C_2  and  C_3 
REMARK    2  A    between atoms: C_3  and  O_6 
REMARK    3  A    between atoms: C_3  and  C_4 
REMARK    4  A    between atoms: C_7  and  O_6 
REMARK    5  A    between atoms: C_9  and  C_10 
REMARK    6  A    between atoms: N_15  and  C_14 
REMARK    7  A    between atoms: N_20  and  C_19 
REMARK       I    between atoms: C_22  and  N_20 
ROOT
ATOM      1  C   LIG d   1       1.847  88.326 114.626  0.00  0.00     0.161 C 
ATOM      2  C   LIG d   1       3.144  88.365 114.090  0.00  0.00     0.016 C 
ATOM      3  C   LIG d   1       4.177  89.179 114.610  0.00  0.00     0.038 C 
ATOM      4  C   LIG d   1       4.023  89.899 115.804  0.00  0.00     0.028 C 
ATOM      5  C   LIG d   1       2.577  90.284 116.097  0.00  0.00    -0.047 C 
ATOM      6  C   LIG d   1       1.692  89.021 115.995  0.00  0.00     0.091 C 
ENDROOT
BRANCH   1   7
ATOM      7  O   LIG d   1       1.391  86.961 114.703  0.00  0.00    -0.368 OA
BRANCH   7   8
ATOM      8  C   LIG d   1       1.425  86.207 113.466  0.00  0.00     0.119 C 
BRANCH   8   9
ATOM      9  C   LIG d   1      -0.026  85.821 113.120  0.00  0.00     0.028 C 
ATOM     10  C   LIG d   1      -0.321  84.337 113.395  0.00  0.00     0.006 C 
ENDBRANCH   8   9
BRANCH   8  11
ATOM     11  C   LIG d   1       2.166  84.879 113.643  0.00  0.00     0.028 C 
ATOM     12  C   LIG d   1       3.407  84.765 112.743  0.00  0.00     0.006 C 
ENDBRANCH   8  11
ENDBRANCH   7   8
ENDBRANCH   1   7
BRANCH   6  13
ATOM     13  N   LIG d   1       0.249  89.323 116.185  0.00  0.00    -0.311 N 
ATOM     14  C   LIG d   1      -0.337  89.382 117.380  0.00  0.00     0.210 C 
ATOM     15  C   LIG d   1      -1.837  89.688 117.351  0.00  0.00     0.109 C 
ATOM     16  O   LIG d   1       0.251  89.240 118.463  0.00  0.00    -0.276 OA
ATOM     17  H   LIG d   1      -0.296  89.482 115.361  0.00  0.00     0.149 HD
ENDBRANCH   6  13
BRANCH   5  18
ATOM     18  N   LIG d   1       2.544  90.907 117.433  0.00  0.00     0.381 N 
ATOM     19  H   LIG d   1       1.699  91.433 117.541  0.00  0.00    -0.090 HD
ATOM     20  H   LIG d   1       3.321  91.539 117.517  0.00  0.00    -0.090 HD
ATOM     21  H   LIG d   1       2.599  90.206 118.139  0.00  0.00    -0.090 HD
ENDBRANCH   5  18
BRANCH   3  22
ATOM     22  C   LIG d   1       5.368  89.308 113.912  0.00  0.00     0.382 C 
ATOM     23  O   LIG d   1       5.640  88.509 112.983  0.00  0.00    -0.241 OA
ATOM     24  O   LIG d   1       6.194  90.185 114.228  0.00  0.00    -0.241 OA
ENDBRANCH   3  22
TORSDOF 7
ENDMDL
MODEL 4
REMARK VINA RESULT:      -5.3     11.089     13.510
REMARK  7 active torsions:
REMARK  status: ('A' for Active; 'I' for Inactive)
REMARK    1  A    between atoms: C_2  and  C_3 
REMARK    2  A    between atoms: C_3  and  O_6 
REMARK    3  A    between atoms: C_3  and  C_4 
REMARK    4  A    between atoms: C_7  and  O_6 
REMARK    5  A    between atoms: C_9  and  C_10 
REMARK    6  A    between atoms: N_15  and  C_14 
REMARK    7  A    between atoms: N_20  and  C_19 
REMARK       I    between atoms: C_22  and  N_20 
ROOT
ATOM      1  C   LIG d   1      -7.019  80.622 117.846  0.00  0.00     0.161 C 
ATOM      2  C   LIG d   1      -6.967  79.325 117.309  0.00  0.00     0.016 C 
ATOM      3  C   LIG d   1      -8.048  78.415 117.366  0.00  0.00     0.038 C 
ATOM      4  C   LIG d   1      -9.315  78.797 117.834  0.00  0.00     0.028 C 
ATOM      5  C   LIG d   1      -9.268  79.936 118.846  0.00  0.00    -0.047 C 
ATOM      6  C   LIG d   1      -8.429  81.094 118.260  0.00  0.00     0.091 C 
ENDROOT
BRANCH   1   7
ATOM      7  O   LIG d   1      -6.430  81.557 116.921  0.00  0.00    -0.368 OA
BRANCH   7   8
ATOM      8  C   LIG d   1      -5.155  82.124 117.314  0.00  0.00     0.119 C 
BRANCH   8   9
ATOM      9  C   LIG d   1      -4.054  81.356 116.557  0.00  0.00     0.028 C 
ATOM     10  C   LIG d   1      -3.176  82.282 115.698  0.00  0.00     0.006 C 
ENDBRANCH   8   9
BRANCH   8  11
ATOM     11  C   LIG d   1      -4.871  81.881 118.799  0.00  0.00     0.028 C 
ATOM     12  C   LIG d   1      -4.694  83.185 119.592  0.00  0.00     0.006 C 
ENDBRANCH   8  11
ENDBRANCH   7   8
ENDBRANCH   1   7
BRANCH   6  13
ATOM     13  N   LIG d   1      -8.262  82.216 119.221  0.00  0.00    -0.311 N 
ATOM     14  C   LIG d   1      -9.031  83.304 119.218  0.00  0.00     0.210 C 
ATOM     15  C   LIG d   1      -8.677  84.349 120.280  0.00  0.00     0.109 C 
ATOM     16  O   LIG d   1      -9.993  83.488 118.457  0.00  0.00    -0.276 OA
ATOM     17  H   LIG d   1      -7.525  82.136 119.893  0.00  0.00     0.149 HD
ENDBRANCH   6  13
BRANCH   5  18
ATOM     18  N   LIG d   1     -10.660  80.324 119.144  0.00  0.00     0.381 N 
ATOM     19  H   LIG d   1     -10.725  80.655 120.086  0.00  0.00    -0.090 HD
ATOM     20  H   LIG d   1     -11.250  79.516 119.052  0.00  0.00    -0.090 HD
ATOM     21  H   LIG d   1     -10.958  81.036 118.513  0.00  0.00    -0.090 HD
ENDBRANCH   5  18
BRANCH   3  22
ATOM     22  C   LIG d   1      -7.856  77.095 116.989  0.00  0.00     0.382 C 
ATOM     23  O   LIG d   1      -8.845  76.344 116.808  0.00  0.00    -0.241 OA
ATOM     24  O   LIG d   1      -6.705  76.633 116.870  0.00  0.00    -0.241 OA
ENDBRANCH   3  22
TORSDOF 7
ENDMDL
MODEL 5
REMARK VINA RESULT:      -5.3     10.354     12.953
REMARK  7 active torsions:
REMARK  status: ('A' for Active; 'I' for Inactive)
REMARK    1  A    between atoms: C_2  and  C_3 
REMARK    2  A    between atoms: C_3  and  O_6 
REMARK    3  A    between atoms: C_3  and  C_4 
REMARK    4  A    between atoms: C_7  and  O_6 
REMARK    5  A    between atoms: C_9  and  C_10 
REMARK    6  A    between atoms: N_15  and  C_14 
REMARK    7  A    between atoms: N_20  and  C_19 
REMARK       I    between atoms: C_22  and  N_20 
ROOT
ATOM      1  C   LIG d   1      -3.175  77.624 114.070  0.00  0.00     0.161 C 
ATOM      2  C   LIG d   1      -3.350  78.834 113.377  0.00  0.00     0.016 C 
ATOM      3  C   LIG d   1      -2.357  79.837 113.298  0.00  0.00     0.038 C 
ATOM      4  C   LIG d   1      -1.057  79.632 113.784  0.00  0.00     0.028 C 
ATOM      5  C   LIG d   1      -0.989  78.630 114.931  0.00  0.00    -0.047 C 
ATOM      6  C   LIG d   1      -1.725  77.336 114.511  0.00  0.00     0.091 C 
ENDROOT
BRANCH   1   7
ATOM      7  O   LIG d   1      -3.685  76.531 113.281  0.00  0.00    -0.368 OA
BRANCH   7   8
ATOM      8  C   LIG d   1      -4.950  75.970 113.711  0.00  0.00     0.119 C 
BRANCH   8   9
ATOM      9  C   LIG d   1      -5.159  76.376 115.183  0.00  0.00     0.028 C 
ATOM     10  C   LIG d   1      -6.538  77.013 115.426  0.00  0.00     0.006 C 
ENDBRANCH   8   9
BRANCH   8  11
ATOM     11  C   LIG d   1      -4.908  74.439 113.714  0.00  0.00     0.028 C 
ATOM     12  C   LIG d   1      -5.823  73.821 114.784  0.00  0.00     0.006 C 
ENDBRANCH   8  11
ENDBRANCH   7   8
ENDBRANCH   1   7
BRANCH   6  13
ATOM     13  N   LIG d   1      -1.779  76.334 115.607  0.00  0.00    -0.311 N 
ATOM     14  C   LIG d   1      -0.871  75.372 115.766  0.00  0.00     0.210 C 
ATOM     15  C   LIG d   1      -1.126  74.432 116.949  0.00  0.00     0.109 C 
ATOM     16  O   LIG d   1       0.138  75.228 115.060  0.00  0.00    -0.276 OA
ATOM     17  H   LIG d   1      -2.548  76.397 116.245  0.00  0.00     0.149 HD
ENDBRANCH   6  13
BRANCH   5  18
ATOM     18  N   LIG d   1       0.435  78.409 115.247  0.00  0.00     0.381 N 
ATOM     19  H   LIG d   1       0.516  77.810 116.044  0.00  0.00    -0.090 HD
ATOM     20  H   LIG d   1       0.859  79.292 115.471  0.00  0.00    -0.090 HD
ATOM     21  H   LIG d   1       0.897  77.999 114.465  0.00  0.00    -0.090 HD
ENDBRANCH   5  18
BRANCH   3  22
ATOM     22  C   LIG d   1      -2.673  81.076 112.763  0.00  0.00     0.382 C 
ATOM     23  O   LIG d   1      -3.722  81.220 112.090  0.00  0.00    -0.241 OA
ATOM     24  O   LIG d   1      -1.900  82.042 112.908  0.00  0.00    -0.241 OA
ENDBRANCH   3  22
TORSDOF 7
ENDMDL
MODEL 6
REMARK VINA RESULT:      -5.1     10.638     13.036
REMARK  7 active torsions:
REMARK  status: ('A' for Active; 'I' for Inactive)
REMARK    1  A    between atoms: C_2  and  C_3 
REMARK    2  A    between atoms: C_3  and  O_6 
REMARK    3  A    between atoms: C_3  and  C_4 
REMARK    4  A    between atoms: C_7  and  O_6 
REMARK    5  A    between atoms: C_9  and  C_10 
REMARK    6  A    between atoms: N_15  and  C_14 
REMARK    7  A    between atoms: N_20  and  C_19 
REMARK       I    between atoms: C_22  and  N_20 
ROOT
ATOM      1  C   LIG d   1      -2.353  77.009 114.548  0.00  0.00     0.161 C 
ATOM      2  C   LIG d   1      -2.034  75.985 115.455  0.00  0.00     0.016 C 
ATOM      3  C   LIG d   1      -1.300  76.199 116.644  0.00  0.00     0.038 C 
ATOM      4  C   LIG d   1      -0.963  77.488 117.085  0.00  0.00     0.028 C 
ATOM      5  C   LIG d   1      -0.824  78.499 115.952  0.00  0.00    -0.047 C 
ATOM      6  C   LIG d   1      -2.090  78.438 115.068  0.00  0.00     0.091 C 
ENDROOT
BRANCH   1   7
ATOM      7  O   LIG d   1      -3.724  76.875 114.123  0.00  0.00    -0.368 OA
BRANCH   7   8
ATOM      8  C   LIG d   1      -4.535  75.936 114.870  0.00  0.00     0.119 C 
BRANCH   8   9
ATOM      9  C   LIG d   1      -5.024  74.858 113.883  0.00  0.00     0.028 C 
ATOM     10  C   LIG d   1      -5.763  73.708 114.588  0.00  0.00     0.006 C 
ENDBRANCH   8   9
BRANCH   8  11
ATOM     11  C   LIG d   1      -5.806  76.600 115.407  0.00  0.00     0.028 C 
ATOM     12  C   LIG d   1      -5.512  77.696 116.445  0.00  0.00     0.006 C 
ENDBRANCH   8  11
ENDBRANCH   7   8
ENDBRANCH   1   7
BRANCH   6  13
ATOM     13  N   LIG d   1      -2.001  79.336 113.887  0.00  0.00    -0.311 N 
ATOM     14  C   LIG d   1      -2.690  80.471 113.775  0.00  0.00     0.210 C 
ATOM     15  C   LIG d   1      -2.466  81.237 112.468  0.00  0.00     0.109 C 
ATOM     16  O   LIG d   1      -3.441  80.931 114.648  0.00  0.00    -0.276 OA
ATOM     17  H   LIG d   1      -1.391  79.055 113.145  0.00  0.00     0.149 HD
ENDBRANCH   6  13
BRANCH   5  18
ATOM     18  N   LIG d   1      -0.608  79.824 116.562  0.00  0.00     0.381 N 
ATOM     19  H   LIG d   1      -1.370  80.431 116.334  0.00  0.00    -0.090 HD
ATOM     20  H   LIG d   1       0.235  80.222 116.185  0.00  0.00    -0.090 HD
ATOM     21  H   LIG d   1      -0.528  79.736 117.551  0.00  0.00    -0.090 HD
ENDBRANCH   5  18
BRANCH   3  22
ATOM     22  C   LIG d   1      -0.860  75.113 117.385  0.00  0.00     0.382 C 
ATOM     23  O   LIG d   1      -0.273  75.297 118.479  0.00  0.00    -0.241 OA
ATOM     24  O   LIG d   1      -1.004  73.954 116.954  0.00  0.00    -0.241 OA
ENDBRANCH   3  22
TORSDOF 7
ENDMDL
MODEL 7
REMARK VINA RESULT:      -5.0      2.362      5.482
REMARK  7 active torsions:
REMARK  status: ('A' for Active; 'I' for Inactive)
REMARK    1  A    between atoms: C_2  and  C_3 
REMARK    2  A    between atoms: C_3  and  O_6 
REMARK    3  A    between atoms: C_3  and  C_4 
REMARK    4  A    between atoms: C_7  and  O_6 
REMARK    5  A    between atoms: C_9  and  C_10 
REMARK    6  A    between atoms: N_15  and  C_14 
REMARK    7  A    between atoms: N_20  and  C_19 
REMARK       I    between atoms: C_22  and  N_20 
ROOT
ATOM      1  C   LIG d   1       2.761  89.373 115.681  0.00  0.00     0.161 C 
ATOM      2  C   LIG d   1       2.535  88.622 114.516  0.00  0.00     0.016 C 
ATOM      3  C   LIG d   1       3.559  87.941 113.819  0.00  0.00     0.038 C 
ATOM      4  C   LIG d   1       4.862  87.839 114.328  0.00  0.00     0.028 C 
ATOM      5  C   LIG d   1       5.249  89.001 115.237  0.00  0.00    -0.047 C 
ATOM      6  C   LIG d   1       4.155  89.182 116.313  0.00  0.00     0.091 C 
ENDROOT
BRANCH   1   7
ATOM      7  O   LIG d   1       1.730  89.095 116.649  0.00  0.00    -0.368 OA
BRANCH   7   8
ATOM      8  C   LIG d   1       0.646  90.055 116.720  0.00  0.00     0.119 C 
BRANCH   8   9
ATOM      9  C   LIG d   1       0.825  90.859 118.022  0.00  0.00     0.028 C 
ATOM     10  C   LIG d   1       1.452  92.242 117.777  0.00  0.00     0.006 C 
ENDBRANCH   8   9
BRANCH   8  11
ATOM     11  C   LIG d   1      -0.709  89.356 116.858  0.00  0.00     0.028 C 
ATOM     12  C   LIG d   1      -1.527  89.871 118.053  0.00  0.00     0.006 C 
ENDBRANCH   8  11
ENDBRANCH   7   8
ENDBRANCH   1   7
BRANCH   6  13
ATOM     13  N   LIG d   1       4.414  90.352 117.193  0.00  0.00    -0.311 N 
ATOM     14  C   LIG d   1       5.003  90.257 118.384  0.00  0.00     0.210 C 
ATOM     15  C   LIG d   1       5.156  91.583 119.137  0.00  0.00     0.109 C 
ATOM     16  O   LIG d   1       5.442  89.206 118.875  0.00  0.00    -0.276 OA
ATOM     17  H   LIG d   1       4.118  91.248 116.859  0.00  0.00     0.149 HD
ENDBRANCH   6  13
BRANCH   5  18
ATOM     18  N   LIG d   1       6.576  88.699 115.805  0.00  0.00     0.381 N 
ATOM     19  H   LIG d   1       7.170  88.319 115.096  0.00  0.00    -0.090 HD
ATOM     20  H   LIG d   1       6.470  88.010 116.530  0.00  0.00    -0.090 HD
ATOM     21  H   LIG d   1       6.983  89.527 116.181  0.00  0.00    -0.090 HD
ENDBRANCH   5  18
BRANCH   3  22
ATOM     22  C   LIG d   1       3.292  87.385 112.577  0.00  0.00     0.382 C 
ATOM     23  O   LIG d   1       4.089  86.555 112.077  0.00  0.00    -0.241 OA
ATOM     24  O   LIG d   1       2.286  87.736 111.930  0.00  0.00    -0.241 OA
ENDBRANCH   3  22
TORSDOF 7
ENDMDL
MODEL 8
REMARK VINA RESULT:      -5.0     10.832     13.568
REMARK  7 active torsions:
REMARK  status: ('A' for Active; 'I' for Inactive)
REMARK    1  A    between atoms: C_2  and  C_3 
REMARK    2  A    between atoms: C_3  and  O_6 
REMARK    3  A    between atoms: C_3  and  C_4 
REMARK    4  A    between atoms: C_7  and  O_6 
REMARK    5  A    between atoms: C_9  and  C_10 
REMARK    6  A    between atoms: N_15  and  C_14 
REMARK    7  A    between atoms: N_20  and  C_19 
REMARK       I    between atoms: C_22  and  N_20 
ROOT
ATOM      1  C   LIG d   1      -4.564  78.500 116.382  0.00  0.00     0.161 C 
ATOM      2  C   LIG d   1      -4.094  77.562 115.449  0.00  0.00     0.016 C 
ATOM      3  C   LIG d   1      -4.850  76.446 115.020  0.00  0.00     0.038 C 
ATOM      4  C   LIG d   1      -6.194  76.276 115.384  0.00  0.00     0.028 C 
ATOM      5  C   LIG d   1      -6.545  76.923 116.720  0.00  0.00    -0.047 C 
ATOM      6  C   LIG d   1      -6.069  78.393 116.707  0.00  0.00     0.091 C 
ENDROOT
BRANCH   1   7
ATOM      7  O   LIG d   1      -4.241  79.834 115.940  0.00  0.00    -0.368 OA
BRANCH   7   8
ATOM      8  C   LIG d   1      -3.287  80.561 116.752  0.00  0.00     0.119 C 
BRANCH   8   9
ATOM      9  C   LIG d   1      -3.923  81.920 117.107  0.00  0.00     0.028 C 
ATOM     10  C   LIG d   1      -3.700  82.305 118.579  0.00  0.00     0.006 C 
ENDBRANCH   8   9
BRANCH   8  11
ATOM     11  C   LIG d   1      -2.022  80.901 115.958  0.00  0.00     0.028 C 
ATOM     12  C   LIG d   1      -2.157  82.202 115.152  0.00  0.00     0.006 C 
ENDBRANCH   8  11
ENDBRANCH   7   8
ENDBRANCH   1   7
BRANCH   6  13
ATOM     13  N   LIG d   1      -6.298  79.075 118.007  0.00  0.00    -0.311 N 
ATOM     14  C   LIG d   1      -7.039  80.174 118.138  0.00  0.00     0.210 C 
ATOM     15  C   LIG d   1      -7.130  80.727 119.564  0.00  0.00     0.109 C 
ATOM     16  O   LIG d   1      -7.656  80.725 117.214  0.00  0.00    -0.276 OA
ATOM     17  H   LIG d   1      -5.860  78.677 118.815  0.00  0.00     0.149 HD
ENDBRANCH   6  13
BRANCH   5  18
ATOM     18  N   LIG d   1      -8.002  76.789 116.910  0.00  0.00     0.381 N 
ATOM     19  H   LIG d   1      -8.462  77.622 116.602  0.00  0.00    -0.090 HD
ATOM     20  H   LIG d   1      -8.192  76.667 117.889  0.00  0.00    -0.090 HD
ATOM     21  H   LIG d   1      -8.342  76.004 116.399  0.00  0.00    -0.090 HD
ENDBRANCH   5  18
BRANCH   3  22
ATOM     22  C   LIG d   1      -4.248  75.464 114.248  0.00  0.00     0.382 C 
ATOM     23  O   LIG d   1      -4.929  74.506 113.809  0.00  0.00    -0.241 OA
ATOM     24  O   LIG d   1      -3.023  75.501 114.022  0.00  0.00    -0.241 OA
ENDBRANCH   3  22
TORSDOF 7
ENDMDL
MODEL 9
REMARK VINA RESULT:      -4.9      2.490      5.714
REMARK  7 active torsions:
REMARK  status: ('A' for Active; 'I' for Inactive)
REMARK    1  A    between atoms: C_2  and  C_3 
REMARK    2  A    between atoms: C_3  and  O_6 
REMARK    3  A    between atoms: C_3  and  C_4 
REMARK    4  A    between atoms: C_7  and  O_6 
REMARK    5  A    between atoms: C_9  and  C_10 
REMARK    6  A    between atoms: N_15  and  C_14 
REMARK    7  A    between atoms: N_20  and  C_19 
REMARK       I    between atoms: C_22  and  N_20 
ROOT
ATOM      1  C   LIG d   1       3.011  89.553 116.568  0.00  0.00     0.161 C 
ATOM      2  C   LIG d   1       3.883  90.427 117.239  0.00  0.00     0.016 C 
ATOM      3  C   LIG d   1       5.195  90.710 116.794  0.00  0.00     0.038 C 
ATOM      4  C   LIG d   1       5.673  90.253 115.557  0.00  0.00     0.028 C 
ATOM      5  C   LIG d   1       5.011  88.961 115.092  0.00  0.00    -0.047 C 
ATOM      6  C   LIG d   1       3.476  89.131 115.159  0.00  0.00     0.091 C 
ENDROOT
BRANCH   1   7
ATOM      7  O   LIG d   1       1.692  90.129 116.509  0.00  0.00    -0.368 OA
BRANCH   7   8
ATOM      8  C   LIG d   1       1.187  90.693 117.745  0.00  0.00     0.119 C 
BRANCH   8   9
ATOM      9  C   LIG d   1       0.076  89.758 118.261  0.00  0.00     0.028 C 
ATOM     10  C   LIG d   1      -0.989  89.466 117.191  0.00  0.00     0.006 C 
ENDBRANCH   8   9
BRANCH   8  11
ATOM     11  C   LIG d   1       0.502  92.042 117.503  0.00  0.00     0.028 C 
ATOM     12  C   LIG d   1       0.401  92.896 118.776  0.00  0.00     0.006 C 
ENDBRANCH   8  11
ENDBRANCH   7   8
ENDBRANCH   1   7
BRANCH   6  13
ATOM     13  N   LIG d   1       2.751  87.884 114.800  0.00  0.00    -0.311 N 
ATOM     14  C   LIG d   1       2.306  87.622 113.572  0.00  0.00     0.210 C 
ATOM     15  C   LIG d   1       1.567  86.289 113.424  0.00  0.00     0.109 C 
ATOM     16  O   LIG d   1       2.482  88.352 112.585  0.00  0.00    -0.276 OA
ATOM     17  H   LIG d   1       2.592  87.222 115.534  0.00  0.00     0.149 HD
ENDBRANCH   6  13
BRANCH   5  18
ATOM     18  N   LIG d   1       5.502  88.673 113.731  0.00  0.00     0.381 N 
ATOM     19  H   LIG d   1       6.018  87.816 113.731  0.00  0.00    -0.090 HD
ATOM     20  H   LIG d   1       6.119  89.413 113.445  0.00  0.00    -0.090 HD
ATOM     21  H   LIG d   1       4.735  88.607 113.099  0.00  0.00    -0.090 HD
ENDBRANCH   5  18
BRANCH   3  22
ATOM     22  C   LIG d   1       6.057  91.428 117.609  0.00  0.00     0.382 C 
ATOM     23  O   LIG d   1       5.602  92.101 118.565  0.00  0.00    -0.241 OA
ATOM     24  O   LIG d   1       7.280  91.445 117.374  0.00  0.00    -0.241 OA
ENDBRANCH   3  22
TORSDOF 7
ENDMDL
