MODEL 1
REMARK VINA RESULT:      -6.4      0.000      0.000
REMARK  7 active torsions:
REMARK  status: ('A' for Active; 'I' for Inactive)
REMARK    1  A    between atoms: C_2  and  C_3 
REMARK    2  A    between atoms: C_3  and  O_6 
REMARK    3  A    between atoms: C_3  and  C_4 
REMARK    4  A    between atoms: C_7  and  O_6 
REMARK    5  A    between atoms: C_9  and  C_10 
REMARK    6  A    between atoms: N_15  and  C_14 
REMARK    7  A    between atoms: N_20  and  C_19 
REMARK       I    between atoms: C_22  and  N_20 
ROOT
ATOM      1  C   LIG d   1       0.272  82.536 111.207  0.00  0.00     0.161 C 
ATOM      2  C   LIG d   1      -0.872  82.240 111.968  0.00  0.00     0.016 C 
ATOM      3  C   LIG d   1      -1.388  80.933 112.119  0.00  0.00     0.038 C 
ATOM      4  C   LIG d   1      -0.705  79.805 111.640  0.00  0.00     0.028 C 
ATOM      5  C   LIG d   1       0.183  80.101 110.437  0.00  0.00    -0.047 C 
ATOM      6  C   LIG d   1       1.094  81.306 110.769  0.00  0.00     0.091 C 
ENDROOT
BRANCH   1   7
ATOM      7  O   LIG d   1       1.107  83.468 111.923  0.00  0.00    -0.368 OA
BRANCH   7   8
ATOM      8  C   LIG d   1       1.217  84.794 111.352  0.00  0.00     0.119 C 
BRANCH   8   9
ATOM      9  C   LIG d   1       0.261  84.859 110.145  0.00  0.00     0.028 C 
ATOM     10  C   LIG d   1      -0.693  86.064 110.216  0.00  0.00     0.006 C 
ENDBRANCH   8   9
BRANCH   8  11
ATOM     11  C   LIG d   1       2.614  85.039 110.775  0.00  0.00     0.028 C 
ATOM     12  C   LIG d   1       3.718  84.313 111.561  0.00  0.00     0.006 C 
ENDBRANCH   8  11
ENDBRANCH   7   8
ENDBRANCH   1   7
BRANCH   6  13
ATOM     13  N   LIG d   1       1.936  81.715 109.615  0.00  0.00    -0.311 N 
ATOM     14  C   LIG d   1       3.197  81.319 109.451  0.00  0.00     0.210 C 
ATOM     15  C   LIG d   1       3.891  81.873 108.203  0.00  0.00     0.109 C 
ATOM     16  O   LIG d   1       3.795  80.535 110.202  0.00  0.00    -0.276 OA
ATOM     17  H   LIG d   1       1.519  82.326 108.941  0.00  0.00     0.149 HD
ENDBRANCH   6  13
BRANCH   5  18
ATOM     18  N   LIG d   1       0.940  78.873 110.128  0.00  0.00     0.381 N 
ATOM     19  H   LIG d   1       0.790  78.194 110.847  0.00  0.00    -0.090 HD
ATOM     20  H   LIG d   1       1.920  79.093 110.100  0.00  0.00    -0.090 HD
ATOM     21  H   LIG d   1       0.649  78.506 109.248  0.00  0.00    -0.090 HD
ENDBRANCH   5  18
BRANCH   3  22
ATOM     22  C   LIG d   1      -2.623  80.747 112.722  0.00  0.00     0.382 C 
ATOM     23  O   LIG d   1      -3.508  81.632 112.624  0.00  0.00    -0.241 OA
ATOM     24  O   LIG d   1      -2.849  79.727 113.400  0.00  0.00    -0.241 OA
ENDBRANCH   3  22
TORSDOF 7
ENDMDL
MODEL 2
REMARK VINA RESULT:      -6.1      2.848      3.918
REMARK  7 active torsions:
REMARK  status: ('A' for Active; 'I' for Inactive)
REMARK    1  A    between atoms: C_2  and  C_3 
REMARK    2  A    between atoms: C_3  and  O_6 
REMARK    3  A    between atoms: C_3  and  C_4 
REMARK    4  A    between atoms: C_7  and  O_6 
REMARK    5  A    between atoms: C_9  and  C_10 
REMARK    6  A    between atoms: N_15  and  C_14 
REMARK    7  A    between atoms: N_20  and  C_19 
REMARK       I    between atoms: C_22  and  N_20 
ROOT
ATOM      1  C   LIG d   1       2.492  84.891 110.421  0.00  0.00     0.161 C 
ATOM      2  C   LIG d   1       1.499  85.680 111.026  0.00  0.00     0.016 C 
ATOM      3  C   LIG d   1       0.206  85.200 111.335  0.00  0.00     0.038 C 
ATOM      4  C   LIG d   1      -0.136  83.847 111.196  0.00  0.00     0.028 C 
ATOM      5  C   LIG d   1       0.669  83.126 110.121  0.00  0.00    -0.047 C 
ATOM      6  C   LIG d   1       2.174  83.382 110.364  0.00  0.00     0.091 C 
ENDROOT
BRANCH   1   7
ATOM      7  O   LIG d   1       3.758  85.112 111.074  0.00  0.00    -0.368 OA
BRANCH   7   8
ATOM      8  C   LIG d   1       3.700  85.408 112.491  0.00  0.00     0.119 C 
BRANCH   8   9
ATOM      9  C   LIG d   1       4.757  86.492 112.780  0.00  0.00     0.028 C 
ATOM     10  C   LIG d   1       4.125  87.862 113.080  0.00  0.00     0.006 C 
ENDBRANCH   8   9
BRANCH   8  11
ATOM     11  C   LIG d   1       4.120  84.198 113.331  0.00  0.00     0.028 C 
ATOM     12  C   LIG d   1       2.932  83.516 114.028  0.00  0.00     0.006 C 
ENDBRANCH   8  11
ENDBRANCH   7   8
ENDBRANCH   1   7
BRANCH   6  13
ATOM     13  N   LIG d   1       3.029  82.781 109.307  0.00  0.00    -0.311 N 
ATOM     14  C   LIG d   1       3.618  81.593 109.429  0.00  0.00     0.210 C 
ATOM     15  C   LIG d   1       4.472  81.169 108.230  0.00  0.00     0.109 C 
ATOM     16  O   LIG d   1       3.487  80.835 110.402  0.00  0.00    -0.276 OA
ATOM     17  H   LIG d   1       3.163  83.315 108.471  0.00  0.00     0.149 HD
ENDBRANCH   6  13
BRANCH   5  18
ATOM     18  N   LIG d   1       0.309  81.696 110.178  0.00  0.00     0.381 N 
ATOM     19  H   LIG d   1      -0.686  81.598 110.202  0.00  0.00    -0.090 HD
ATOM     20  H   LIG d   1       0.685  81.300 111.021  0.00  0.00    -0.090 HD
ATOM     21  H   LIG d   1       0.678  81.220 109.385  0.00  0.00    -0.090 HD
ENDBRANCH   5  18
BRANCH   3  22
ATOM     22  C   LIG d   1      -0.775  86.088 111.751  0.00  0.00     0.382 C 
ATOM     23  O   LIG d   1      -1.263  86.910 110.938  0.00  0.00    -0.241 OA
ATOM     24  O   LIG d   1      -1.145  86.108 112.940  0.00  0.00    -0.241 OA
ENDBRANCH   3  22
TORSDOF 7
ENDMDL
MODEL 3
REMARK VINA RESULT:      -6.1      1.827      4.995
REMARK  7 active torsions:
REMARK  status: ('A' for Active; 'I' for Inactive)
REMARK    1  A    between atoms: C_2  and  C_3 
REMARK    2  A    between atoms: C_3  and  O_6 
REMARK    3  A    between atoms: C_3  and  C_4 
REMARK    4  A    between atoms: C_7  and  O_6 
REMARK    5  A    between atoms: C_9  and  C_10 
REMARK    6  A    between atoms: N_15  and  C_14 
REMARK    7  A    between atoms: N_20  and  C_19 
REMARK       I    between atoms: C_22  and  N_20 
ROOT
ATOM      1  C   LIG d   1       1.101  81.591 112.063  0.00  0.00     0.161 C 
ATOM      2  C   LIG d   1       2.262  82.123 111.477  0.00  0.00     0.016 C 
ATOM      3  C   LIG d   1       2.547  82.032 110.095  0.00  0.00     0.038 C 
ATOM      4  C   LIG d   1       1.613  81.531 109.176  0.00  0.00     0.028 C 
ATOM      5  C   LIG d   1       0.644  80.525 109.786  0.00  0.00    -0.047 C 
ATOM      6  C   LIG d   1       0.019  81.138 111.060  0.00  0.00     0.091 C 
ENDROOT
BRANCH   1   7
ATOM      7  O   LIG d   1       0.551  82.535 113.002  0.00  0.00    -0.368 OA
BRANCH   7   8
ATOM      8  C   LIG d   1       0.834  83.932 112.742  0.00  0.00     0.119 C 
BRANCH   8   9
ATOM      9  C   LIG d   1       1.190  84.590 114.089  0.00  0.00     0.028 C 
ATOM     10  C   LIG d   1       1.193  86.126 114.009  0.00  0.00     0.006 C 
ENDBRANCH   8   9
BRANCH   8  11
ATOM     11  C   LIG d   1      -0.412  84.671 112.247  0.00  0.00     0.028 C 
ATOM     12  C   LIG d   1      -0.452  84.812 110.717  0.00  0.00     0.006 C 
ENDBRANCH   8  11
ENDBRANCH   7   8
ENDBRANCH   1   7
BRANCH   6  13
ATOM     13  N   LIG d   1      -0.879  80.187 111.766  0.00  0.00    -0.311 N 
ATOM     14  C   LIG d   1      -2.024  80.550 112.340  0.00  0.00     0.210 C 
ATOM     15  C   LIG d   1      -2.788  79.416 113.032  0.00  0.00     0.109 C 
ATOM     16  O   LIG d   1      -2.497  81.696 112.315  0.00  0.00    -0.276 OA
ATOM     17  H   LIG d   1      -0.588  79.230 111.807  0.00  0.00     0.149 HD
ENDBRANCH   6  13
BRANCH   5  18
ATOM     18  N   LIG d   1      -0.357  80.189 108.756  0.00  0.00     0.381 N 
ATOM     19  H   LIG d   1      -0.416  79.196 108.652  0.00  0.00    -0.090 HD
ATOM     20  H   LIG d   1      -0.064  80.582 107.878  0.00  0.00    -0.090 HD
ATOM     21  H   LIG d   1      -1.247  80.557 109.012  0.00  0.00    -0.090 HD
ENDBRANCH   5  18
BRANCH   3  22
ATOM     22  C   LIG d   1       3.796  82.410 109.625  0.00  0.00     0.382 C 
ATOM     23  O   LIG d   1       4.059  82.321 108.402  0.00  0.00    -0.241 OA
ATOM     24  O   LIG d   1       4.678  82.796 110.416  0.00  0.00    -0.241 OA
ENDBRANCH   3  22
TORSDOF 7
ENDMDL
MODEL 4
REMARK VINA RESULT:      -6.0      2.468      4.489
REMARK  7 active torsions:
REMARK  status: ('A' for Active; 'I' for Inactive)
REMARK    1  A    between atoms: C_2  and  C_3 
REMARK    2  A    between atoms: C_3  and  O_6 
REMARK    3  A    between atoms: C_3  and  C_4 
REMARK    4  A    between atoms: C_7  and  O_6 
REMARK    5  A    between atoms: C_9  and  C_10 
REMARK    6  A    between atoms: N_15  and  C_14 
REMARK    7  A    between atoms: N_20  and  C_19 
REMARK       I    between atoms: C_22  and  N_20 
ROOT
ATOM      1  C   LIG d   1       2.259  82.624 112.014  0.00  0.00     0.161 C 
ATOM      2  C   LIG d   1       1.096  81.845 111.890  0.00  0.00     0.016 C 
ATOM      3  C   LIG d   1      -0.210  82.382 111.951  0.00  0.00     0.038 C 
ATOM      4  C   LIG d   1      -0.443  83.765 111.989  0.00  0.00     0.028 C 
ATOM      5  C   LIG d   1       0.698  84.553 112.623  0.00  0.00    -0.047 C 
ATOM      6  C   LIG d   1       2.026  84.148 111.945  0.00  0.00     0.091 C 
ENDROOT
BRANCH   1   7
ATOM      7  O   LIG d   1       3.226  82.219 111.025  0.00  0.00    -0.368 OA
BRANCH   7   8
ATOM      8  C   LIG d   1       2.689  81.709 109.780  0.00  0.00     0.119 C 
BRANCH   8   9
ATOM      9  C   LIG d   1       3.201  80.266 109.612  0.00  0.00     0.028 C 
ATOM     10  C   LIG d   1       2.307  79.430 108.679  0.00  0.00     0.006 C 
ENDBRANCH   8   9
BRANCH   8  11
ATOM     11  C   LIG d   1       3.243  82.479 108.577  0.00  0.00     0.028 C 
ATOM     12  C   LIG d   1       4.778  82.546 108.569  0.00  0.00     0.006 C 
ENDBRANCH   8  11
ENDBRANCH   7   8
ENDBRANCH   1   7
BRANCH   6  13
ATOM     13  N   LIG d   1       3.204  84.811 112.563  0.00  0.00    -0.311 N 
ATOM     14  C   LIG d   1       3.639  86.018 112.203  0.00  0.00     0.210 C 
ATOM     15  C   LIG d   1       4.881  86.508 112.953  0.00  0.00     0.109 C 
ATOM     16  O   LIG d   1       3.095  86.742 111.356  0.00  0.00    -0.276 OA
ATOM     17  H   LIG d   1       3.687  84.307 113.280  0.00  0.00     0.149 HD
ENDBRANCH   6  13
BRANCH   5  18
ATOM     18  N   LIG d   1       0.386  85.987 112.473  0.00  0.00     0.381 N 
ATOM     19  H   LIG d   1       0.536  86.459 113.342  0.00  0.00    -0.090 HD
ATOM     20  H   LIG d   1      -0.582  86.085 112.224  0.00  0.00    -0.090 HD
ATOM     21  H   LIG d   1       0.961  86.389 111.765  0.00  0.00    -0.090 HD
ENDBRANCH   5  18
BRANCH   3  22
ATOM     22  C   LIG d   1      -1.301  81.529 112.015  0.00  0.00     0.382 C 
ATOM     23  O   LIG d   1      -1.194  80.343 111.620  0.00  0.00    -0.241 OA
ATOM     24  O   LIG d   1      -2.404  81.942 112.420  0.00  0.00    -0.241 OA
ENDBRANCH   3  22
TORSDOF 7
ENDMDL
MODEL 5
REMARK VINA RESULT:      -5.8      2.605      5.024
REMARK  7 active torsions:
REMARK  status: ('A' for Active; 'I' for Inactive)
REMARK    1  A    between atoms: C_2  and  C_3 
REMARK    2  A    between atoms: C_3  and  O_6 
REMARK    3  A    between atoms: C_3  and  C_4 
REMARK    4  A    between atoms: C_7  and  O_6 
REMARK    5  A    between atoms: C_9  and  C_10 
REMARK    6  A    between atoms: N_15  and  C_14 
REMARK    7  A    between atoms: N_20  and  C_19 
REMARK       I    between atoms: C_22  and  N_20 
ROOT
ATOM      1  C   LIG d   1       2.873  82.733 111.052  0.00  0.00     0.161 C 
ATOM      2  C   LIG d   1       2.828  84.065 111.497  0.00  0.00     0.016 C 
ATOM      3  C   LIG d   1       2.330  85.131 110.713  0.00  0.00     0.038 C 
ATOM      4  C   LIG d   1       1.699  84.912 109.479  0.00  0.00     0.028 C 
ATOM      5  C   LIG d   1       2.176  83.649 108.771  0.00  0.00    -0.047 C 
ATOM      6  C   LIG d   1       2.087  82.459 109.753  0.00  0.00     0.091 C 
ENDROOT
BRANCH   1   7
ATOM      7  O   LIG d   1       2.428  81.852 112.103  0.00  0.00    -0.368 OA
BRANCH   7   8
ATOM      8  C   LIG d   1       1.067  81.366 111.993  0.00  0.00     0.119 C 
BRANCH   8   9
ATOM      9  C   LIG d   1       0.193  82.224 112.928  0.00  0.00     0.028 C 
ATOM     10  C   LIG d   1      -0.734  83.177 112.155  0.00  0.00     0.006 C 
ENDBRANCH   8   9
BRANCH   8  11
ATOM     11  C   LIG d   1       0.943  79.934 112.522  0.00  0.00     0.028 C 
ATOM     12  C   LIG d   1      -0.134  79.120 111.788  0.00  0.00     0.006 C 
ENDBRANCH   8  11
ENDBRANCH   7   8
ENDBRANCH   1   7
BRANCH   6  13
ATOM     13  N   LIG d   1       2.615  81.199 109.166  0.00  0.00    -0.311 N 
ATOM     14  C   LIG d   1       1.841  80.269 108.609  0.00  0.00     0.210 C 
ATOM     15  C   LIG d   1       2.585  79.038 108.083  0.00  0.00     0.109 C 
ATOM     16  O   LIG d   1       0.612  80.362 108.471  0.00  0.00    -0.276 OA
ATOM     17  H   LIG d   1       3.605  81.056 109.207  0.00  0.00     0.149 HD
ENDBRANCH   6  13
BRANCH   5  18
ATOM     18  N   LIG d   1       1.341  83.470 107.568  0.00  0.00     0.381 N 
ATOM     19  H   LIG d   1       1.516  82.571 107.165  0.00  0.00    -0.090 HD
ATOM     20  H   LIG d   1       1.588  84.172 106.893  0.00  0.00    -0.090 HD
ATOM     21  H   LIG d   1       0.377  83.553 107.807  0.00  0.00    -0.090 HD
ENDBRANCH   5  18
BRANCH   3  22
ATOM     22  C   LIG d   1       2.496  86.438 111.145  0.00  0.00     0.382 C 
ATOM     23  O   LIG d   1       1.596  87.286 110.937  0.00  0.00    -0.241 OA
ATOM     24  O   LIG d   1       3.555  86.790 111.699  0.00  0.00    -0.241 OA
ENDBRANCH   3  22
TORSDOF 7
ENDMDL
MODEL 6
REMARK VINA RESULT:      -5.7      2.309      4.908
REMARK  7 active torsions:
REMARK  status: ('A' for Active; 'I' for Inactive)
REMARK    1  A    between atoms: C_2  and  C_3 
REMARK    2  A    between atoms: C_3  and  O_6 
REMARK    3  A    between atoms: C_3  and  C_4 
REMARK    4  A    between atoms: C_7  and  O_6 
REMARK    5  A    between atoms: C_9  and  C_10 
REMARK    6  A    between atoms: N_15  and  C_14 
REMARK    7  A    between atoms: N_20  and  C_19 
REMARK       I    between atoms: C_22  and  N_20 
ROOT
ATOM      1  C   LIG d   1       0.194  82.339 111.433  0.00  0.00     0.161 C 
ATOM      2  C   LIG d   1      -0.268  83.515 112.048  0.00  0.00     0.016 C 
ATOM      3  C   LIG d   1      -0.186  84.791 111.446  0.00  0.00     0.038 C 
ATOM      4  C   LIG d   1       0.228  84.959 110.116  0.00  0.00     0.028 C 
ATOM      5  C   LIG d   1       1.176  83.866 109.635  0.00  0.00    -0.047 C 
ATOM      6  C   LIG d   1       0.547  82.487 109.938  0.00  0.00     0.091 C 
ENDROOT
BRANCH   1   7
ATOM      7  O   LIG d   1      -0.766  81.281 111.619  0.00  0.00    -0.368 OA
BRANCH   7   8
ATOM      8  C   LIG d   1      -0.348  80.181 112.464  0.00  0.00     0.119 C 
BRANCH   8   9
ATOM      9  C   LIG d   1       1.141  80.397 112.801  0.00  0.00     0.028 C 
ATOM     10  C   LIG d   1       1.467  80.055 114.265  0.00  0.00     0.006 C 
ENDBRANCH   8   9
BRANCH   8  11
ATOM     11  C   LIG d   1      -0.404  78.848 111.713  0.00  0.00     0.028 C 
ATOM     12  C   LIG d   1      -1.387  77.849 112.345  0.00  0.00     0.006 C 
ENDBRANCH   8  11
ENDBRANCH   7   8
ENDBRANCH   1   7
BRANCH   6  13
ATOM     13  N   LIG d   1       1.447  81.361 109.575  0.00  0.00    -0.311 N 
ATOM     14  C   LIG d   1       1.075  80.349 108.793  0.00  0.00     0.210 C 
ATOM     15  C   LIG d   1       2.151  79.283 108.561  0.00  0.00     0.109 C 
ATOM     16  O   LIG d   1      -0.032  80.248 108.244  0.00  0.00    -0.276 OA
ATOM     17  H   LIG d   1       2.374  81.379 109.952  0.00  0.00     0.149 HD
ENDBRANCH   6  13
BRANCH   5  18
ATOM     18  N   LIG d   1       1.417  84.087 108.196  0.00  0.00     0.381 N 
ATOM     19  H   LIG d   1       1.022  83.336 107.667  0.00  0.00    -0.090 HD
ATOM     20  H   LIG d   1       2.408  84.102 108.031  0.00  0.00    -0.090 HD
ATOM     21  H   LIG d   1       1.013  84.952 107.912  0.00  0.00    -0.090 HD
ENDBRANCH   5  18
BRANCH   3  22
ATOM     22  C   LIG d   1      -0.484  85.922 112.191  0.00  0.00     0.382 C 
ATOM     23  O   LIG d   1      -1.546  86.555 111.973  0.00  0.00    -0.241 OA
ATOM     24  O   LIG d   1       0.316  86.344 113.047  0.00  0.00    -0.241 OA
ENDBRANCH   3  22
TORSDOF 7
ENDMDL
MODEL 7
REMARK VINA RESULT:      -5.7      2.125      3.714
REMARK  7 active torsions:
REMARK  status: ('A' for Active; 'I' for Inactive)
REMARK    1  A    between atoms: C_2  and  C_3 
REMARK    2  A    between atoms: C_3  and  O_6 
REMARK    3  A    between atoms: C_3  and  C_4 
REMARK    4  A    between atoms: C_7  and  O_6 
REMARK    5  A    between atoms: C_9  and  C_10 
REMARK    6  A    between atoms: N_15  and  C_14 
REMARK    7  A    between atoms: N_20  and  C_19 
REMARK       I    between atoms: C_22  and  N_20 
ROOT
ATOM      1  C   LIG d   1       1.980  81.191 111.883  0.00  0.00     0.161 C 
ATOM      2  C   LIG d   1       0.913  80.304 112.105  0.00  0.00     0.016 C 
ATOM      3  C   LIG d   1      -0.441  80.708 112.133  0.00  0.00     0.038 C 
ATOM      4  C   LIG d   1      -0.834  82.010 111.788  0.00  0.00     0.028 C 
ATOM      5  C   LIG d   1       0.243  83.057 112.050  0.00  0.00    -0.047 C 
ATOM      6  C   LIG d   1       1.564  82.594 111.394  0.00  0.00     0.091 C 
ENDROOT
BRANCH   1   7
ATOM      7  O   LIG d   1       2.923  80.601 110.966  0.00  0.00    -0.368 OA
BRANCH   7   8
ATOM      8  C   LIG d   1       2.790  80.989 109.577  0.00  0.00     0.119 C 
BRANCH   8   9
ATOM      9  C   LIG d   1       2.020  79.867 108.854  0.00  0.00     0.028 C 
ATOM     10  C   LIG d   1       0.600  80.296 108.449  0.00  0.00     0.006 C 
ENDBRANCH   8   9
BRANCH   8  11
ATOM     11  C   LIG d   1       4.154  81.056 108.884  0.00  0.00     0.028 C 
ATOM     12  C   LIG d   1       4.452  82.441 108.287  0.00  0.00     0.006 C 
ENDBRANCH   8  11
ENDBRANCH   7   8
ENDBRANCH   1   7
BRANCH   6  13
ATOM     13  N   LIG d   1       2.691  83.521 111.675  0.00  0.00    -0.311 N 
ATOM     14  C   LIG d   1       3.030  84.527 110.871  0.00  0.00     0.210 C 
ATOM     15  C   LIG d   1       4.236  85.349 111.337  0.00  0.00     0.109 C 
ATOM     16  O   LIG d   1       2.427  84.837 109.833  0.00  0.00    -0.276 OA
ATOM     17  H   LIG d   1       3.216  83.361 112.512  0.00  0.00     0.149 HD
ENDBRANCH   6  13
BRANCH   5  18
ATOM     18  N   LIG d   1      -0.247  84.343 111.519  0.00  0.00     0.381 N 
ATOM     19  H   LIG d   1      -0.233  85.036 112.241  0.00  0.00    -0.090 HD
ATOM     20  H   LIG d   1      -1.196  84.227 111.211  0.00  0.00    -0.090 HD
ATOM     21  H   LIG d   1       0.324  84.637 110.757  0.00  0.00    -0.090 HD
ENDBRANCH   5  18
BRANCH   3  22
ATOM     22  C   LIG d   1      -1.416  79.814 112.548  0.00  0.00     0.382 C 
ATOM     23  O   LIG d   1      -2.374  79.533 111.788  0.00  0.00    -0.241 OA
ATOM     24  O   LIG d   1      -1.375  79.320 113.691  0.00  0.00    -0.241 OA
ENDBRANCH   3  22
TORSDOF 7
ENDMDL
MODEL 8
REMARK VINA RESULT:      -5.4      2.031      4.775
REMARK  7 active torsions:
REMARK  status: ('A' for Active; 'I' for Inactive)
REMARK    1  A    between atoms: C_2  and  C_3 
REMARK    2  A    between atoms: C_3  and  O_6 
REMARK    3  A    between atoms: C_3  and  C_4 
REMARK    4  A    between atoms: C_7  and  O_6 
REMARK    5  A    between atoms: C_9  and  C_10 
REMARK    6  A    between atoms: N_15  and  C_14 
REMARK    7  A    between atoms: N_20  and  C_19 
REMARK       I    between atoms: C_22  and  N_20 
ROOT
ATOM      1  C   LIG d   1       0.689  82.382 110.561  0.00  0.00     0.161 C 
ATOM      2  C   LIG d   1       0.374  83.710 110.894  0.00  0.00     0.016 C 
ATOM      3  C   LIG d   1       0.701  84.816 110.076  0.00  0.00     0.038 C 
ATOM      4  C   LIG d   1       1.235  84.654 108.789  0.00  0.00     0.028 C 
ATOM      5  C   LIG d   1       2.032  83.365 108.622  0.00  0.00    -0.047 C 
ATOM      6  C   LIG d   1       1.173  82.177 109.110  0.00  0.00     0.091 C 
ENDROOT
BRANCH   1   7
ATOM      7  O   LIG d   1      -0.438  81.528 110.839  0.00  0.00    -0.368 OA
BRANCH   7   8
ATOM      8  C   LIG d   1      -0.164  80.353 111.642  0.00  0.00     0.119 C 
BRANCH   8   9
ATOM      9  C   LIG d   1      -1.517  79.805 112.137  0.00  0.00     0.028 C 
ATOM     10  C   LIG d   1      -1.994  78.593 111.320  0.00  0.00     0.006 C 
ENDBRANCH   8   9
BRANCH   8  11
ATOM     11  C   LIG d   1       0.617  80.713 112.909  0.00  0.00     0.028 C 
ATOM     12  C   LIG d   1       1.880  79.857 113.094  0.00  0.00     0.006 C 
ENDBRANCH   8  11
ENDBRANCH   7   8
ENDBRANCH   1   7
BRANCH   6  13
ATOM     13  N   LIG d   1       1.908  80.886 109.060  0.00  0.00    -0.311 N 
ATOM     14  C   LIG d   1       3.082  80.688 109.656  0.00  0.00     0.210 C 
ATOM     15  C   LIG d   1       3.678  79.290 109.462  0.00  0.00     0.109 C 
ATOM     16  O   LIG d   1       3.672  81.527 110.354  0.00  0.00    -0.276 OA
ATOM     17  H   LIG d   1       1.487  80.141 108.540  0.00  0.00     0.149 HD
ENDBRANCH   6  13
BRANCH   5  18
ATOM     18  N   LIG d   1       2.414  83.258 107.201  0.00  0.00     0.381 N 
ATOM     19  H   LIG d   1       2.572  82.299 106.964  0.00  0.00    -0.090 HD
ATOM     20  H   LIG d   1       3.269  83.764 107.055  0.00  0.00    -0.090 HD
ATOM     21  H   LIG d   1       1.694  83.636 106.625  0.00  0.00    -0.090 HD
ENDBRANCH   5  18
BRANCH   3  22
ATOM     22  C   LIG d   1       0.530  86.104 110.561  0.00  0.00     0.382 C 
ATOM     23  O   LIG d   1      -0.583  86.458 111.021  0.00  0.00    -0.241 OA
ATOM     24  O   LIG d   1       1.461  86.929 110.505  0.00  0.00    -0.241 OA
ENDBRANCH   3  22
TORSDOF 7
ENDMDL
MODEL 9
REMARK VINA RESULT:      -5.3      2.824      5.312
REMARK  7 active torsions:
REMARK  status: ('A' for Active; 'I' for Inactive)
REMARK    1  A    between atoms: C_2  and  C_3 
REMARK    2  A    between atoms: C_3  and  O_6 
REMARK    3  A    between atoms: C_3  and  C_4 
REMARK    4  A    between atoms: C_7  and  O_6 
REMARK    5  A    between atoms: C_9  and  C_10 
REMARK    6  A    between atoms: N_15  and  C_14 
REMARK    7  A    between atoms: N_20  and  C_19 
REMARK       I    between atoms: C_22  and  N_20 
ROOT
ATOM      1  C   LIG d   1       2.324  83.414 111.863  0.00  0.00     0.161 C 
ATOM      2  C   LIG d   1       2.966  84.591 112.285  0.00  0.00     0.016 C 
ATOM      3  C   LIG d   1       4.107  85.128 111.645  0.00  0.00     0.038 C 
ATOM      4  C   LIG d   1       4.596  84.603 110.440  0.00  0.00     0.028 C 
ATOM      5  C   LIG d   1       4.288  83.121 110.255  0.00  0.00    -0.047 C 
ATOM      6  C   LIG d   1       2.777  82.890 110.484  0.00  0.00     0.091 C 
ENDROOT
BRANCH   1   7
ATOM      7  O   LIG d   1       0.895  83.603 111.883  0.00  0.00    -0.368 OA
BRANCH   7   8
ATOM      8  C   LIG d   1       0.430  84.966 111.727  0.00  0.00     0.119 C 
BRANCH   8   9
ATOM      9  C   LIG d   1      -0.545  85.258 112.884  0.00  0.00     0.028 C 
ATOM     10  C   LIG d   1       0.088  86.135 113.978  0.00  0.00     0.006 C 
ENDBRANCH   8   9
BRANCH   8  11
ATOM     11  C   LIG d   1      -0.397  85.130 110.448  0.00  0.00     0.028 C 
ATOM     12  C   LIG d   1       0.370  85.855 109.331  0.00  0.00     0.006 C 
ENDBRANCH   8  11
ENDBRANCH   7   8
ENDBRANCH   1   7
BRANCH   6  13
ATOM     13  N   LIG d   1       2.405  81.453 110.405  0.00  0.00    -0.311 N 
ATOM     14  C   LIG d   1       1.651  80.944 109.432  0.00  0.00     0.210 C 
ATOM     15  C   LIG d   1       1.369  79.443 109.551  0.00  0.00     0.109 C 
ATOM     16  O   LIG d   1       1.215  81.586 108.465  0.00  0.00    -0.276 OA
ATOM     17  H   LIG d   1       2.742  80.854 111.133  0.00  0.00     0.149 HD
ENDBRANCH   6  13
BRANCH   5  18
ATOM     18  N   LIG d   1       4.732  82.739 108.901  0.00  0.00     0.381 N 
ATOM     19  H   LIG d   1       5.728  82.642 108.886  0.00  0.00    -0.090 HD
ATOM     20  H   LIG d   1       4.477  83.467 108.257  0.00  0.00    -0.090 HD
ATOM     21  H   LIG d   1       4.303  81.881 108.631  0.00  0.00    -0.090 HD
ENDBRANCH   5  18
BRANCH   3  22
ATOM     22  C   LIG d   1       4.794  86.178 112.234  0.00  0.00     0.382 C 
ATOM     23  O   LIG d   1       5.190  87.140 111.532  0.00  0.00    -0.241 OA
ATOM     24  O   LIG d   1       5.062  86.155 113.450  0.00  0.00    -0.241 OA
ENDBRANCH   3  22
TORSDOF 7
ENDMDL
