MODEL 1
REMARK VINA RESULT:      -5.4      0.000      0.000
REMARK  7 active torsions:
REMARK  status: ('A' for Active; 'I' for Inactive)
REMARK    1  A    between atoms: C_2  and  C_3 
REMARK    2  A    between atoms: C_3  and  O_6 
REMARK    3  A    between atoms: C_3  and  C_4 
REMARK    4  A    between atoms: C_7  and  O_6 
REMARK    5  A    between atoms: C_9  and  C_10 
REMARK    6  A    between atoms: N_15  and  C_14 
REMARK    7  A    between atoms: N_20  and  C_19 
REMARK       I    between atoms: C_22  and  N_20 
ROOT
ATOM      1  C   LIG d   1      -5.057  93.862 116.970  0.00  0.00     0.161 C 
ATOM      2  C   LIG d   1      -6.385  93.605 116.591  0.00  0.00     0.016 C 
ATOM      3  C   LIG d   1      -6.855  92.324 116.223  0.00  0.00     0.038 C 
ATOM      4  C   LIG d   1      -6.060  91.176 116.355  0.00  0.00     0.028 C 
ATOM      5  C   LIG d   1      -4.565  91.459 116.252  0.00  0.00    -0.047 C 
ATOM      6  C   LIG d   1      -4.202  92.603 117.227  0.00  0.00     0.091 C 
ENDROOT
BRANCH   1   7
ATOM      7  O   LIG d   1      -5.036  94.726 118.123  0.00  0.00    -0.368 OA
BRANCH   7   8
ATOM      8  C   LIG d   1      -6.087  94.514 119.097  0.00  0.00     0.119 C 
BRANCH   8   9
ATOM      9  C   LIG d   1      -6.618  95.899 119.514  0.00  0.00     0.028 C 
ATOM     10  C   LIG d   1      -6.921  96.800 118.305  0.00  0.00     0.006 C 
ENDBRANCH   8   9
BRANCH   8  11
ATOM     11  C   LIG d   1      -5.538  93.886 120.382  0.00  0.00     0.028 C 
ATOM     12  C   LIG d   1      -5.773  92.369 120.451  0.00  0.00     0.006 C 
ENDBRANCH   8  11
ENDBRANCH   7   8
ENDBRANCH   1   7
BRANCH   6  13
ATOM     13  N   LIG d   1      -2.774  93.000 117.128  0.00  0.00    -0.311 N 
ATOM     14  C   LIG d   1      -1.947  93.030 118.172  0.00  0.00     0.210 C 
ATOM     15  C   LIG d   1      -0.520  93.489 117.854  0.00  0.00     0.109 C 
ATOM     16  O   LIG d   1      -2.251  92.689 119.325  0.00  0.00    -0.276 OA
ATOM     17  H   LIG d   1      -2.435  93.262 116.223  0.00  0.00     0.149 HD
ENDBRANCH   6  13
BRANCH   5  18
ATOM     18  N   LIG d   1      -3.851  90.202 116.544  0.00  0.00     0.381 N 
ATOM     19  H   LIG d   1      -2.871  90.381 116.631  0.00  0.00    -0.090 HD
ATOM     20  H   LIG d   1      -3.989  89.565 115.780  0.00  0.00    -0.090 HD
ATOM     21  H   LIG d   1      -4.199  89.801 117.387  0.00  0.00    -0.090 HD
ENDBRANCH   5  18
BRANCH   3  22
ATOM     22  C   LIG d   1      -8.123  92.187 115.679  0.00  0.00     0.382 C 
ATOM     23  O   LIG d   1      -8.969  93.103 115.822  0.00  0.00    -0.241 OA
ATOM     24  O   LIG d   1      -8.446  91.141 115.084  0.00  0.00    -0.241 OA
ENDBRANCH   3  22
TORSDOF 7
ENDMDL
MODEL 2
REMARK VINA RESULT:      -5.4      2.314      4.106
REMARK  7 active torsions:
REMARK  status: ('A' for Active; 'I' for Inactive)
REMARK    1  A    between atoms: C_2  and  C_3 
REMARK    2  A    between atoms: C_3  and  O_6 
REMARK    3  A    between atoms: C_3  and  C_4 
REMARK    4  A    between atoms: C_7  and  O_6 
REMARK    5  A    between atoms: C_9  and  C_10 
REMARK    6  A    between atoms: N_15  and  C_14 
REMARK    7  A    between atoms: N_20  and  C_19 
REMARK       I    between atoms: C_22  and  N_20 
ROOT
ATOM      1  C   LIG d   1      -4.557  91.952 117.340  0.00  0.00     0.161 C 
ATOM      2  C   LIG d   1      -5.547  91.230 116.653  0.00  0.00     0.016 C 
ATOM      3  C   LIG d   1      -6.738  91.814 116.163  0.00  0.00     0.038 C 
ATOM      4  C   LIG d   1      -6.952  93.200 116.195  0.00  0.00     0.028 C 
ATOM      5  C   LIG d   1      -6.211  93.901 117.328  0.00  0.00    -0.047 C 
ATOM      6  C   LIG d   1      -4.722  93.486 117.287  0.00  0.00     0.091 C 
ENDROOT
BRANCH   1   7
ATOM      7  O   LIG d   1      -3.253  91.572 116.860  0.00  0.00    -0.368 OA
BRANCH   7   8
ATOM      8  C   LIG d   1      -2.575  90.534 117.611  0.00  0.00     0.119 C 
BRANCH   8   9
ATOM      9  C   LIG d   1      -3.020  90.661 119.081  0.00  0.00     0.028 C 
ATOM     10  C   LIG d   1      -3.490  89.321 119.670  0.00  0.00     0.006 C 
ENDBRANCH   8   9
BRANCH   8  11
ATOM     11  C   LIG d   1      -1.060  90.755 117.625  0.00  0.00     0.028 C 
ATOM     12  C   LIG d   1      -0.266  89.440 117.605  0.00  0.00     0.006 C 
ENDBRANCH   8  11
ENDBRANCH   7   8
ENDBRANCH   1   7
BRANCH   6  13
ATOM     13  N   LIG d   1      -3.942  94.061 118.413  0.00  0.00    -0.311 N 
ATOM     14  C   LIG d   1      -2.692  94.504 118.288  0.00  0.00     0.210 C 
ATOM     15  C   LIG d   1      -2.063  95.040 119.578  0.00  0.00     0.109 C 
ATOM     16  O   LIG d   1      -2.055  94.533 117.224  0.00  0.00    -0.276 OA
ATOM     17  H   LIG d   1      -4.393  94.105 119.305  0.00  0.00     0.149 HD
ENDBRANCH   6  13
BRANCH   5  18
ATOM     18  N   LIG d   1      -6.411  95.353 117.160  0.00  0.00     0.381 N 
ATOM     19  H   LIG d   1      -5.958  95.845 117.904  0.00  0.00    -0.090 HD
ATOM     20  H   LIG d   1      -7.395  95.552 117.203  0.00  0.00    -0.090 HD
ATOM     21  H   LIG d   1      -6.042  95.649 116.284  0.00  0.00    -0.090 HD
ENDBRANCH   5  18
BRANCH   3  22
ATOM     22  C   LIG d   1      -7.748  91.003 115.669  0.00  0.00     0.382 C 
ATOM     23  O   LIG d   1      -7.577  89.762 115.596  0.00  0.00    -0.241 OA
ATOM     24  O   LIG d   1      -8.812  91.500 115.254  0.00  0.00    -0.241 OA
ENDBRANCH   3  22
TORSDOF 7
ENDMDL
MODEL 3
REMARK VINA RESULT:      -5.3     33.105     34.576
REMARK  7 active torsions:
REMARK  status: ('A' for Active; 'I' for Inactive)
REMARK    1  A    between atoms: C_2  and  C_3 
REMARK    2  A    between atoms: C_3  and  O_6 
REMARK    3  A    between atoms: C_3  and  C_4 
REMARK    4  A    between atoms: C_7  and  O_6 
REMARK    5  A    between atoms: C_9  and  C_10 
REMARK    6  A    between atoms: N_15  and  C_14 
REMARK    7  A    between atoms: N_20  and  C_19 
REMARK       I    between atoms: C_22  and  N_20 
ROOT
ATOM      1  C   LIG d   1      -1.335  59.041 119.257  0.00  0.00     0.161 C 
ATOM      2  C   LIG d   1      -2.456  58.931 118.418  0.00  0.00     0.016 C 
ATOM      3  C   LIG d   1      -2.366  58.698 117.026  0.00  0.00     0.038 C 
ATOM      4  C   LIG d   1      -1.144  58.408 116.400  0.00  0.00     0.028 C 
ATOM      5  C   LIG d   1       0.061  59.007 117.117  0.00  0.00    -0.047 C 
ATOM      6  C   LIG d   1       0.001  58.617 118.612  0.00  0.00     0.091 C 
ENDROOT
BRANCH   1   7
ATOM      7  O   LIG d   1      -1.561  58.302 120.474  0.00  0.00    -0.368 OA
BRANCH   7   8
ATOM      8  C   LIG d   1      -1.646  59.085 121.689  0.00  0.00     0.119 C 
BRANCH   8   9
ATOM      9  C   LIG d   1      -3.053  58.874 122.279  0.00  0.00     0.028 C 
ATOM     10  C   LIG d   1      -3.569  57.441 122.069  0.00  0.00     0.006 C 
ENDBRANCH   8   9
BRANCH   8  11
ATOM     11  C   LIG d   1      -1.550  60.585 121.394  0.00  0.00     0.028 C 
ATOM     12  C   LIG d   1      -0.378  61.263 122.121  0.00  0.00     0.006 C 
ENDBRANCH   8  11
ENDBRANCH   7   8
ENDBRANCH   1   7
BRANCH   6  13
ATOM     13  N   LIG d   1       1.098  59.232 119.403  0.00  0.00    -0.311 N 
ATOM     14  C   LIG d   1       2.261  58.627 119.639  0.00  0.00     0.210 C 
ATOM     15  C   LIG d   1       3.246  59.430 120.494  0.00  0.00     0.109 C 
ATOM     16  O   LIG d   1       2.581  57.514 119.194  0.00  0.00    -0.276 OA
ATOM     17  H   LIG d   1       0.934  60.147 119.775  0.00  0.00     0.149 HD
ENDBRANCH   6  13
BRANCH   5  18
ATOM     18  N   LIG d   1       1.274  58.513 116.439  0.00  0.00     0.381 N 
ATOM     19  H   LIG d   1       2.030  58.461 117.092  0.00  0.00    -0.090 HD
ATOM     20  H   LIG d   1       1.528  59.160 115.714  0.00  0.00    -0.090 HD
ATOM     21  H   LIG d   1       1.103  57.613 116.046  0.00  0.00    -0.090 HD
ENDBRANCH   5  18
BRANCH   3  22
ATOM     22  C   LIG d   1      -3.503  58.794 116.238  0.00  0.00     0.382 C 
ATOM     23  O   LIG d   1      -4.589  58.314 116.643  0.00  0.00    -0.241 OA
ATOM     24  O   LIG d   1      -3.446  59.316 115.108  0.00  0.00    -0.241 OA
ENDBRANCH   3  22
TORSDOF 7
ENDMDL
MODEL 4
REMARK VINA RESULT:      -5.3      2.243      4.269
REMARK  7 active torsions:
REMARK  status: ('A' for Active; 'I' for Inactive)
REMARK    1  A    between atoms: C_2  and  C_3 
REMARK    2  A    between atoms: C_3  and  O_6 
REMARK    3  A    between atoms: C_3  and  C_4 
REMARK    4  A    between atoms: C_7  and  O_6 
REMARK    5  A    between atoms: C_9  and  C_10 
REMARK    6  A    between atoms: N_15  and  C_14 
REMARK    7  A    between atoms: N_20  and  C_19 
REMARK       I    between atoms: C_22  and  N_20 
ROOT
ATOM      1  C   LIG d   1      -4.807  92.855 117.189  0.00  0.00     0.161 C 
ATOM      2  C   LIG d   1      -4.969  91.791 116.286  0.00  0.00     0.016 C 
ATOM      3  C   LIG d   1      -6.205  91.465 115.682  0.00  0.00     0.038 C 
ATOM      4  C   LIG d   1      -7.338  92.280 115.825  0.00  0.00     0.028 C 
ATOM      5  C   LIG d   1      -7.352  93.075 117.126  0.00  0.00    -0.047 C 
ATOM      6  C   LIG d   1      -6.006  93.822 117.271  0.00  0.00     0.091 C 
ENDROOT
BRANCH   1   7
ATOM      7  O   LIG d   1      -3.599  93.579 116.879  0.00  0.00    -0.368 OA
BRANCH   7   8
ATOM      8  C   LIG d   1      -2.557  93.540 117.884  0.00  0.00     0.119 C 
BRANCH   8   9
ATOM      9  C   LIG d   1      -1.555  94.664 117.557  0.00  0.00     0.028 C 
ATOM     10  C   LIG d   1      -0.128  94.133 117.339  0.00  0.00     0.006 C 
ENDBRANCH   8   9
BRANCH   8  11
ATOM     11  C   LIG d   1      -1.750  92.240 117.800  0.00  0.00     0.028 C 
ATOM     12  C   LIG d   1      -2.007  91.301 118.989  0.00  0.00     0.006 C 
ENDBRANCH   8  11
ENDBRANCH   7   8
ENDBRANCH   1   7
BRANCH   6  13
ATOM     13  N   LIG d   1      -5.903  94.558 118.558  0.00  0.00    -0.311 N 
ATOM     14  C   LIG d   1      -6.206  95.848 118.691  0.00  0.00     0.210 C 
ATOM     15  C   LIG d   1      -6.010  96.417 120.100  0.00  0.00     0.109 C 
ATOM     16  O   LIG d   1      -6.650  96.568 117.783  0.00  0.00    -0.276 OA
ATOM     17  H   LIG d   1      -5.580  94.043 119.354  0.00  0.00     0.149 HD
ENDBRANCH   6  13
BRANCH   5  18
ATOM     18  N   LIG d   1      -8.514  93.982 117.082  0.00  0.00     0.381 N 
ATOM     19  H   LIG d   1      -8.703  94.245 116.135  0.00  0.00    -0.090 HD
ATOM     20  H   LIG d   1      -8.298  94.813 117.603  0.00  0.00    -0.090 HD
ATOM     21  H   LIG d   1      -9.312  93.533 117.474  0.00  0.00    -0.090 HD
ENDBRANCH   5  18
BRANCH   3  22
ATOM     22  C   LIG d   1      -6.326  90.290 114.956  0.00  0.00     0.382 C 
ATOM     23  O   LIG d   1      -7.462  89.808 114.727  0.00  0.00    -0.241 OA
ATOM     24  O   LIG d   1      -5.312  89.681 114.565  0.00  0.00    -0.241 OA
ENDBRANCH   3  22
TORSDOF 7
ENDMDL
MODEL 5
REMARK VINA RESULT:      -5.2      2.454      5.608
REMARK  7 active torsions:
REMARK  status: ('A' for Active; 'I' for Inactive)
REMARK    1  A    between atoms: C_2  and  C_3 
REMARK    2  A    between atoms: C_3  and  O_6 
REMARK    3  A    between atoms: C_3  and  C_4 
REMARK    4  A    between atoms: C_7  and  O_6 
REMARK    5  A    between atoms: C_9  and  C_10 
REMARK    6  A    between atoms: N_15  and  C_14 
REMARK    7  A    between atoms: N_20  and  C_19 
REMARK       I    between atoms: C_22  and  N_20 
ROOT
ATOM      1  C   LIG d   1      -4.377  92.512 116.791  0.00  0.00     0.161 C 
ATOM      2  C   LIG d   1      -3.437  93.356 117.407  0.00  0.00     0.016 C 
ATOM      3  C   LIG d   1      -3.781  94.571 118.043  0.00  0.00     0.038 C 
ATOM      4  C   LIG d   1      -5.117  94.953 118.239  0.00  0.00     0.028 C 
ATOM      5  C   LIG d   1      -6.069  94.384 117.192  0.00  0.00    -0.047 C 
ATOM      6  C   LIG d   1      -5.851  92.858 117.092  0.00  0.00     0.091 C 
ENDROOT
BRANCH   1   7
ATOM      7  O   LIG d   1      -4.103  91.140 117.138  0.00  0.00    -0.368 OA
BRANCH   7   8
ATOM      8  C   LIG d   1      -3.306  90.931 118.329  0.00  0.00     0.119 C 
BRANCH   8   9
ATOM      9  C   LIG d   1      -2.200  89.918 117.974  0.00  0.00     0.028 C 
ATOM     10  C   LIG d   1      -0.919  90.602 117.468  0.00  0.00     0.006 C 
ENDBRANCH   8   9
BRANCH   8  11
ATOM     11  C   LIG d   1      -4.126  90.264 119.438  0.00  0.00     0.028 C 
ATOM     12  C   LIG d   1      -4.868  91.278 120.323  0.00  0.00     0.006 C 
ENDBRANCH   8  11
ENDBRANCH   7   8
ENDBRANCH   1   7
BRANCH   6  13
ATOM     13  N   LIG d   1      -6.684  92.234 116.030  0.00  0.00    -0.311 N 
ATOM     14  C   LIG d   1      -7.506  91.210 116.251  0.00  0.00     0.210 C 
ATOM     15  C   LIG d   1      -8.257  90.706 115.015  0.00  0.00     0.109 C 
ATOM     16  O   LIG d   1      -7.708  90.691 117.359  0.00  0.00    -0.276 OA
ATOM     17  H   LIG d   1      -6.605  92.613 115.107  0.00  0.00     0.149 HD
ENDBRANCH   6  13
BRANCH   5  18
ATOM     18  N   LIG d   1      -7.441  94.747 117.594  0.00  0.00     0.381 N 
ATOM     19  H   LIG d   1      -7.587  94.507 118.555  0.00  0.00    -0.090 HD
ATOM     20  H   LIG d   1      -8.093  94.224 117.036  0.00  0.00    -0.090 HD
ATOM     21  H   LIG d   1      -7.588  95.723 117.463  0.00  0.00    -0.090 HD
ENDBRANCH   5  18
BRANCH   3  22
ATOM     22  C   LIG d   1      -2.781  95.438 118.455  0.00  0.00     0.382 C 
ATOM     23  O   LIG d   1      -3.055  96.635 118.711  0.00  0.00    -0.241 OA
ATOM     24  O   LIG d   1      -1.600  95.049 118.532  0.00  0.00    -0.241 OA
ENDBRANCH   3  22
TORSDOF 7
ENDMDL
MODEL 6
REMARK VINA RESULT:      -5.2     33.432     35.118
REMARK  7 active torsions:
REMARK  status: ('A' for Active; 'I' for Inactive)
REMARK    1  A    between atoms: C_2  and  C_3 
REMARK    2  A    between atoms: C_3  and  O_6 
REMARK    3  A    between atoms: C_3  and  C_4 
REMARK    4  A    between atoms: C_7  and  O_6 
REMARK    5  A    between atoms: C_9  and  C_10 
REMARK    6  A    between atoms: N_15  and  C_14 
REMARK    7  A    between atoms: N_20  and  C_19 
REMARK       I    between atoms: C_22  and  N_20 
ROOT
ATOM      1  C   LIG d   1      -0.424  59.318 118.397  0.00  0.00     0.161 C 
ATOM      2  C   LIG d   1      -1.757  59.344 117.953  0.00  0.00     0.016 C 
ATOM      3  C   LIG d   1      -2.263  58.474 116.960  0.00  0.00     0.038 C 
ATOM      4  C   LIG d   1      -1.504  57.412 116.448  0.00  0.00     0.028 C 
ATOM      5  C   LIG d   1      -0.001  57.662 116.497  0.00  0.00    -0.047 C 
ATOM      6  C   LIG d   1       0.389  58.093 117.930  0.00  0.00     0.091 C 
ENDROOT
BRANCH   1   7
ATOM      7  O   LIG d   1      -0.386  59.428 119.834  0.00  0.00    -0.368 OA
BRANCH   7   8
ATOM      8  C   LIG d   1      -1.540  58.916 120.543  0.00  0.00     0.119 C 
BRANCH   8   9
ATOM      9  C   LIG d   1      -1.826  59.875 121.715  0.00  0.00     0.028 C 
ATOM     10  C   LIG d   1      -0.895  61.099 121.712  0.00  0.00     0.006 C 
ENDBRANCH   8   9
BRANCH   8  11
ATOM     11  C   LIG d   1      -1.241  57.561 121.192  0.00  0.00     0.028 C 
ATOM     12  C   LIG d   1      -1.820  56.379 120.398  0.00  0.00     0.006 C 
ENDBRANCH   8  11
ENDBRANCH   7   8
ENDBRANCH   1   7
BRANCH   6  13
ATOM     13  N   LIG d   1       1.830  58.440 118.045  0.00  0.00    -0.311 N 
ATOM     14  C   LIG d   1       2.763  57.574 118.436  0.00  0.00     0.210 C 
ATOM     15  C   LIG d   1       4.184  58.142 118.505  0.00  0.00     0.109 C 
ATOM     16  O   LIG d   1       2.554  56.380 118.700  0.00  0.00    -0.276 OA
ATOM     17  H   LIG d   1       2.093  59.379 117.820  0.00  0.00     0.149 HD
ENDBRANCH   6  13
BRANCH   5  18
ATOM     18  N   LIG d   1       0.672  56.424 116.063  0.00  0.00     0.381 N 
ATOM     19  H   LIG d   1       1.577  56.364 116.486  0.00  0.00    -0.090 HD
ATOM     20  H   LIG d   1       0.792  56.452 115.065  0.00  0.00    -0.090 HD
ATOM     21  H   LIG d   1       0.125  55.631 116.317  0.00  0.00    -0.090 HD
ENDBRANCH   5  18
BRANCH   3  22
ATOM     22  C   LIG d   1      -3.531  58.688 116.440  0.00  0.00     0.382 C 
ATOM     23  O   LIG d   1      -4.519  58.093 116.933  0.00  0.00    -0.241 OA
ATOM     24  O   LIG d   1      -3.692  59.435 115.457  0.00  0.00    -0.241 OA
ENDBRANCH   3  22
TORSDOF 7
ENDMDL
MODEL 7
REMARK VINA RESULT:      -5.2     16.342     18.631
REMARK  7 active torsions:
REMARK  status: ('A' for Active; 'I' for Inactive)
REMARK    1  A    between atoms: C_2  and  C_3 
REMARK    2  A    between atoms: C_3  and  O_6 
REMARK    3  A    between atoms: C_3  and  C_4 
REMARK    4  A    between atoms: C_7  and  O_6 
REMARK    5  A    between atoms: C_9  and  C_10 
REMARK    6  A    between atoms: N_15  and  C_14 
REMARK    7  A    between atoms: N_20  and  C_19 
REMARK       I    between atoms: C_22  and  N_20 
ROOT
ATOM      1  C   LIG d   1      -6.001  75.122 117.050  0.00  0.00     0.161 C 
ATOM      2  C   LIG d   1      -4.824  74.436 116.707  0.00  0.00     0.016 C 
ATOM      3  C   LIG d   1      -3.528  74.919 117.000  0.00  0.00     0.038 C 
ATOM      4  C   LIG d   1      -3.323  76.056 117.796  0.00  0.00     0.028 C 
ATOM      5  C   LIG d   1      -4.475  77.054 117.735  0.00  0.00    -0.047 C 
ATOM      6  C   LIG d   1      -5.799  76.309 118.016  0.00  0.00     0.091 C 
ENDROOT
BRANCH   1   7
ATOM      7  O   LIG d   1      -6.966  74.197 117.587  0.00  0.00    -0.368 OA
BRANCH   7   8
ATOM      8  C   LIG d   1      -7.752  73.461 116.618  0.00  0.00     0.119 C 
BRANCH   8   9
ATOM      9  C   LIG d   1      -9.231  73.835 116.840  0.00  0.00     0.028 C 
ATOM     10  C   LIG d   1      -9.577  75.222 116.273  0.00  0.00     0.006 C 
ENDBRANCH   8   9
BRANCH   8  11
ATOM     11  C   LIG d   1      -7.674  71.952 116.866  0.00  0.00     0.028 C 
ATOM     12  C   LIG d   1      -8.987  71.225 116.539  0.00  0.00     0.006 C 
ENDBRANCH   8  11
ENDBRANCH   7   8
ENDBRANCH   1   7
BRANCH   6  13
ATOM     13  N   LIG d   1      -6.986  77.195 117.893  0.00  0.00    -0.311 N 
ATOM     14  C   LIG d   1      -7.728  77.576 118.931  0.00  0.00     0.210 C 
ATOM     15  C   LIG d   1      -8.918  78.475 118.581  0.00  0.00     0.109 C 
ATOM     16  O   LIG d   1      -7.495  77.280 120.113  0.00  0.00    -0.276 OA
ATOM     17  H   LIG d   1      -7.228  77.507 116.973  0.00  0.00     0.149 HD
ENDBRANCH   6  13
BRANCH   5  18
ATOM     18  N   LIG d   1      -4.193  78.121 118.714  0.00  0.00     0.381 N 
ATOM     19  H   LIG d   1      -3.456  77.832 119.326  0.00  0.00    -0.090 HD
ATOM     20  H   LIG d   1      -5.017  78.282 119.266  0.00  0.00    -0.090 HD
ATOM     21  H   LIG d   1      -3.932  78.958 118.240  0.00  0.00    -0.090 HD
ENDBRANCH   5  18
BRANCH   3  22
ATOM     22  C   LIG d   1      -2.419  74.284 116.461  0.00  0.00     0.382 C 
ATOM     23  O   LIG d   1      -1.763  73.471 117.156  0.00  0.00    -0.241 OA
ATOM     24  O   LIG d   1      -2.041  74.548 115.304  0.00  0.00    -0.241 OA
ENDBRANCH   3  22
TORSDOF 7
ENDMDL
MODEL 8
REMARK VINA RESULT:      -5.2      1.208      2.136
REMARK  7 active torsions:
REMARK  status: ('A' for Active; 'I' for Inactive)
REMARK    1  A    between atoms: C_2  and  C_3 
REMARK    2  A    between atoms: C_3  and  O_6 
REMARK    3  A    between atoms: C_3  and  C_4 
REMARK    4  A    between atoms: C_7  and  O_6 
REMARK    5  A    between atoms: C_9  and  C_10 
REMARK    6  A    between atoms: N_15  and  C_14 
REMARK    7  A    between atoms: N_20  and  C_19 
REMARK       I    between atoms: C_22  and  N_20 
ROOT
ATOM      1  C   LIG d   1      -5.250  93.892 117.261  0.00  0.00     0.161 C 
ATOM      2  C   LIG d   1      -6.566  93.637 116.840  0.00  0.00     0.016 C 
ATOM      3  C   LIG d   1      -6.979  92.406 116.279  0.00  0.00     0.038 C 
ATOM      4  C   LIG d   1      -6.132  91.289 116.239  0.00  0.00     0.028 C 
ATOM      5  C   LIG d   1      -4.652  91.652 116.188  0.00  0.00    -0.047 C 
ATOM      6  C   LIG d   1      -4.340  92.648 117.328  0.00  0.00     0.091 C 
ENDROOT
BRANCH   1   7
ATOM      7  O   LIG d   1      -5.267  94.570 118.533  0.00  0.00    -0.368 OA
BRANCH   7   8
ATOM      8  C   LIG d   1      -4.941  95.982 118.507  0.00  0.00     0.119 C 
BRANCH   8   9
ATOM      9  C   LIG d   1      -3.811  96.214 119.529  0.00  0.00     0.028 C 
ATOM     10  C   LIG d   1      -2.447  96.437 118.856  0.00  0.00     0.006 C 
ENDBRANCH   8   9
BRANCH   8  11
ATOM     11  C   LIG d   1      -6.115  96.834 118.999  0.00  0.00     0.028 C 
ATOM     12  C   LIG d   1      -6.726  97.702 117.888  0.00  0.00     0.006 C 
ENDBRANCH   8  11
ENDBRANCH   7   8
ENDBRANCH   1   7
BRANCH   6  13
ATOM     13  N   LIG d   1      -2.931  93.120 117.299  0.00  0.00    -0.311 N 
ATOM     14  C   LIG d   1      -1.955  92.561 118.013  0.00  0.00     0.210 C 
ATOM     15  C   LIG d   1      -0.580  93.215 117.851  0.00  0.00     0.109 C 
ATOM     16  O   LIG d   1      -2.093  91.566 118.740  0.00  0.00    -0.276 OA
ATOM     17  H   LIG d   1      -2.725  93.904 116.711  0.00  0.00     0.149 HD
ENDBRANCH   6  13
BRANCH   5  18
ATOM     18  N   LIG d   1      -3.881  90.398 116.290  0.00  0.00     0.381 N 
ATOM     19  H   LIG d   1      -3.093  90.532 116.891  0.00  0.00    -0.090 HD
ATOM     20  H   LIG d   1      -3.543  90.149 115.377  0.00  0.00    -0.090 HD
ATOM     21  H   LIG d   1      -4.460  89.670 116.647  0.00  0.00    -0.090 HD
ENDBRANCH   5  18
BRANCH   3  22
ATOM     22  C   LIG d   1      -8.240  92.298 115.713  0.00  0.00     0.382 C 
ATOM     23  O   LIG d   1      -8.547  91.272 115.059  0.00  0.00    -0.241 OA
ATOM     24  O   LIG d   1      -9.059  93.231 115.811  0.00  0.00    -0.241 OA
ENDBRANCH   3  22
TORSDOF 7
ENDMDL
MODEL 9
REMARK VINA RESULT:      -4.9     13.916     16.156
REMARK  7 active torsions:
REMARK  status: ('A' for Active; 'I' for Inactive)
REMARK    1  A    between atoms: C_2  and  C_3 
REMARK    2  A    between atoms: C_3  and  O_6 
REMARK    3  A    between atoms: C_3  and  C_4 
REMARK    4  A    between atoms: C_7  and  O_6 
REMARK    5  A    between atoms: C_9  and  C_10 
REMARK    6  A    between atoms: N_15  and  C_14 
REMARK    7  A    between atoms: N_20  and  C_19 
REMARK       I    between atoms: C_22  and  N_20 
ROOT
ATOM      1  C   LIG d   1      -7.233  77.288 118.042  0.00  0.00     0.161 C 
ATOM      2  C   LIG d   1      -8.490  77.804 118.396  0.00  0.00     0.016 C 
ATOM      3  C   LIG d   1      -8.733  79.180 118.615  0.00  0.00     0.038 C 
ATOM      4  C   LIG d   1      -7.763  80.156 118.345  0.00  0.00     0.028 C 
ATOM      5  C   LIG d   1      -6.334  79.641 118.471  0.00  0.00    -0.047 C 
ATOM      6  C   LIG d   1      -6.190  78.350 117.634  0.00  0.00     0.091 C 
ENDROOT
BRANCH   1   7
ATOM      7  O   LIG d   1      -7.384  76.307 116.997  0.00  0.00    -0.368 OA
BRANCH   7   8
ATOM      8  C   LIG d   1      -7.253  74.922 117.399  0.00  0.00     0.119 C 
BRANCH   8   9
ATOM      9  C   LIG d   1      -5.949  74.382 116.780  0.00  0.00     0.028 C 
ATOM     10  C   LIG d   1      -5.873  74.630 115.264  0.00  0.00     0.006 C 
ENDBRANCH   8   9
BRANCH   8  11
ATOM     11  C   LIG d   1      -8.371  74.060 116.805  0.00  0.00     0.028 C 
ATOM     12  C   LIG d   1      -9.617  74.878 116.430  0.00  0.00     0.006 C 
ENDBRANCH   8  11
ENDBRANCH   7   8
ENDBRANCH   1   7
BRANCH   6  13
ATOM     13  N   LIG d   1      -4.844  77.733 117.769  0.00  0.00    -0.311 N 
ATOM     14  C   LIG d   1      -3.821  78.023 116.966  0.00  0.00     0.210 C 
ATOM     15  C   LIG d   1      -2.528  77.260 117.267  0.00  0.00     0.109 C 
ATOM     16  O   LIG d   1      -3.853  78.863 116.055  0.00  0.00    -0.276 OA
ATOM     17  H   LIG d   1      -4.721  77.063 118.502  0.00  0.00     0.149 HD
ENDBRANCH   6  13
BRANCH   5  18
ATOM     18  N   LIG d   1      -5.430  80.720 118.029  0.00  0.00     0.381 N 
ATOM     19  H   LIG d   1      -4.519  80.580 118.417  0.00  0.00    -0.090 HD
ATOM     20  H   LIG d   1      -5.785  81.599 118.364  0.00  0.00    -0.090 HD
ATOM     21  H   LIG d   1      -5.377  80.734 117.034  0.00  0.00    -0.090 HD
ENDBRANCH   5  18
BRANCH   3  22
ATOM     22  C   LIG d   1      -9.947  79.587 119.149  0.00  0.00     0.382 C 
ATOM     23  O   LIG d   1     -10.954  78.844 119.055  0.00  0.00    -0.241 OA
ATOM     24  O   LIG d   1     -10.058  80.706 119.683  0.00  0.00    -0.241 OA
ENDBRANCH   3  22
TORSDOF 7
ENDMDL
