MODEL 1
REMARK VINA RESULT:      -5.6      0.000      0.000
REMARK  7 active torsions:
REMARK  status: ('A' for Active; 'I' for Inactive)
REMARK    1  A    between atoms: C_2  and  C_3 
REMARK    2  A    between atoms: C_3  and  O_6 
REMARK    3  A    between atoms: C_3  and  C_4 
REMARK    4  A    between atoms: C_7  and  O_6 
REMARK    5  A    between atoms: C_9  and  C_10 
REMARK    6  A    between atoms: N_15  and  C_14 
REMARK    7  A    between atoms: N_20  and  C_19 
REMARK       I    between atoms: C_22  and  N_20 
ROOT
ATOM      1  C   LIG d   1      -5.115  91.680 117.243  0.00  0.00     0.161 C 
ATOM      2  C   LIG d   1      -5.834  90.998 116.248  0.00  0.00     0.016 C 
ATOM      3  C   LIG d   1      -6.889  91.583 115.510  0.00  0.00     0.038 C 
ATOM      4  C   LIG d   1      -7.198  92.947 115.614  0.00  0.00     0.028 C 
ATOM      5  C   LIG d   1      -6.835  93.550 116.967  0.00  0.00    -0.047 C 
ATOM      6  C   LIG d   1      -5.364  93.202 117.292  0.00  0.00     0.091 C 
ENDROOT
BRANCH   1   7
ATOM      7  O   LIG d   1      -3.707  91.407 117.102  0.00  0.00    -0.368 OA
BRANCH   7   8
ATOM      8  C   LIG d   1      -3.068  90.757 118.228  0.00  0.00     0.119 C 
BRANCH   8   9
ATOM      9  C   LIG d   1      -1.594  91.205 118.247  0.00  0.00     0.028 C 
ATOM     10  C   LIG d   1      -0.725  90.407 117.261  0.00  0.00     0.006 C 
ENDBRANCH   8   9
BRANCH   8  11
ATOM     11  C   LIG d   1      -3.027  89.237 118.043  0.00  0.00     0.028 C 
ATOM     12  C   LIG d   1      -3.195  88.471 119.365  0.00  0.00     0.006 C 
ENDBRANCH   8  11
ENDBRANCH   7   8
ENDBRANCH   1   7
BRANCH   6  13
ATOM     13  N   LIG d   1      -4.953  93.682 118.637  0.00  0.00    -0.311 N 
ATOM     14  C   LIG d   1      -3.814  94.334 118.867  0.00  0.00     0.210 C 
ATOM     15  C   LIG d   1      -3.574  94.722 120.329  0.00  0.00     0.109 C 
ATOM     16  O   LIG d   1      -2.995  94.656 117.992  0.00  0.00    -0.276 OA
ATOM     17  H   LIG d   1      -5.573  93.491 119.400  0.00  0.00     0.149 HD
ENDBRANCH   6  13
BRANCH   5  18
ATOM     18  N   LIG d   1      -7.082  95.002 116.889  0.00  0.00     0.381 N 
ATOM     19  H   LIG d   1      -7.373  95.344 117.783  0.00  0.00    -0.090 HD
ATOM     20  H   LIG d   1      -7.822  95.171 116.231  0.00  0.00    -0.090 HD
ATOM     21  H   LIG d   1      -6.255  95.474 116.598  0.00  0.00    -0.090 HD
ENDBRANCH   5  18
BRANCH   3  22
ATOM     22  C   LIG d   1      -7.674  90.791 114.686  0.00  0.00     0.382 C 
ATOM     23  O   LIG d   1      -8.379  89.878 115.180  0.00  0.00    -0.241 OA
ATOM     24  O   LIG d   1      -7.651  90.947 113.451  0.00  0.00    -0.241 OA
ENDBRANCH   3  22
TORSDOF 7
ENDMDL
MODEL 2
REMARK VINA RESULT:      -5.6     12.777     15.134
REMARK  7 active torsions:
REMARK  status: ('A' for Active; 'I' for Inactive)
REMARK    1  A    between atoms: C_2  and  C_3 
REMARK    2  A    between atoms: C_3  and  O_6 
REMARK    3  A    between atoms: C_3  and  C_4 
REMARK    4  A    between atoms: C_7  and  O_6 
REMARK    5  A    between atoms: C_9  and  C_10 
REMARK    6  A    between atoms: N_15  and  C_14 
REMARK    7  A    between atoms: N_20  and  C_19 
REMARK       I    between atoms: C_22  and  N_20 
ROOT
ATOM      1  C   LIG d   1      -6.813  77.184 117.387  0.00  0.00     0.161 C 
ATOM      2  C   LIG d   1      -8.022  77.753 117.818  0.00  0.00     0.016 C 
ATOM      3  C   LIG d   1      -8.164  79.119 118.156  0.00  0.00     0.038 C 
ATOM      4  C   LIG d   1      -7.134  80.046 117.938  0.00  0.00     0.028 C 
ATOM      5  C   LIG d   1      -5.742  79.427 117.981  0.00  0.00    -0.047 C 
ATOM      6  C   LIG d   1      -5.707  78.203 117.038  0.00  0.00     0.091 C 
ENDROOT
BRANCH   1   7
ATOM      7  O   LIG d   1      -7.056  76.306 116.270  0.00  0.00    -0.368 OA
BRANCH   7   8
ATOM      8  C   LIG d   1      -6.788  74.900 116.495  0.00  0.00     0.119 C 
BRANCH   8   9
ATOM      9  C   LIG d   1      -6.216  74.323 115.186  0.00  0.00     0.028 C 
ATOM     10  C   LIG d   1      -4.704  74.572 115.046  0.00  0.00     0.006 C 
ENDBRANCH   8   9
BRANCH   8  11
ATOM     11  C   LIG d   1      -8.082  74.120 116.750  0.00  0.00     0.028 C 
ATOM     12  C   LIG d   1      -8.021  72.677 116.224  0.00  0.00     0.006 C 
ENDBRANCH   8  11
ENDBRANCH   7   8
ENDBRANCH   1   7
BRANCH   6  13
ATOM     13  N   LIG d   1      -4.406  77.488 117.084  0.00  0.00    -0.311 N 
ATOM     14  C   LIG d   1      -3.386  77.768 116.274  0.00  0.00     0.210 C 
ATOM     15  C   LIG d   1      -2.142  76.897 116.475  0.00  0.00     0.109 C 
ATOM     16  O   LIG d   1      -3.382  78.676 115.429  0.00  0.00    -0.276 OA
ATOM     17  H   LIG d   1      -4.311  76.756 117.761  0.00  0.00     0.149 HD
ENDBRANCH   6  13
BRANCH   5  18
ATOM     18  N   LIG d   1      -4.775  80.475 117.603  0.00  0.00     0.381 N 
ATOM     19  H   LIG d   1      -4.935  80.757 116.656  0.00  0.00    -0.090 HD
ATOM     20  H   LIG d   1      -3.846  80.100 117.668  0.00  0.00    -0.090 HD
ATOM     21  H   LIG d   1      -4.868  81.259 118.211  0.00  0.00    -0.090 HD
ENDBRANCH   5  18
BRANCH   3  22
ATOM     22  C   LIG d   1      -9.333  79.561 118.754  0.00  0.00     0.382 C 
ATOM     23  O   LIG d   1      -9.279  80.304 119.764  0.00  0.00    -0.241 OA
ATOM     24  O   LIG d   1     -10.442  79.191 118.325  0.00  0.00    -0.241 OA
ENDBRANCH   3  22
TORSDOF 7
ENDMDL
MODEL 3
REMARK VINA RESULT:      -5.5      2.619      4.965
REMARK  7 active torsions:
REMARK  status: ('A' for Active; 'I' for Inactive)
REMARK    1  A    between atoms: C_2  and  C_3 
REMARK    2  A    between atoms: C_3  and  O_6 
REMARK    3  A    between atoms: C_3  and  C_4 
REMARK    4  A    between atoms: C_7  and  O_6 
REMARK    5  A    between atoms: C_9  and  C_10 
REMARK    6  A    between atoms: N_15  and  C_14 
REMARK    7  A    between atoms: N_20  and  C_19 
REMARK       I    between atoms: C_22  and  N_20 
ROOT
ATOM      1  C   LIG d   1      -6.963  93.798 117.708  0.00  0.00     0.161 C 
ATOM      2  C   LIG d   1      -7.538  92.641 117.158  0.00  0.00     0.016 C 
ATOM      3  C   LIG d   1      -6.787  91.510 116.762  0.00  0.00     0.038 C 
ATOM      4  C   LIG d   1      -5.415  91.401 117.033  0.00  0.00     0.028 C 
ATOM      5  C   LIG d   1      -4.707  92.748 117.128  0.00  0.00    -0.047 C 
ATOM      6  C   LIG d   1      -5.481  93.654 118.113  0.00  0.00     0.091 C 
ENDROOT
BRANCH   1   7
ATOM      7  O   LIG d   1      -7.747  94.248 118.830  0.00  0.00    -0.368 OA
BRANCH   7   8
ATOM      8  C   LIG d   1      -8.870  95.110 118.519  0.00  0.00     0.119 C 
BRANCH   8   9
ATOM      9  C   LIG d   1      -8.299  96.464 118.056  0.00  0.00     0.028 C 
ATOM     10  C   LIG d   1      -7.608  97.230 119.196  0.00  0.00     0.006 C 
ENDBRANCH   8   9
BRANCH   8  11
ATOM     11  C   LIG d   1      -9.694  95.424 119.771  0.00  0.00     0.028 C 
ATOM     12  C   LIG d   1     -10.374  94.180 120.364  0.00  0.00     0.006 C 
ENDBRANCH   8  11
ENDBRANCH   7   8
ENDBRANCH   1   7
BRANCH   6  13
ATOM     13  N   LIG d   1      -4.903  95.020 118.201  0.00  0.00    -0.311 N 
ATOM     14  C   LIG d   1      -4.015  95.383 119.124  0.00  0.00     0.210 C 
ATOM     15  C   LIG d   1      -3.563  96.844 119.048  0.00  0.00     0.109 C 
ATOM     16  O   LIG d   1      -3.534  94.624 119.979  0.00  0.00    -0.276 OA
ATOM     17  H   LIG d   1      -5.215  95.691 117.526  0.00  0.00     0.149 HD
ENDBRANCH   6  13
BRANCH   5  18
ATOM     18  N   LIG d   1      -3.316  92.493 117.549  0.00  0.00     0.381 N 
ATOM     19  H   LIG d   1      -3.265  92.459 118.547  0.00  0.00    -0.090 HD
ATOM     20  H   LIG d   1      -2.735  93.248 117.229  0.00  0.00    -0.090 HD
ATOM     21  H   LIG d   1      -2.996  91.631 117.163  0.00  0.00    -0.090 HD
ENDBRANCH   5  18
BRANCH   3  22
ATOM     22  C   LIG d   1      -7.402  90.490 116.053  0.00  0.00     0.382 C 
ATOM     23  O   LIG d   1      -8.450  89.962 116.496  0.00  0.00    -0.241 OA
ATOM     24  O   LIG d   1      -6.897  90.061 114.998  0.00  0.00    -0.241 OA
ENDBRANCH   3  22
TORSDOF 7
ENDMDL
MODEL 4
REMARK VINA RESULT:      -5.5     15.217     16.903
REMARK  7 active torsions:
REMARK  status: ('A' for Active; 'I' for Inactive)
REMARK    1  A    between atoms: C_2  and  C_3 
REMARK    2  A    between atoms: C_3  and  O_6 
REMARK    3  A    between atoms: C_3  and  C_4 
REMARK    4  A    between atoms: C_7  and  O_6 
REMARK    5  A    between atoms: C_9  and  C_10 
REMARK    6  A    between atoms: N_15  and  C_14 
REMARK    7  A    between atoms: N_20  and  C_19 
REMARK       I    between atoms: C_22  and  N_20 
ROOT
ATOM      1  C   LIG d   1      -3.273  76.423 116.062  0.00  0.00     0.161 C 
ATOM      2  C   LIG d   1      -3.517  77.082 114.845  0.00  0.00     0.016 C 
ATOM      3  C   LIG d   1      -2.532  77.263 113.847  0.00  0.00     0.038 C 
ATOM      4  C   LIG d   1      -1.269  76.661 113.935  0.00  0.00     0.028 C 
ATOM      5  C   LIG d   1      -0.814  76.413 115.369  0.00  0.00    -0.047 C 
ATOM      6  C   LIG d   1      -1.933  75.662 116.128  0.00  0.00     0.091 C 
ENDROOT
BRANCH   1   7
ATOM      7  O   LIG d   1      -4.368  75.536 116.365  0.00  0.00    -0.368 OA
BRANCH   7   8
ATOM      8  C   LIG d   1      -5.437  75.486 115.388  0.00  0.00     0.119 C 
BRANCH   8   9
ATOM      9  C   LIG d   1      -6.753  75.804 116.125  0.00  0.00     0.028 C 
ATOM     10  C   LIG d   1      -6.760  77.218 116.729  0.00  0.00     0.006 C 
ENDBRANCH   8   9
BRANCH   8  11
ATOM     11  C   LIG d   1      -5.617  74.071 114.830  0.00  0.00     0.028 C 
ATOM     12  C   LIG d   1      -6.672  73.258 115.596  0.00  0.00     0.006 C 
ENDBRANCH   8  11
ENDBRANCH   7   8
ENDBRANCH   1   7
BRANCH   6  13
ATOM     13  N   LIG d   1      -1.604  75.454 117.562  0.00  0.00    -0.311 N 
ATOM     14  C   LIG d   1      -1.077  74.327 118.037  0.00  0.00     0.210 C 
ATOM     15  C   LIG d   1      -0.834  74.313 119.549  0.00  0.00     0.109 C 
ATOM     16  O   LIG d   1      -0.758  73.348 117.345  0.00  0.00    -0.276 OA
ATOM     17  H   LIG d   1      -1.801  76.209 118.189  0.00  0.00     0.149 HD
ENDBRANCH   6  13
BRANCH   5  18
ATOM     18  N   LIG d   1       0.452  75.658 115.311  0.00  0.00     0.381 N 
ATOM     19  H   LIG d   1       0.604  75.323 114.381  0.00  0.00    -0.090 HD
ATOM     20  H   LIG d   1       0.386  74.865 115.925  0.00  0.00    -0.090 HD
ATOM     21  H   LIG d   1       1.210  76.241 115.590  0.00  0.00    -0.090 HD
ENDBRANCH   5  18
BRANCH   3  22
ATOM     22  C   LIG d   1      -2.795  78.089 112.764  0.00  0.00     0.382 C 
ATOM     23  O   LIG d   1      -3.875  77.974 112.136  0.00  0.00    -0.241 OA
ATOM     24  O   LIG d   1      -1.947  78.916 112.380  0.00  0.00    -0.241 OA
ENDBRANCH   3  22
TORSDOF 7
ENDMDL
MODEL 5
REMARK VINA RESULT:      -5.5      1.497      2.196
REMARK  7 active torsions:
REMARK  status: ('A' for Active; 'I' for Inactive)
REMARK    1  A    between atoms: C_2  and  C_3 
REMARK    2  A    between atoms: C_3  and  O_6 
REMARK    3  A    between atoms: C_3  and  C_4 
REMARK    4  A    between atoms: C_7  and  O_6 
REMARK    5  A    between atoms: C_9  and  C_10 
REMARK    6  A    between atoms: N_15  and  C_14 
REMARK    7  A    between atoms: N_20  and  C_19 
REMARK       I    between atoms: C_22  and  N_20 
ROOT
ATOM      1  C   LIG d   1      -6.020  91.912 118.311  0.00  0.00     0.161 C 
ATOM      2  C   LIG d   1      -6.320  91.197 117.139  0.00  0.00     0.016 C 
ATOM      3  C   LIG d   1      -6.908  91.788 115.997  0.00  0.00     0.038 C 
ATOM      4  C   LIG d   1      -7.098  93.174 115.893  0.00  0.00     0.028 C 
ATOM      5  C   LIG d   1      -7.277  93.863 117.242  0.00  0.00    -0.047 C 
ATOM      6  C   LIG d   1      -6.118  93.446 118.176  0.00  0.00     0.091 C 
ENDROOT
BRANCH   1   7
ATOM      7  O   LIG d   1      -4.716  91.533 118.793  0.00  0.00    -0.368 OA
BRANCH   7   8
ATOM      8  C   LIG d   1      -3.609  91.767 117.888  0.00  0.00     0.119 C 
BRANCH   8   9
ATOM      9  C   LIG d   1      -2.932  90.408 117.624  0.00  0.00     0.028 C 
ATOM     10  C   LIG d   1      -3.247  89.373 118.717  0.00  0.00     0.006 C 
ENDBRANCH   8   9
BRANCH   8  11
ATOM     11  C   LIG d   1      -2.530  92.638 118.539  0.00  0.00     0.028 C 
ATOM     12  C   LIG d   1      -2.435  94.037 117.912  0.00  0.00     0.006 C 
ENDBRANCH   8  11
ENDBRANCH   7   8
ENDBRANCH   1   7
BRANCH   6  13
ATOM     13  N   LIG d   1      -6.261  94.009 119.544  0.00  0.00    -0.311 N 
ATOM     14  C   LIG d   1      -5.728  95.171 119.917  0.00  0.00     0.210 C 
ATOM     15  C   LIG d   1      -5.979  95.557 121.378  0.00  0.00     0.109 C 
ATOM     16  O   LIG d   1      -5.099  95.934 119.169  0.00  0.00    -0.276 OA
ATOM     17  H   LIG d   1      -6.783  93.470 120.206  0.00  0.00     0.149 HD
ENDBRANCH   6  13
BRANCH   5  18
ATOM     18  N   LIG d   1      -7.326  95.317 116.996  0.00  0.00     0.381 N 
ATOM     19  H   LIG d   1      -7.794  95.498 116.131  0.00  0.00    -0.090 HD
ATOM     20  H   LIG d   1      -6.387  95.667 116.927  0.00  0.00    -0.090 HD
ATOM     21  H   LIG d   1      -7.804  95.772 117.742  0.00  0.00    -0.090 HD
ENDBRANCH   5  18
BRANCH   3  22
ATOM     22  C   LIG d   1      -7.349  90.983 114.957  0.00  0.00     0.382 C 
ATOM     23  O   LIG d   1      -6.732  89.928 114.676  0.00  0.00    -0.241 OA
ATOM     24  O   LIG d   1      -8.331  91.322 114.269  0.00  0.00    -0.241 OA
ENDBRANCH   3  22
TORSDOF 7
ENDMDL
MODEL 6
REMARK VINA RESULT:      -5.3     12.536     14.941
REMARK  7 active torsions:
REMARK  status: ('A' for Active; 'I' for Inactive)
REMARK    1  A    between atoms: C_2  and  C_3 
REMARK    2  A    between atoms: C_3  and  O_6 
REMARK    3  A    between atoms: C_3  and  C_4 
REMARK    4  A    between atoms: C_7  and  O_6 
REMARK    5  A    between atoms: C_9  and  C_10 
REMARK    6  A    between atoms: N_15  and  C_14 
REMARK    7  A    between atoms: N_20  and  C_19 
REMARK       I    between atoms: C_22  and  N_20 
ROOT
ATOM      1  C   LIG d   1      -2.268  78.286 115.037  0.00  0.00     0.161 C 
ATOM      2  C   LIG d   1      -2.667  79.250 114.097  0.00  0.00     0.016 C 
ATOM      3  C   LIG d   1      -1.829  80.300 113.655  0.00  0.00     0.038 C 
ATOM      4  C   LIG d   1      -0.474  80.367 114.013  0.00  0.00     0.028 C 
ATOM      5  C   LIG d   1      -0.167  79.706 115.353  0.00  0.00    -0.047 C 
ATOM      6  C   LIG d   1      -0.758  78.277 115.354  0.00  0.00     0.091 C 
ENDROOT
BRANCH   1   7
ATOM      7  O   LIG d   1      -2.696  76.978 114.608  0.00  0.00    -0.368 OA
BRANCH   7   8
ATOM      8  C   LIG d   1      -4.003  76.553 115.068  0.00  0.00     0.119 C 
BRANCH   8   9
ATOM      9  C   LIG d   1      -4.103  76.903 116.565  0.00  0.00     0.028 C 
ATOM     10  C   LIG d   1      -5.379  77.694 116.898  0.00  0.00     0.006 C 
ENDBRANCH   8   9
BRANCH   8  11
ATOM     11  C   LIG d   1      -4.150  75.030 114.997  0.00  0.00     0.028 C 
ATOM     12  C   LIG d   1      -5.615  74.577 114.892  0.00  0.00     0.006 C 
ENDBRANCH   8  11
ENDBRANCH   7   8
ENDBRANCH   1   7
BRANCH   6  13
ATOM     13  N   LIG d   1      -0.576  77.590 116.659  0.00  0.00    -0.311 N 
ATOM     14  C   LIG d   1      -0.006  76.393 116.785  0.00  0.00     0.210 C 
ATOM     15  C   LIG d   1       0.065  75.857 118.218  0.00  0.00     0.109 C 
ATOM     16  O   LIG d   1       0.478  75.739 115.849  0.00  0.00    -0.276 OA
ATOM     17  H   LIG d   1      -0.911  78.065 117.475  0.00  0.00     0.149 HD
ENDBRANCH   6  13
BRANCH   5  18
ATOM     18  N   LIG d   1       1.296  79.727 115.535  0.00  0.00     0.381 N 
ATOM     19  H   LIG d   1       1.633  78.796 115.682  0.00  0.00    -0.090 HD
ATOM     20  H   LIG d   1       1.514  80.273 116.350  0.00  0.00    -0.090 HD
ATOM     21  H   LIG d   1       1.734  80.124 114.733  0.00  0.00    -0.090 HD
ENDBRANCH   5  18
BRANCH   3  22
ATOM     22  C   LIG d   1      -2.356  81.319 112.877  0.00  0.00     0.382 C 
ATOM     23  O   LIG d   1      -3.576  81.319 112.587  0.00  0.00    -0.241 OA
ATOM     24  O   LIG d   1      -1.618  82.215 112.425  0.00  0.00    -0.241 OA
ENDBRANCH   3  22
TORSDOF 7
ENDMDL
MODEL 7
REMARK VINA RESULT:      -5.3     26.245     28.436
REMARK  7 active torsions:
REMARK  status: ('A' for Active; 'I' for Inactive)
REMARK    1  A    between atoms: C_2  and  C_3 
REMARK    2  A    between atoms: C_3  and  O_6 
REMARK    3  A    between atoms: C_3  and  C_4 
REMARK    4  A    between atoms: C_7  and  O_6 
REMARK    5  A    between atoms: C_9  and  C_10 
REMARK    6  A    between atoms: N_15  and  C_14 
REMARK    7  A    between atoms: N_20  and  C_19 
REMARK       I    between atoms: C_22  and  N_20 
ROOT
ATOM      1  C   LIG d   1     -16.266  66.221 114.723  0.00  0.00     0.161 C 
ATOM      2  C   LIG d   1     -15.502  66.970 113.812  0.00  0.00     0.016 C 
ATOM      3  C   LIG d   1     -14.906  68.211 114.133  0.00  0.00     0.038 C 
ATOM      4  C   LIG d   1     -14.907  68.719 115.440  0.00  0.00     0.028 C 
ATOM      5  C   LIG d   1     -16.094  68.246 116.273  0.00  0.00    -0.047 C 
ATOM      6  C   LIG d   1     -16.185  66.705 116.186  0.00  0.00     0.091 C 
ENDROOT
BRANCH   1   7
ATOM      7  O   LIG d   1     -15.905  64.829 114.636  0.00  0.00    -0.368 OA
BRANCH   7   8
ATOM      8  C   LIG d   1     -16.750  64.002 113.798  0.00  0.00     0.119 C 
BRANCH   8   9
ATOM      9  C   LIG d   1     -18.085  64.748 113.609  0.00  0.00     0.028 C 
ATOM     10  C   LIG d   1     -18.775  64.391 112.282  0.00  0.00     0.006 C 
ENDBRANCH   8   9
BRANCH   8  11
ATOM     11  C   LIG d   1     -17.115  62.690 114.498  0.00  0.00     0.028 C 
ATOM     12  C   LIG d   1     -18.193  62.869 115.578  0.00  0.00     0.006 C 
ENDBRANCH   8  11
ENDBRANCH   7   8
ENDBRANCH   1   7
BRANCH   6  13
ATOM     13  N   LIG d   1     -17.370  66.166 116.904  0.00  0.00    -0.311 N 
ATOM     14  C   LIG d   1     -17.329  65.731 118.162  0.00  0.00     0.210 C 
ATOM     15  C   LIG d   1     -18.658  65.197 118.705  0.00  0.00     0.109 C 
ATOM     16  O   LIG d   1     -16.326  65.767 118.891  0.00  0.00    -0.276 OA
ATOM     17  H   LIG d   1     -18.233  66.130 116.398  0.00  0.00     0.149 HD
ENDBRANCH   6  13
BRANCH   5  18
ATOM     18  N   LIG d   1     -15.897  68.737 117.649  0.00  0.00     0.381 N 
ATOM     19  H   LIG d   1     -15.297  68.112 118.150  0.00  0.00    -0.090 HD
ATOM     20  H   LIG d   1     -16.786  68.762 118.116  0.00  0.00    -0.090 HD
ATOM     21  H   LIG d   1     -15.497  69.650 117.632  0.00  0.00    -0.090 HD
ENDBRANCH   5  18
BRANCH   3  22
ATOM     22  C   LIG d   1     -14.334  68.978 113.129  0.00  0.00     0.382 C 
ATOM     23  O   LIG d   1     -14.695  68.822 111.938  0.00  0.00    -0.241 OA
ATOM     24  O   LIG d   1     -13.429  69.792 113.394  0.00  0.00    -0.241 OA
ENDBRANCH   3  22
TORSDOF 7
ENDMDL
MODEL 8
REMARK VINA RESULT:      -5.3     14.175     16.756
REMARK  7 active torsions:
REMARK  status: ('A' for Active; 'I' for Inactive)
REMARK    1  A    between atoms: C_2  and  C_3 
REMARK    2  A    between atoms: C_3  and  O_6 
REMARK    3  A    between atoms: C_3  and  C_4 
REMARK    4  A    between atoms: C_7  and  O_6 
REMARK    5  A    between atoms: C_9  and  C_10 
REMARK    6  A    between atoms: N_15  and  C_14 
REMARK    7  A    between atoms: N_20  and  C_19 
REMARK       I    between atoms: C_22  and  N_20 
ROOT
ATOM      1  C   LIG d   1      -2.778  75.968 115.246  0.00  0.00     0.161 C 
ATOM      2  C   LIG d   1      -2.626  75.148 116.376  0.00  0.00     0.016 C 
ATOM      3  C   LIG d   1      -1.588  75.310 117.322  0.00  0.00     0.038 C 
ATOM      4  C   LIG d   1      -0.712  76.405 117.281  0.00  0.00     0.028 C 
ATOM      5  C   LIG d   1      -0.514  76.970 115.878  0.00  0.00    -0.047 C 
ATOM      6  C   LIG d   1      -1.898  77.235 115.244  0.00  0.00     0.091 C 
ENDROOT
BRANCH   1   7
ATOM      7  O   LIG d   1      -4.165  76.320 115.080  0.00  0.00    -0.368 OA
BRANCH   7   8
ATOM      8  C   LIG d   1      -5.125  75.459 115.741  0.00  0.00     0.119 C 
BRANCH   8   9
ATOM      9  C   LIG d   1      -5.472  74.318 114.766  0.00  0.00     0.028 C 
ATOM     10  C   LIG d   1      -6.447  73.298 115.378  0.00  0.00     0.006 C 
ENDBRANCH   8   9
BRANCH   8  11
ATOM     11  C   LIG d   1      -6.447  76.190 115.996  0.00  0.00     0.028 C 
ATOM     12  C   LIG d   1      -6.279  77.431 116.887  0.00  0.00     0.006 C 
ENDBRANCH   8  11
ENDBRANCH   7   8
ENDBRANCH   1   7
BRANCH   6  13
ATOM     13  N   LIG d   1      -1.796  77.710 113.840  0.00  0.00    -0.311 N 
ATOM     14  C   LIG d   1      -2.288  78.876 113.422  0.00  0.00     0.210 C 
ATOM     15  C   LIG d   1      -2.092  79.163 111.930  0.00  0.00     0.109 C 
ATOM     16  O   LIG d   1      -2.838  79.714 114.153  0.00  0.00    -0.276 OA
ATOM     17  H   LIG d   1      -1.337  77.107 113.186  0.00  0.00     0.149 HD
ENDBRANCH   6  13
BRANCH   5  18
ATOM     18  N   LIG d   1       0.310  78.187 116.001  0.00  0.00     0.381 N 
ATOM     19  H   LIG d   1      -0.110  78.815 116.657  0.00  0.00    -0.090 HD
ATOM     20  H   LIG d   1       0.348  78.645 115.107  0.00  0.00    -0.090 HD
ATOM     21  H   LIG d   1       1.230  77.949 116.299  0.00  0.00    -0.090 HD
ENDBRANCH   5  18
BRANCH   3  22
ATOM     22  C   LIG d   1      -1.393  74.347 118.300  0.00  0.00     0.382 C 
ATOM     23  O   LIG d   1      -0.768  73.293 118.027  0.00  0.00    -0.241 OA
ATOM     24  O   LIG d   1      -1.871  74.498 119.440  0.00  0.00    -0.241 OA
ENDBRANCH   3  22
TORSDOF 7
ENDMDL
MODEL 9
REMARK VINA RESULT:      -5.1      9.372     11.289
REMARK  7 active torsions:
REMARK  status: ('A' for Active; 'I' for Inactive)
REMARK    1  A    between atoms: C_2  and  C_3 
REMARK    2  A    between atoms: C_3  and  O_6 
REMARK    3  A    between atoms: C_3  and  C_4 
REMARK    4  A    between atoms: C_7  and  O_6 
REMARK    5  A    between atoms: C_9  and  C_10 
REMARK    6  A    between atoms: N_15  and  C_14 
REMARK    7  A    between atoms: N_20  and  C_19 
REMARK       I    between atoms: C_22  and  N_20 
ROOT
ATOM      1  C   LIG d   1       2.256  86.715 114.822  0.00  0.00     0.161 C 
ATOM      2  C   LIG d   1       2.986  87.427 113.855  0.00  0.00     0.016 C 
ATOM      3  C   LIG d   1       4.340  87.799 114.021  0.00  0.00     0.038 C 
ATOM      4  C   LIG d   1       5.104  87.350 115.109  0.00  0.00     0.028 C 
ATOM      5  C   LIG d   1       4.273  87.056 116.353  0.00  0.00    -0.047 C 
ATOM      6  C   LIG d   1       3.104  86.121 115.966  0.00  0.00     0.091 C 
ENDROOT
BRANCH   1   7
ATOM      7  O   LIG d   1       1.479  85.682 114.184  0.00  0.00    -0.368 OA
BRANCH   7   8
ATOM      8  C   LIG d   1       1.935  85.257 112.876  0.00  0.00     0.119 C 
BRANCH   8   9
ATOM      9  C   LIG d   1       0.686  84.973 112.020  0.00  0.00     0.028 C 
ATOM     10  C   LIG d   1      -0.482  85.916 112.356  0.00  0.00     0.006 C 
ENDBRANCH   8   9
BRANCH   8  11
ATOM     11  C   LIG d   1       2.686  83.924 112.953  0.00  0.00     0.028 C 
ATOM     12  C   LIG d   1       4.176  84.058 112.602  0.00  0.00     0.006 C 
ENDBRANCH   8  11
ENDBRANCH   7   8
ENDBRANCH   1   7
BRANCH   6  13
ATOM     13  N   LIG d   1       2.192  85.851 117.108  0.00  0.00    -0.311 N 
ATOM     14  C   LIG d   1       1.705  84.643 117.387  0.00  0.00     0.210 C 
ATOM     15  C   LIG d   1       0.767  84.588 118.597  0.00  0.00     0.109 C 
ATOM     16  O   LIG d   1       1.987  83.606 116.768  0.00  0.00    -0.276 OA
ATOM     17  H   LIG d   1       1.936  86.630 117.681  0.00  0.00     0.149 HD
ENDBRANCH   6  13
BRANCH   5  18
ATOM     18  N   LIG d   1       5.173  86.467 117.362  0.00  0.00     0.381 N 
ATOM     19  H   LIG d   1       5.305  87.112 118.116  0.00  0.00    -0.090 HD
ATOM     20  H   LIG d   1       6.067  86.291 116.937  0.00  0.00    -0.090 HD
ATOM     21  H   LIG d   1       4.788  85.615 117.708  0.00  0.00    -0.090 HD
ENDBRANCH   5  18
BRANCH   3  22
ATOM     22  C   LIG d   1       4.932  88.662 113.112  0.00  0.00     0.382 C 
ATOM     23  O   LIG d   1       6.104  88.450 112.718  0.00  0.00    -0.241 OA
ATOM     24  O   LIG d   1       4.325  89.675 112.715  0.00  0.00    -0.241 OA
ENDBRANCH   3  22
TORSDOF 7
ENDMDL
