MODEL 1
REMARK VINA RESULT:      -5.8      0.000      0.000
REMARK  7 active torsions:
REMARK  status: ('A' for Active; 'I' for Inactive)
REMARK    1  A    between atoms: C_2  and  C_3 
REMARK    2  A    between atoms: C_3  and  O_6 
REMARK    3  A    between atoms: C_3  and  C_4 
REMARK    4  A    between atoms: C_7  and  O_6 
REMARK    5  A    between atoms: C_9  and  C_10 
REMARK    6  A    between atoms: N_15  and  C_14 
REMARK    7  A    between atoms: N_20  and  C_19 
REMARK       I    between atoms: C_22  and  N_20 
ROOT
ATOM      1  C   LIG d   1       2.066  85.227 110.985  0.00  0.00     0.161 C 
ATOM      2  C   LIG d   1       0.990  86.027 111.405  0.00  0.00     0.016 C 
ATOM      3  C   LIG d   1      -0.326  85.537 111.570  0.00  0.00     0.038 C 
ATOM      4  C   LIG d   1      -0.626  84.170 111.470  0.00  0.00     0.028 C 
ATOM      5  C   LIG d   1       0.326  83.406 110.556  0.00  0.00    -0.047 C 
ATOM      6  C   LIG d   1       1.781  83.711 110.980  0.00  0.00     0.091 C 
ENDROOT
BRANCH   1   7
ATOM      7  O   LIG d   1       3.230  85.515 111.785  0.00  0.00    -0.368 OA
BRANCH   7   8
ATOM      8  C   LIG d   1       3.009  86.335 112.959  0.00  0.00     0.119 C 
BRANCH   8   9
ATOM      9  C   LIG d   1       4.141  87.380 113.013  0.00  0.00     0.028 C 
ATOM     10  C   LIG d   1       3.717  88.667 113.740  0.00  0.00     0.006 C 
ENDBRANCH   8   9
BRANCH   8  11
ATOM     11  C   LIG d   1       3.152  85.516 114.246  0.00  0.00     0.028 C 
ATOM     12  C   LIG d   1       2.049  85.822 115.272  0.00  0.00     0.006 C 
ENDBRANCH   8  11
ENDBRANCH   7   8
ENDBRANCH   1   7
BRANCH   6  13
ATOM     13  N   LIG d   1       2.778  83.069 110.084  0.00  0.00    -0.311 N 
ATOM     14  C   LIG d   1       3.361  81.902 110.352  0.00  0.00     0.210 C 
ATOM     15  C   LIG d   1       4.374  81.429 109.305  0.00  0.00     0.109 C 
ATOM     16  O   LIG d   1       3.111  81.198 111.342  0.00  0.00    -0.276 OA
ATOM     17  H   LIG d   1       3.016  83.557 109.242  0.00  0.00     0.149 HD
ENDBRANCH   6  13
BRANCH   5  18
ATOM     18  N   LIG d   1      -0.017  81.975 110.653  0.00  0.00     0.381 N 
ATOM     19  H   LIG d   1      -0.887  81.803 110.190  0.00  0.00    -0.090 HD
ATOM     20  H   LIG d   1      -0.122  81.730 111.622  0.00  0.00    -0.090 HD
ATOM     21  H   LIG d   1       0.702  81.423 110.240  0.00  0.00    -0.090 HD
ENDBRANCH   5  18
BRANCH   3  22
ATOM     22  C   LIG d   1      -1.366  86.425 111.798  0.00  0.00     0.382 C 
ATOM     23  O   LIG d   1      -1.913  86.474 112.926  0.00  0.00    -0.241 OA
ATOM     24  O   LIG d   1      -1.795  87.146 110.877  0.00  0.00    -0.241 OA
ENDBRANCH   3  22
TORSDOF 7
ENDMDL
MODEL 2
REMARK VINA RESULT:      -5.6      2.507      4.556
REMARK  7 active torsions:
REMARK  status: ('A' for Active; 'I' for Inactive)
REMARK    1  A    between atoms: C_2  and  C_3 
REMARK    2  A    between atoms: C_3  and  O_6 
REMARK    3  A    between atoms: C_3  and  C_4 
REMARK    4  A    between atoms: C_7  and  O_6 
REMARK    5  A    between atoms: C_9  and  C_10 
REMARK    6  A    between atoms: N_15  and  C_14 
REMARK    7  A    between atoms: N_20  and  C_19 
REMARK       I    between atoms: C_22  and  N_20 
ROOT
ATOM      1  C   LIG d   1       0.849  83.334 112.356  0.00  0.00     0.161 C 
ATOM      2  C   LIG d   1       0.182  84.093 111.381  0.00  0.00     0.016 C 
ATOM      3  C   LIG d   1      -0.096  85.472 111.523  0.00  0.00     0.038 C 
ATOM      4  C   LIG d   1       0.412  86.224 112.593  0.00  0.00     0.028 C 
ATOM      5  C   LIG d   1       0.659  85.398 113.851  0.00  0.00    -0.047 C 
ATOM      6  C   LIG d   1       1.509  84.161 113.480  0.00  0.00     0.091 C 
ENDROOT
BRANCH   1   7
ATOM      7  O   LIG d   1       1.823  82.477 111.727  0.00  0.00    -0.368 OA
BRANCH   7   8
ATOM      8  C   LIG d   1       2.339  82.929 110.451  0.00  0.00     0.119 C 
BRANCH   8   9
ATOM      9  C   LIG d   1       2.450  81.696 109.534  0.00  0.00     0.028 C 
ATOM     10  C   LIG d   1       3.706  80.858 109.825  0.00  0.00     0.006 C 
ENDBRANCH   8   9
BRANCH   8  11
ATOM     11  C   LIG d   1       3.768  83.463 110.586  0.00  0.00     0.028 C 
ATOM     12  C   LIG d   1       3.818  84.985 110.793  0.00  0.00     0.006 C 
ENDBRANCH   8  11
ENDBRANCH   7   8
ENDBRANCH   1   7
BRANCH   6  13
ATOM     13  N   LIG d   1       1.725  83.255 114.638  0.00  0.00    -0.311 N 
ATOM     14  C   LIG d   1       2.843  83.245 115.362  0.00  0.00     0.210 C 
ATOM     15  C   LIG d   1       2.868  82.218 116.498  0.00  0.00     0.109 C 
ATOM     16  O   LIG d   1       3.804  84.010 115.190  0.00  0.00    -0.276 OA
ATOM     17  H   LIG d   1       0.984  82.621 114.866  0.00  0.00     0.149 HD
ENDBRANCH   6  13
BRANCH   5  18
ATOM     18  N   LIG d   1       1.315  86.275 114.838  0.00  0.00     0.381 N 
ATOM     19  H   LIG d   1       1.500  85.762 115.677  0.00  0.00    -0.090 HD
ATOM     20  H   LIG d   1       0.695  87.034 115.062  0.00  0.00    -0.090 HD
ATOM     21  H   LIG d   1       2.167  86.632 114.464  0.00  0.00    -0.090 HD
ENDBRANCH   5  18
BRANCH   3  22
ATOM     22  C   LIG d   1      -0.924  86.104 110.608  0.00  0.00     0.382 C 
ATOM     23  O   LIG d   1      -0.779  85.893 109.380  0.00  0.00    -0.241 OA
ATOM     24  O   LIG d   1      -1.786  86.917 110.993  0.00  0.00    -0.241 OA
ENDBRANCH   3  22
TORSDOF 7
ENDMDL
MODEL 3
REMARK VINA RESULT:      -5.5      9.208     11.037
REMARK  7 active torsions:
REMARK  status: ('A' for Active; 'I' for Inactive)
REMARK    1  A    between atoms: C_2  and  C_3 
REMARK    2  A    between atoms: C_3  and  O_6 
REMARK    3  A    between atoms: C_3  and  C_4 
REMARK    4  A    between atoms: C_7  and  O_6 
REMARK    5  A    between atoms: C_9  and  C_10 
REMARK    6  A    between atoms: N_15  and  C_14 
REMARK    7  A    between atoms: N_20  and  C_19 
REMARK       I    between atoms: C_22  and  N_20 
ROOT
ATOM      1  C   LIG d   1      -3.055  77.484 116.588  0.00  0.00     0.161 C 
ATOM      2  C   LIG d   1      -3.303  78.409 115.560  0.00  0.00     0.016 C 
ATOM      3  C   LIG d   1      -2.581  78.433 114.344  0.00  0.00     0.038 C 
ATOM      4  C   LIG d   1      -1.657  77.431 114.010  0.00  0.00     0.028 C 
ATOM      5  C   LIG d   1      -1.014  76.771 115.225  0.00  0.00    -0.047 C 
ATOM      6  C   LIG d   1      -2.127  76.315 116.196  0.00  0.00     0.091 C 
ENDROOT
BRANCH   1   7
ATOM      7  O   LIG d   1      -4.303  76.982 117.104  0.00  0.00    -0.368 OA
BRANCH   7   8
ATOM      8  C   LIG d   1      -5.444  77.077 116.217  0.00  0.00     0.119 C 
BRANCH   8   9
ATOM      9  C   LIG d   1      -6.678  77.398 117.083  0.00  0.00     0.028 C 
ATOM     10  C   LIG d   1      -7.805  76.367 116.904  0.00  0.00     0.006 C 
ENDBRANCH   8   9
BRANCH   8  11
ATOM     11  C   LIG d   1      -5.751  75.729 115.558  0.00  0.00     0.028 C 
ATOM     12  C   LIG d   1      -5.364  75.691 114.071  0.00  0.00     0.006 C 
ENDBRANCH   8  11
ENDBRANCH   7   8
ENDBRANCH   1   7
BRANCH   6  13
ATOM     13  N   LIG d   1      -1.581  75.734 117.451  0.00  0.00    -0.311 N 
ATOM     14  C   LIG d   1      -1.333  74.435 117.610  0.00  0.00     0.210 C 
ATOM     15  C   LIG d   1      -0.792  74.045 118.989  0.00  0.00     0.109 C 
ATOM     16  O   LIG d   1      -1.479  73.574 116.729  0.00  0.00    -0.276 OA
ATOM     17  H   LIG d   1      -1.404  76.366 118.207  0.00  0.00     0.149 HD
ENDBRANCH   6  13
BRANCH   5  18
ATOM     18  N   LIG d   1      -0.179  75.657 114.738  0.00  0.00     0.381 N 
ATOM     19  H   LIG d   1      -0.117  74.948 115.440  0.00  0.00    -0.090 HD
ATOM     20  H   LIG d   1       0.747  76.001 114.553  0.00  0.00    -0.090 HD
ATOM     21  H   LIG d   1      -0.572  75.276 113.905  0.00  0.00    -0.090 HD
ENDBRANCH   5  18
BRANCH   3  22
ATOM     22  C   LIG d   1      -2.752  79.491 113.464  0.00  0.00     0.382 C 
ATOM     23  O   LIG d   1      -2.237  79.445 112.321  0.00  0.00    -0.241 OA
ATOM     24  O   LIG d   1      -3.376  80.510 113.815  0.00  0.00    -0.241 OA
ENDBRANCH   3  22
TORSDOF 7
ENDMDL
MODEL 4
REMARK VINA RESULT:      -5.5      3.002      5.173
REMARK  7 active torsions:
REMARK  status: ('A' for Active; 'I' for Inactive)
REMARK    1  A    between atoms: C_2  and  C_3 
REMARK    2  A    between atoms: C_3  and  O_6 
REMARK    3  A    between atoms: C_3  and  C_4 
REMARK    4  A    between atoms: C_7  and  O_6 
REMARK    5  A    between atoms: C_9  and  C_10 
REMARK    6  A    between atoms: N_15  and  C_14 
REMARK    7  A    between atoms: N_20  and  C_19 
REMARK       I    between atoms: C_22  and  N_20 
ROOT
ATOM      1  C   LIG d   1       0.996  85.086 113.966  0.00  0.00     0.161 C 
ATOM      2  C   LIG d   1       1.373  86.322 113.415  0.00  0.00     0.016 C 
ATOM      3  C   LIG d   1       2.617  86.942 113.675  0.00  0.00     0.038 C 
ATOM      4  C   LIG d   1       3.635  86.292 114.389  0.00  0.00     0.028 C 
ATOM      5  C   LIG d   1       3.113  85.262 115.385  0.00  0.00    -0.047 C 
ATOM      6  C   LIG d   1       2.136  84.311 114.657  0.00  0.00     0.091 C 
ENDROOT
BRANCH   1   7
ATOM      7  O   LIG d   1       0.376  84.269 112.953  0.00  0.00    -0.368 OA
BRANCH   7   8
ATOM      8  C   LIG d   1       0.707  84.594 111.581  0.00  0.00     0.119 C 
BRANCH   8   9
ATOM      9  C   LIG d   1      -0.578  84.437 110.745  0.00  0.00     0.028 C 
ATOM     10  C   LIG d   1      -0.956  85.729 110.001  0.00  0.00     0.006 C 
ENDBRANCH   8   9
BRANCH   8  11
ATOM     11  C   LIG d   1       1.699  83.586 110.993  0.00  0.00     0.028 C 
ATOM     12  C   LIG d   1       3.067  84.211 110.676  0.00  0.00     0.006 C 
ENDBRANCH   8  11
ENDBRANCH   7   8
ENDBRANCH   1   7
BRANCH   6  13
ATOM     13  N   LIG d   1       1.515  83.323 115.578  0.00  0.00    -0.311 N 
ATOM     14  C   LIG d   1       2.014  82.108 115.796  0.00  0.00     0.210 C 
ATOM     15  C   LIG d   1       1.207  81.241 116.767  0.00  0.00     0.109 C 
ATOM     16  O   LIG d   1       3.067  81.677 115.301  0.00  0.00    -0.276 OA
ATOM     17  H   LIG d   1       0.674  83.602 116.046  0.00  0.00     0.149 HD
ENDBRANCH   6  13
BRANCH   5  18
ATOM     18  N   LIG d   1       4.280  84.565 115.958  0.00  0.00     0.381 N 
ATOM     19  H   LIG d   1       4.913  84.308 115.227  0.00  0.00    -0.090 HD
ATOM     20  H   LIG d   1       3.966  83.727 116.414  0.00  0.00    -0.090 HD
ATOM     21  H   LIG d   1       4.742  85.156 116.614  0.00  0.00    -0.090 HD
ENDBRANCH   5  18
BRANCH   3  22
ATOM     22  C   LIG d   1       2.837  88.244 113.252  0.00  0.00     0.382 C 
ATOM     23  O   LIG d   1       4.009  88.657 113.077  0.00  0.00    -0.241 OA
ATOM     24  O   LIG d   1       1.881  89.025 113.086  0.00  0.00    -0.241 OA
ENDBRANCH   3  22
TORSDOF 7
ENDMDL
MODEL 5
REMARK VINA RESULT:      -5.5      2.496      5.081
REMARK  7 active torsions:
REMARK  status: ('A' for Active; 'I' for Inactive)
REMARK    1  A    between atoms: C_2  and  C_3 
REMARK    2  A    between atoms: C_3  and  O_6 
REMARK    3  A    between atoms: C_3  and  C_4 
REMARK    4  A    between atoms: C_7  and  O_6 
REMARK    5  A    between atoms: C_9  and  C_10 
REMARK    6  A    between atoms: N_15  and  C_14 
REMARK    7  A    between atoms: N_20  and  C_19 
REMARK       I    between atoms: C_22  and  N_20 
ROOT
ATOM      1  C   LIG d   1       2.393  82.920 110.914  0.00  0.00     0.161 C 
ATOM      2  C   LIG d   1       1.895  81.912 110.071  0.00  0.00     0.016 C 
ATOM      3  C   LIG d   1       1.109  80.831 110.532  0.00  0.00     0.038 C 
ATOM      4  C   LIG d   1       0.639  80.766 111.852  0.00  0.00     0.028 C 
ATOM      5  C   LIG d   1       1.534  81.492 112.851  0.00  0.00    -0.047 C 
ATOM      6  C   LIG d   1       1.798  82.926 112.337  0.00  0.00     0.091 C 
ENDROOT
BRANCH   1   7
ATOM      7  O   LIG d   1       2.217  84.208 110.291  0.00  0.00    -0.368 OA
BRANCH   7   8
ATOM      8  C   LIG d   1       1.132  85.020 110.803  0.00  0.00     0.119 C 
BRANCH   8   9
ATOM      9  C   LIG d   1      -0.041  84.905 109.810  0.00  0.00     0.028 C 
ATOM     10  C   LIG d   1      -1.095  86.005 110.018  0.00  0.00     0.006 C 
ENDBRANCH   8   9
BRANCH   8  11
ATOM     11  C   LIG d   1       1.507  86.505 110.818  0.00  0.00     0.028 C 
ATOM     12  C   LIG d   1       2.812  86.783 111.580  0.00  0.00     0.006 C 
ENDBRANCH   8  11
ENDBRANCH   7   8
ENDBRANCH   1   7
BRANCH   6  13
ATOM     13  N   LIG d   1       2.734  83.678 113.213  0.00  0.00    -0.311 N 
ATOM     14  C   LIG d   1       2.334  84.436 114.233  0.00  0.00     0.210 C 
ATOM     15  C   LIG d   1       3.461  85.141 114.995  0.00  0.00     0.109 C 
ATOM     16  O   LIG d   1       1.156  84.566 114.599  0.00  0.00    -0.276 OA
ATOM     17  H   LIG d   1       3.710  83.605 113.006  0.00  0.00     0.149 HD
ENDBRANCH   6  13
BRANCH   5  18
ATOM     18  N   LIG d   1       0.856  81.463 114.160  0.00  0.00     0.381 N 
ATOM     19  H   LIG d   1       1.176  82.224 114.725  0.00  0.00    -0.090 HD
ATOM     20  H   LIG d   1       1.088  80.604 114.627  0.00  0.00    -0.090 HD
ATOM     21  H   LIG d   1      -0.131  81.525 114.035  0.00  0.00    -0.090 HD
ENDBRANCH   5  18
BRANCH   3  22
ATOM     22  C   LIG d   1       0.820  79.778 109.677  0.00  0.00     0.382 C 
ATOM     23  O   LIG d   1      -0.363  79.577 109.308  0.00  0.00    -0.241 OA
ATOM     24  O   LIG d   1       1.719  79.001 109.305  0.00  0.00    -0.241 OA
ENDBRANCH   3  22
TORSDOF 7
ENDMDL
MODEL 6
REMARK VINA RESULT:      -5.3      2.591      3.798
REMARK  7 active torsions:
REMARK  status: ('A' for Active; 'I' for Inactive)
REMARK    1  A    between atoms: C_2  and  C_3 
REMARK    2  A    between atoms: C_3  and  O_6 
REMARK    3  A    between atoms: C_3  and  C_4 
REMARK    4  A    between atoms: C_7  and  O_6 
REMARK    5  A    between atoms: C_9  and  C_10 
REMARK    6  A    between atoms: N_15  and  C_14 
REMARK    7  A    between atoms: N_20  and  C_19 
REMARK       I    between atoms: C_22  and  N_20 
ROOT
ATOM      1  C   LIG d   1       3.736  85.337 113.065  0.00  0.00     0.161 C 
ATOM      2  C   LIG d   1       3.658  86.581 113.713  0.00  0.00     0.016 C 
ATOM      3  C   LIG d   1       2.877  87.659 113.237  0.00  0.00     0.038 C 
ATOM      4  C   LIG d   1       1.996  87.515 112.154  0.00  0.00     0.028 C 
ATOM      5  C   LIG d   1       2.421  86.433 111.168  0.00  0.00    -0.047 C 
ATOM      6  C   LIG d   1       2.696  85.125 111.945  0.00  0.00     0.091 C 
ENDROOT
BRANCH   1   7
ATOM      7  O   LIG d   1       3.652  84.275 114.035  0.00  0.00    -0.368 OA
BRANCH   7   8
ATOM      8  C   LIG d   1       3.095  84.632 115.324  0.00  0.00     0.119 C 
BRANCH   8   9
ATOM      9  C   LIG d   1       4.024  84.048 116.407  0.00  0.00     0.028 C 
ATOM     10  C   LIG d   1       5.085  85.058 116.876  0.00  0.00     0.006 C 
ENDBRANCH   8   9
BRANCH   8  11
ATOM     11  C   LIG d   1       1.737  83.961 115.550  0.00  0.00     0.028 C 
ATOM     12  C   LIG d   1       1.385  83.816 117.039  0.00  0.00     0.006 C 
ENDBRANCH   8  11
ENDBRANCH   7   8
ENDBRANCH   1   7
BRANCH   6  13
ATOM     13  N   LIG d   1       3.198  84.038 111.065  0.00  0.00    -0.311 N 
ATOM     14  C   LIG d   1       2.407  83.130 110.497  0.00  0.00     0.210 C 
ATOM     15  C   LIG d   1       3.131  82.084 109.643  0.00  0.00     0.109 C 
ATOM     16  O   LIG d   1       1.170  83.110 110.593  0.00  0.00    -0.276 OA
ATOM     17  H   LIG d   1       4.186  83.998 110.908  0.00  0.00     0.149 HD
ENDBRANCH   6  13
BRANCH   5  18
ATOM     18  N   LIG d   1       1.346  86.295 110.167  0.00  0.00     0.381 N 
ATOM     19  H   LIG d   1       1.338  87.095 109.566  0.00  0.00    -0.090 HD
ATOM     20  H   LIG d   1       0.462  86.249 110.643  0.00  0.00    -0.090 HD
ATOM     21  H   LIG d   1       1.485  85.468 109.629  0.00  0.00    -0.090 HD
ENDBRANCH   5  18
BRANCH   3  22
ATOM     22  C   LIG d   1       3.002  88.910 113.821  0.00  0.00     0.382 C 
ATOM     23  O   LIG d   1       2.107  89.335 114.591  0.00  0.00    -0.241 OA
ATOM     24  O   LIG d   1       3.978  89.637 113.554  0.00  0.00    -0.241 OA
ENDBRANCH   3  22
TORSDOF 7
ENDMDL
MODEL 7
REMARK VINA RESULT:      -5.3      2.765      4.280
REMARK  7 active torsions:
REMARK  status: ('A' for Active; 'I' for Inactive)
REMARK    1  A    between atoms: C_2  and  C_3 
REMARK    2  A    between atoms: C_3  and  O_6 
REMARK    3  A    between atoms: C_3  and  C_4 
REMARK    4  A    between atoms: C_7  and  O_6 
REMARK    5  A    between atoms: C_9  and  C_10 
REMARK    6  A    between atoms: N_15  and  C_14 
REMARK    7  A    between atoms: N_20  and  C_19 
REMARK       I    between atoms: C_22  and  N_20 
ROOT
ATOM      1  C   LIG d   1       1.808  84.455 113.607  0.00  0.00     0.161 C 
ATOM      2  C   LIG d   1       0.939  83.440 113.173  0.00  0.00     0.016 C 
ATOM      3  C   LIG d   1       0.348  83.419 111.889  0.00  0.00     0.038 C 
ATOM      4  C   LIG d   1       0.707  84.338 110.892  0.00  0.00     0.028 C 
ATOM      5  C   LIG d   1       1.195  85.672 111.446  0.00  0.00    -0.047 C 
ATOM      6  C   LIG d   1       2.298  85.406 112.496  0.00  0.00     0.091 C 
ENDROOT
BRANCH   1   7
ATOM      7  O   LIG d   1       2.930  83.874 114.301  0.00  0.00    -0.368 OA
BRANCH   7   8
ATOM      8  C   LIG d   1       3.079  84.243 115.694  0.00  0.00     0.119 C 
BRANCH   8   9
ATOM      9  C   LIG d   1       4.438  84.954 115.841  0.00  0.00     0.028 C 
ATOM     10  C   LIG d   1       4.310  86.331 116.514  0.00  0.00     0.006 C 
ENDBRANCH   8   9
BRANCH   8  11
ATOM     11  C   LIG d   1       3.169  83.005 116.591  0.00  0.00     0.028 C 
ATOM     12  C   LIG d   1       2.781  81.710 115.861  0.00  0.00     0.006 C 
ENDBRANCH   8  11
ENDBRANCH   7   8
ENDBRANCH   1   7
BRANCH   6  13
ATOM     13  N   LIG d   1       2.772  86.654 113.149  0.00  0.00    -0.311 N 
ATOM     14  C   LIG d   1       3.850  87.326 112.749  0.00  0.00     0.210 C 
ATOM     15  C   LIG d   1       4.175  88.576 113.573  0.00  0.00     0.109 C 
ATOM     16  O   LIG d   1       4.550  87.024 111.771  0.00  0.00    -0.276 OA
ATOM     17  H   LIG d   1       2.245  86.988 113.931  0.00  0.00     0.149 HD
ENDBRANCH   6  13
BRANCH   5  18
ATOM     18  N   LIG d   1       1.665  86.482 110.306  0.00  0.00     0.381 N 
ATOM     19  H   LIG d   1       1.618  87.454 110.539  0.00  0.00    -0.090 HD
ATOM     20  H   LIG d   1       1.063  86.317 109.519  0.00  0.00    -0.090 HD
ATOM     21  H   LIG d   1       2.602  86.234 110.075  0.00  0.00    -0.090 HD
ENDBRANCH   5  18
BRANCH   3  22
ATOM     22  C   LIG d   1      -0.645  82.493 111.605  0.00  0.00     0.382 C 
ATOM     23  O   LIG d   1      -1.774  82.600 112.140  0.00  0.00    -0.241 OA
ATOM     24  O   LIG d   1      -0.411  81.527 110.854  0.00  0.00    -0.241 OA
ENDBRANCH   3  22
TORSDOF 7
ENDMDL
MODEL 8
REMARK VINA RESULT:      -5.1      2.854      4.055
REMARK  7 active torsions:
REMARK  status: ('A' for Active; 'I' for Inactive)
REMARK    1  A    between atoms: C_2  and  C_3 
REMARK    2  A    between atoms: C_3  and  O_6 
REMARK    3  A    between atoms: C_3  and  C_4 
REMARK    4  A    between atoms: C_7  and  O_6 
REMARK    5  A    between atoms: C_9  and  C_10 
REMARK    6  A    between atoms: N_15  and  C_14 
REMARK    7  A    between atoms: N_20  and  C_19 
REMARK       I    between atoms: C_22  and  N_20 
ROOT
ATOM      1  C   LIG d   1       1.597  84.446 113.756  0.00  0.00     0.161 C 
ATOM      2  C   LIG d   1       2.026  85.781 113.838  0.00  0.00     0.016 C 
ATOM      3  C   LIG d   1       1.655  86.777 112.906  0.00  0.00     0.038 C 
ATOM      4  C   LIG d   1       0.700  86.537 111.906  0.00  0.00     0.028 C 
ATOM      5  C   LIG d   1       0.625  85.075 111.478  0.00  0.00    -0.047 C 
ATOM      6  C   LIG d   1       0.467  84.192 112.737  0.00  0.00     0.091 C 
ENDROOT
BRANCH   1   7
ATOM      7  O   LIG d   1       1.209  83.977 115.062  0.00  0.00    -0.368 OA
BRANCH   7   8
ATOM      8  C   LIG d   1       2.028  84.425 116.170  0.00  0.00     0.119 C 
BRANCH   8   9
ATOM      9  C   LIG d   1       3.147  83.384 116.369  0.00  0.00     0.028 C 
ATOM     10  C   LIG d   1       4.398  83.988 117.029  0.00  0.00     0.006 C 
ENDBRANCH   8   9
BRANCH   8  11
ATOM     11  C   LIG d   1       1.238  84.426 117.482  0.00  0.00     0.028 C 
ATOM     12  C   LIG d   1       0.705  83.035 117.858  0.00  0.00     0.006 C 
ENDBRANCH   8  11
ENDBRANCH   7   8
ENDBRANCH   1   7
BRANCH   6  13
ATOM     13  N   LIG d   1       0.470  82.741 112.415  0.00  0.00    -0.311 N 
ATOM     14  C   LIG d   1      -0.635  82.045 112.156  0.00  0.00     0.210 C 
ATOM     15  C   LIG d   1      -0.411  80.557 111.867  0.00  0.00     0.109 C 
ATOM     16  O   LIG d   1      -1.778  82.525 112.106  0.00  0.00    -0.276 OA
ATOM     17  H   LIG d   1       1.358  82.278 112.402  0.00  0.00     0.149 HD
ENDBRANCH   6  13
BRANCH   5  18
ATOM     18  N   LIG d   1      -0.501  84.944 110.535  0.00  0.00     0.381 N 
ATOM     19  H   LIG d   1      -0.483  84.039 110.109  0.00  0.00    -0.090 HD
ATOM     20  H   LIG d   1      -0.401  85.635 109.812  0.00  0.00    -0.090 HD
ATOM     21  H   LIG d   1      -1.365  85.077 111.014  0.00  0.00    -0.090 HD
ENDBRANCH   5  18
BRANCH   3  22
ATOM     22  C   LIG d   1       2.271  88.019 112.944  0.00  0.00     0.382 C 
ATOM     23  O   LIG d   1       1.576  89.061 113.014  0.00  0.00    -0.241 OA
ATOM     24  O   LIG d   1       3.510  88.111 112.864  0.00  0.00    -0.241 OA
ENDBRANCH   3  22
TORSDOF 7
ENDMDL
MODEL 9
REMARK VINA RESULT:      -5.0      2.455      4.592
REMARK  7 active torsions:
REMARK  status: ('A' for Active; 'I' for Inactive)
REMARK    1  A    between atoms: C_2  and  C_3 
REMARK    2  A    between atoms: C_3  and  O_6 
REMARK    3  A    between atoms: C_3  and  C_4 
REMARK    4  A    between atoms: C_7  and  O_6 
REMARK    5  A    between atoms: C_9  and  C_10 
REMARK    6  A    between atoms: N_15  and  C_14 
REMARK    7  A    between atoms: N_20  and  C_19 
REMARK       I    between atoms: C_22  and  N_20 
ROOT
ATOM      1  C   LIG d   1       1.769  84.725 113.890  0.00  0.00     0.161 C 
ATOM      2  C   LIG d   1       1.594  85.783 114.798  0.00  0.00     0.016 C 
ATOM      3  C   LIG d   1       2.281  87.015 114.699  0.00  0.00     0.038 C 
ATOM      4  C   LIG d   1       3.083  87.330 113.592  0.00  0.00     0.028 C 
ATOM      5  C   LIG d   1       3.684  86.105 112.911  0.00  0.00    -0.047 C 
ATOM      6  C   LIG d   1       2.555  85.091 112.614  0.00  0.00     0.091 C 
ENDROOT
BRANCH   1   7
ATOM      7  O   LIG d   1       0.489  84.160 113.546  0.00  0.00    -0.368 OA
BRANCH   7   8
ATOM      8  C   LIG d   1      -0.054  84.550 112.260  0.00  0.00     0.119 C 
BRANCH   8   9
ATOM      9  C   LIG d   1      -1.070  85.681 112.510  0.00  0.00     0.028 C 
ATOM     10  C   LIG d   1      -1.120  86.692 111.352  0.00  0.00     0.006 C 
ENDBRANCH   8   9
BRANCH   8  11
ATOM     11  C   LIG d   1      -0.862  83.412 111.628  0.00  0.00     0.028 C 
ATOM     12  C   LIG d   1      -0.184  82.042 111.786  0.00  0.00     0.006 C 
ENDBRANCH   8  11
ENDBRANCH   7   8
ENDBRANCH   1   7
BRANCH   6  13
ATOM     13  N   LIG d   1       3.069  83.828 112.024  0.00  0.00    -0.311 N 
ATOM     14  C   LIG d   1       3.064  83.574 110.717  0.00  0.00     0.210 C 
ATOM     15  C   LIG d   1       3.621  82.203 110.322  0.00  0.00     0.109 C 
ATOM     16  O   LIG d   1       2.680  84.367 109.844  0.00  0.00    -0.276 OA
ATOM     17  H   LIG d   1       3.427  83.141 112.658  0.00  0.00     0.149 HD
ENDBRANCH   6  13
BRANCH   5  18
ATOM     18  N   LIG d   1       4.380  86.567 111.696  0.00  0.00     0.381 N 
ATOM     19  H   LIG d   1       5.131  85.944 111.478  0.00  0.00    -0.090 HD
ATOM     20  H   LIG d   1       4.767  87.478 111.869  0.00  0.00    -0.090 HD
ATOM     21  H   LIG d   1       3.742  86.609 110.932  0.00  0.00    -0.090 HD
ENDBRANCH   5  18
BRANCH   3  22
ATOM     22  C   LIG d   1       2.201  87.932 115.736  0.00  0.00     0.382 C 
ATOM     23  O   LIG d   1       2.023  89.148 115.486  0.00  0.00    -0.241 OA
ATOM     24  O   LIG d   1       2.348  87.564 116.917  0.00  0.00    -0.241 OA
ENDBRANCH   3  22
TORSDOF 7
ENDMDL
