MODEL 1
REMARK VINA RESULT:      -5.7      0.000      0.000
REMARK  7 active torsions:
REMARK  status: ('A' for Active; 'I' for Inactive)
REMARK    1  A    between atoms: C_2  and  C_3 
REMARK    2  A    between atoms: C_3  and  O_6 
REMARK    3  A    between atoms: C_3  and  C_4 
REMARK    4  A    between atoms: C_7  and  O_6 
REMARK    5  A    between atoms: C_9  and  C_10 
REMARK    6  A    between atoms: N_15  and  C_14 
REMARK    7  A    between atoms: N_20  and  C_19 
REMARK       I    between atoms: C_22  and  N_20 
ROOT
ATOM      1  C   LIG d   1       2.331  84.668 113.007  0.00  0.00     0.161 C 
ATOM      2  C   LIG d   1       2.950  85.929 113.021  0.00  0.00     0.016 C 
ATOM      3  C   LIG d   1       2.993  86.787 111.898  0.00  0.00     0.038 C 
ATOM      4  C   LIG d   1       2.284  86.504 110.721  0.00  0.00     0.028 C 
ATOM      5  C   LIG d   1       2.066  85.013 110.489  0.00  0.00    -0.047 C 
ATOM      6  C   LIG d   1       1.457  84.390 111.766  0.00  0.00     0.091 C 
ENDROOT
BRANCH   1   7
ATOM      7  O   LIG d   1       1.562  84.488 114.212  0.00  0.00    -0.368 OA
BRANCH   7   8
ATOM      8  C   LIG d   1       2.279  84.668 115.459  0.00  0.00     0.119 C 
BRANCH   8   9
ATOM      9  C   LIG d   1       2.542  83.269 116.048  0.00  0.00     0.028 C 
ATOM     10  C   LIG d   1       1.765  83.025 117.352  0.00  0.00     0.006 C 
ENDBRANCH   8   9
BRANCH   8  11
ATOM     11  C   LIG d   1       1.416  85.390 116.498  0.00  0.00     0.028 C 
ATOM     12  C   LIG d   1       1.002  86.802 116.053  0.00  0.00     0.006 C 
ENDBRANCH   8  11
ENDBRANCH   7   8
ENDBRANCH   1   7
BRANCH   6  13
ATOM     13  N   LIG d   1       1.290  82.918 111.654  0.00  0.00    -0.311 N 
ATOM     14  C   LIG d   1       0.174  82.338 111.215  0.00  0.00     0.210 C 
ATOM     15  C   LIG d   1       0.205  80.806 111.198  0.00  0.00     0.109 C 
ATOM     16  O   LIG d   1      -0.826  82.947 110.808  0.00  0.00    -0.276 OA
ATOM     17  H   LIG d   1       2.064  82.348 111.934  0.00  0.00     0.149 HD
ENDBRANCH   6  13
BRANCH   5  18
ATOM     18  N   LIG d   1       1.198  84.868 109.305  0.00  0.00     0.381 N 
ATOM     19  H   LIG d   1       1.071  83.898 109.095  0.00  0.00    -0.090 HD
ATOM     20  H   LIG d   1       1.645  85.306 108.519  0.00  0.00    -0.090 HD
ATOM     21  H   LIG d   1       0.315  85.297 109.475  0.00  0.00    -0.090 HD
ENDBRANCH   5  18
BRANCH   3  22
ATOM     22  C   LIG d   1       3.785  87.925 111.932  0.00  0.00     0.382 C 
ATOM     23  O   LIG d   1       5.034  87.821 111.876  0.00  0.00    -0.241 OA
ATOM     24  O   LIG d   1       3.268  89.051 112.064  0.00  0.00    -0.241 OA
ENDBRANCH   3  22
TORSDOF 7
ENDMDL
MODEL 2
REMARK VINA RESULT:      -5.7      1.656      2.103
REMARK  7 active torsions:
REMARK  status: ('A' for Active; 'I' for Inactive)
REMARK    1  A    between atoms: C_2  and  C_3 
REMARK    2  A    between atoms: C_3  and  O_6 
REMARK    3  A    between atoms: C_3  and  C_4 
REMARK    4  A    between atoms: C_7  and  O_6 
REMARK    5  A    between atoms: C_9  and  C_10 
REMARK    6  A    between atoms: N_15  and  C_14 
REMARK    7  A    between atoms: N_20  and  C_19 
REMARK       I    between atoms: C_22  and  N_20 
ROOT
ATOM      1  C   LIG d   1       3.949  85.412 112.893  0.00  0.00     0.161 C 
ATOM      2  C   LIG d   1       4.478  86.688 113.148  0.00  0.00     0.016 C 
ATOM      3  C   LIG d   1       4.099  87.845 112.429  0.00  0.00     0.038 C 
ATOM      4  C   LIG d   1       3.048  87.830 111.500  0.00  0.00     0.028 C 
ATOM      5  C   LIG d   1       2.833  86.468 110.851  0.00  0.00    -0.047 C 
ATOM      6  C   LIG d   1       2.721  85.396 111.959  0.00  0.00     0.091 C 
ENDROOT
BRANCH   1   7
ATOM      7  O   LIG d   1       3.641  84.752 114.137  0.00  0.00    -0.368 OA
BRANCH   7   8
ATOM      8  C   LIG d   1       3.277  85.615 115.242  0.00  0.00     0.119 C 
BRANCH   8   9
ATOM      9  C   LIG d   1       4.069  85.143 116.477  0.00  0.00     0.028 C 
ATOM     10  C   LIG d   1       5.289  86.034 116.767  0.00  0.00     0.006 C 
ENDBRANCH   8   9
BRANCH   8  11
ATOM     11  C   LIG d   1       1.802  85.447 115.618  0.00  0.00     0.028 C 
ATOM     12  C   LIG d   1       1.050  86.785 115.693  0.00  0.00     0.006 C 
ENDBRANCH   8  11
ENDBRANCH   7   8
ENDBRANCH   1   7
BRANCH   6  13
ATOM     13  N   LIG d   1       2.593  84.022 111.407  0.00  0.00    -0.311 N 
ATOM     14  C   LIG d   1       1.634  83.172 111.771  0.00  0.00     0.210 C 
ATOM     15  C   LIG d   1       1.697  81.798 111.095  0.00  0.00     0.109 C 
ATOM     16  O   LIG d   1       0.719  83.436 112.565  0.00  0.00    -0.276 OA
ATOM     17  H   LIG d   1       3.276  83.735 110.733  0.00  0.00     0.149 HD
ENDBRANCH   6  13
BRANCH   5  18
ATOM     18  N   LIG d   1       1.624  86.560 110.011  0.00  0.00     0.381 N 
ATOM     19  H   LIG d   1       0.960  87.173 110.440  0.00  0.00    -0.090 HD
ATOM     20  H   LIG d   1       1.209  85.648 109.937  0.00  0.00    -0.090 HD
ATOM     21  H   LIG d   1       1.863  86.899 109.105  0.00  0.00    -0.090 HD
ENDBRANCH   5  18
BRANCH   3  22
ATOM     22  C   LIG d   1       4.803  89.026 112.609  0.00  0.00     0.382 C 
ATOM     23  O   LIG d   1       4.186  90.103 112.790  0.00  0.00    -0.241 OA
ATOM     24  O   LIG d   1       6.047  89.036 112.547  0.00  0.00    -0.241 OA
ENDBRANCH   3  22
TORSDOF 7
ENDMDL
MODEL 3
REMARK VINA RESULT:      -5.5     26.050     27.763
REMARK  7 active torsions:
REMARK  status: ('A' for Active; 'I' for Inactive)
REMARK    1  A    between atoms: C_2  and  C_3 
REMARK    2  A    between atoms: C_3  and  O_6 
REMARK    3  A    between atoms: C_3  and  C_4 
REMARK    4  A    between atoms: C_7  and  O_6 
REMARK    5  A    between atoms: C_9  and  C_10 
REMARK    6  A    between atoms: N_15  and  C_14 
REMARK    7  A    between atoms: N_20  and  C_19 
REMARK       I    between atoms: C_22  and  N_20 
ROOT
ATOM      1  C   LIG d   1     -25.762  85.595 112.946  0.00  0.00     0.161 C 
ATOM      2  C   LIG d   1     -24.668  86.441 113.194  0.00  0.00     0.016 C 
ATOM      3  C   LIG d   1     -23.344  85.973 113.359  0.00  0.00     0.038 C 
ATOM      4  C   LIG d   1     -22.999  84.631 113.137  0.00  0.00     0.028 C 
ATOM      5  C   LIG d   1     -24.150  83.661 113.382  0.00  0.00    -0.047 C 
ATOM      6  C   LIG d   1     -25.388  84.141 112.591  0.00  0.00     0.091 C 
ENDROOT
BRANCH   1   7
ATOM      7  O   LIG d   1     -26.597  86.163 111.918  0.00  0.00    -0.368 OA
BRANCH   7   8
ATOM      8  C   LIG d   1     -27.849  86.742 112.361  0.00  0.00     0.119 C 
BRANCH   8   9
ATOM      9  C   LIG d   1     -28.987  85.863 111.806  0.00  0.00     0.028 C 
ATOM     10  C   LIG d   1     -28.668  85.301 110.411  0.00  0.00     0.006 C 
ENDBRANCH   8   9
BRANCH   8  11
ATOM     11  C   LIG d   1     -28.070  88.127 111.747  0.00  0.00     0.028 C 
ATOM     12  C   LIG d   1     -26.774  88.756 111.211  0.00  0.00     0.006 C 
ENDBRANCH   8  11
ENDBRANCH   7   8
ENDBRANCH   1   7
BRANCH   6  13
ATOM     13  N   LIG d   1     -26.583  83.294 112.841  0.00  0.00    -0.311 N 
ATOM     14  C   LIG d   1     -26.982  82.327 112.017  0.00  0.00     0.210 C 
ATOM     15  C   LIG d   1     -28.252  81.588 112.454  0.00  0.00     0.109 C 
ATOM     16  O   LIG d   1     -26.388  81.989 110.983  0.00  0.00    -0.276 OA
ATOM     17  H   LIG d   1     -27.107  83.479 113.674  0.00  0.00     0.149 HD
ENDBRANCH   6  13
BRANCH   5  18
ATOM     18  N   LIG d   1     -23.692  82.317 112.982  0.00  0.00     0.381 N 
ATOM     19  H   LIG d   1     -24.282  81.622 113.393  0.00  0.00    -0.090 HD
ATOM     20  H   LIG d   1     -22.757  82.178 113.321  0.00  0.00    -0.090 HD
ATOM     21  H   LIG d   1     -23.709  82.233 111.989  0.00  0.00    -0.090 HD
ENDBRANCH   5  18
BRANCH   3  22
ATOM     22  C   LIG d   1     -22.356  86.845 113.790  0.00  0.00     0.382 C 
ATOM     23  O   LIG d   1     -21.195  86.756 113.324  0.00  0.00    -0.241 OA
ATOM     24  O   LIG d   1     -22.600  87.691 114.671  0.00  0.00    -0.241 OA
ENDBRANCH   3  22
TORSDOF 7
ENDMDL
MODEL 4
REMARK VINA RESULT:      -5.5      2.740      5.302
REMARK  7 active torsions:
REMARK  status: ('A' for Active; 'I' for Inactive)
REMARK    1  A    between atoms: C_2  and  C_3 
REMARK    2  A    between atoms: C_3  and  O_6 
REMARK    3  A    between atoms: C_3  and  C_4 
REMARK    4  A    between atoms: C_7  and  O_6 
REMARK    5  A    between atoms: C_9  and  C_10 
REMARK    6  A    between atoms: N_15  and  C_14 
REMARK    7  A    between atoms: N_20  and  C_19 
REMARK       I    between atoms: C_22  and  N_20 
ROOT
ATOM      1  C   LIG d   1       3.341  85.901 113.301  0.00  0.00     0.161 C 
ATOM      2  C   LIG d   1       3.934  87.019 112.691  0.00  0.00     0.016 C 
ATOM      3  C   LIG d   1       4.673  87.993 113.402  0.00  0.00     0.038 C 
ATOM      4  C   LIG d   1       4.999  87.833 114.757  0.00  0.00     0.028 C 
ATOM      5  C   LIG d   1       3.997  86.976 115.524  0.00  0.00    -0.047 C 
ATOM      6  C   LIG d   1       3.780  85.651 114.759  0.00  0.00     0.091 C 
ENDROOT
BRANCH   1   7
ATOM      7  O   LIG d   1       3.575  84.726 112.499  0.00  0.00    -0.368 OA
BRANCH   7   8
ATOM      8  C   LIG d   1       3.535  84.916 111.064  0.00  0.00     0.119 C 
BRANCH   8   9
ATOM      9  C   LIG d   1       2.058  84.847 110.628  0.00  0.00     0.028 C 
ATOM     10  C   LIG d   1       1.585  86.144 109.951  0.00  0.00     0.006 C 
ENDBRANCH   8   9
BRANCH   8  11
ATOM     11  C   LIG d   1       4.229  83.764 110.330  0.00  0.00     0.028 C 
ATOM     12  C   LIG d   1       3.243  82.860 109.573  0.00  0.00     0.006 C 
ENDBRANCH   8  11
ENDBRANCH   7   8
ENDBRANCH   1   7
BRANCH   6  13
ATOM     13  N   LIG d   1       2.751  84.790 115.398  0.00  0.00    -0.311 N 
ATOM     14  C   LIG d   1       3.026  83.904 116.353  0.00  0.00     0.210 C 
ATOM     15  C   LIG d   1       1.822  83.105 116.861  0.00  0.00     0.109 C 
ATOM     16  O   LIG d   1       4.148  83.727 116.852  0.00  0.00    -0.276 OA
ATOM     17  H   LIG d   1       1.808  84.890 115.075  0.00  0.00     0.149 HD
ENDBRANCH   6  13
BRANCH   5  18
ATOM     18  N   LIG d   1       4.531  86.778 116.885  0.00  0.00     0.381 N 
ATOM     19  H   LIG d   1       4.797  85.821 117.008  0.00  0.00    -0.090 HD
ATOM     20  H   LIG d   1       3.810  86.993 117.551  0.00  0.00    -0.090 HD
ATOM     21  H   LIG d   1       5.318  87.371 117.033  0.00  0.00    -0.090 HD
ENDBRANCH   5  18
BRANCH   3  22
ATOM     22  C   LIG d   1       5.059  89.162 112.765  0.00  0.00     0.382 C 
ATOM     23  O   LIG d   1       6.224  89.273 112.311  0.00  0.00    -0.241 OA
ATOM     24  O   LIG d   1       4.273  90.124 112.677  0.00  0.00    -0.241 OA
ENDBRANCH   3  22
TORSDOF 7
ENDMDL
MODEL 5
REMARK VINA RESULT:      -5.4      1.696      4.721
REMARK  7 active torsions:
REMARK  status: ('A' for Active; 'I' for Inactive)
REMARK    1  A    between atoms: C_2  and  C_3 
REMARK    2  A    between atoms: C_3  and  O_6 
REMARK    3  A    between atoms: C_3  and  C_4 
REMARK    4  A    between atoms: C_7  and  O_6 
REMARK    5  A    between atoms: C_9  and  C_10 
REMARK    6  A    between atoms: N_15  and  C_14 
REMARK    7  A    between atoms: N_20  and  C_19 
REMARK       I    between atoms: C_22  and  N_20 
ROOT
ATOM      1  C   LIG d   1       2.135  84.885 113.140  0.00  0.00     0.161 C 
ATOM      2  C   LIG d   1       1.306  83.811 112.776  0.00  0.00     0.016 C 
ATOM      3  C   LIG d   1       0.680  83.704 111.513  0.00  0.00     0.038 C 
ATOM      4  C   LIG d   1       0.963  84.596 110.468  0.00  0.00     0.028 C 
ATOM      5  C   LIG d   1       1.399  85.975 110.949  0.00  0.00    -0.047 C 
ATOM      6  C   LIG d   1       2.544  85.810 111.975  0.00  0.00     0.091 C 
ENDROOT
BRANCH   1   7
ATOM      7  O   LIG d   1       3.305  84.391 113.822  0.00  0.00    -0.368 OA
BRANCH   7   8
ATOM      8  C   LIG d   1       3.428  84.752 115.220  0.00  0.00     0.119 C 
BRANCH   8   9
ATOM      9  C   LIG d   1       2.115  85.444 115.637  0.00  0.00     0.028 C 
ATOM     10  C   LIG d   1       1.408  84.713 116.790  0.00  0.00     0.006 C 
ENDBRANCH   8   9
BRANCH   8  11
ATOM     11  C   LIG d   1       4.523  85.802 115.430  0.00  0.00     0.028 C 
ATOM     12  C   LIG d   1       3.992  87.100 116.058  0.00  0.00     0.006 C 
ENDBRANCH   8  11
ENDBRANCH   7   8
ENDBRANCH   1   7
BRANCH   6  13
ATOM     13  N   LIG d   1       2.973  87.108 112.559  0.00  0.00    -0.311 N 
ATOM     14  C   LIG d   1       4.038  87.786 112.136  0.00  0.00     0.210 C 
ATOM     15  C   LIG d   1       4.315  89.091 112.889  0.00  0.00     0.109 C 
ATOM     16  O   LIG d   1       4.761  87.446 111.187  0.00  0.00    -0.276 OA
ATOM     17  H   LIG d   1       2.424  87.472 113.313  0.00  0.00     0.149 HD
ENDBRANCH   6  13
BRANCH   5  18
ATOM     18  N   LIG d   1       1.793  86.757 109.762  0.00  0.00     0.381 N 
ATOM     19  H   LIG d   1       2.441  86.231 109.210  0.00  0.00    -0.090 HD
ATOM     20  H   LIG d   1       2.249  87.600 110.065  0.00  0.00    -0.090 HD
ATOM     21  H   LIG d   1       0.989  86.983 109.220  0.00  0.00    -0.090 HD
ENDBRANCH   5  18
BRANCH   3  22
ATOM     22  C   LIG d   1      -0.272  82.719 111.299  0.00  0.00     0.382 C 
ATOM     23  O   LIG d   1      -0.101  81.869 110.393  0.00  0.00    -0.241 OA
ATOM     24  O   LIG d   1      -1.320  82.696 111.972  0.00  0.00    -0.241 OA
ENDBRANCH   3  22
TORSDOF 7
ENDMDL
MODEL 6
REMARK VINA RESULT:      -5.4      3.011      6.402
REMARK  7 active torsions:
REMARK  status: ('A' for Active; 'I' for Inactive)
REMARK    1  A    between atoms: C_2  and  C_3 
REMARK    2  A    between atoms: C_3  and  O_6 
REMARK    3  A    between atoms: C_3  and  C_4 
REMARK    4  A    between atoms: C_7  and  O_6 
REMARK    5  A    between atoms: C_9  and  C_10 
REMARK    6  A    between atoms: N_15  and  C_14 
REMARK    7  A    between atoms: N_20  and  C_19 
REMARK       I    between atoms: C_22  and  N_20 
ROOT
ATOM      1  C   LIG d   1       2.944  85.570 113.417  0.00  0.00     0.161 C 
ATOM      2  C   LIG d   1       2.454  84.352 113.918  0.00  0.00     0.016 C 
ATOM      3  C   LIG d   1       2.481  84.007 115.289  0.00  0.00     0.038 C 
ATOM      4  C   LIG d   1       2.864  84.926 116.277  0.00  0.00     0.028 C 
ATOM      5  C   LIG d   1       3.839  85.986 115.774  0.00  0.00    -0.047 C 
ATOM      6  C   LIG d   1       3.263  86.630 114.492  0.00  0.00     0.091 C 
ENDROOT
BRANCH   1   7
ATOM      7  O   LIG d   1       2.023  86.104 112.445  0.00  0.00    -0.368 OA
BRANCH   7   8
ATOM      8  C   LIG d   1       2.148  85.587 111.097  0.00  0.00     0.119 C 
BRANCH   8   9
ATOM      9  C   LIG d   1       3.652  85.447 110.793  0.00  0.00     0.028 C 
ATOM     10  C   LIG d   1       3.966  84.204 109.943  0.00  0.00     0.006 C 
ENDBRANCH   8   9
BRANCH   8  11
ATOM     11  C   LIG d   1       1.617  86.586 110.066  0.00  0.00     0.028 C 
ATOM     12  C   LIG d   1       0.339  86.098 109.366  0.00  0.00     0.006 C 
ENDBRANCH   8  11
ENDBRANCH   7   8
ENDBRANCH   1   7
BRANCH   6  13
ATOM     13  N   LIG d   1       4.193  87.618 113.887  0.00  0.00    -0.311 N 
ATOM     14  C   LIG d   1       3.882  88.900 113.703  0.00  0.00     0.210 C 
ATOM     15  C   LIG d   1       4.979  89.743 113.045  0.00  0.00     0.109 C 
ATOM     16  O   LIG d   1       2.815  89.426 114.052  0.00  0.00    -0.276 OA
ATOM     17  H   LIG d   1       5.093  87.283 113.603  0.00  0.00     0.149 HD
ENDBRANCH   6  13
BRANCH   5  18
ATOM     18  N   LIG d   1       4.046  86.956 116.866  0.00  0.00     0.381 N 
ATOM     19  H   LIG d   1       3.222  87.009 117.431  0.00  0.00    -0.090 HD
ATOM     20  H   LIG d   1       4.214  87.863 116.467  0.00  0.00    -0.090 HD
ATOM     21  H   LIG d   1       4.823  86.680 117.424  0.00  0.00    -0.090 HD
ENDBRANCH   5  18
BRANCH   3  22
ATOM     22  C   LIG d   1       2.160  82.716 115.679  0.00  0.00     0.382 C 
ATOM     23  O   LIG d   1       2.336  81.759 114.887  0.00  0.00    -0.241 OA
ATOM     24  O   LIG d   1       1.653  82.502 116.797  0.00  0.00    -0.241 OA
ENDBRANCH   3  22
TORSDOF 7
ENDMDL
MODEL 7
REMARK VINA RESULT:      -5.3      3.637      5.585
REMARK  7 active torsions:
REMARK  status: ('A' for Active; 'I' for Inactive)
REMARK    1  A    between atoms: C_2  and  C_3 
REMARK    2  A    between atoms: C_3  and  O_6 
REMARK    3  A    between atoms: C_3  and  C_4 
REMARK    4  A    between atoms: C_7  and  O_6 
REMARK    5  A    between atoms: C_9  and  C_10 
REMARK    6  A    between atoms: N_15  and  C_14 
REMARK    7  A    between atoms: N_20  and  C_19 
REMARK       I    between atoms: C_22  and  N_20 
ROOT
ATOM      1  C   LIG d   1       2.884  87.206 114.736  0.00  0.00     0.161 C 
ATOM      2  C   LIG d   1       3.119  86.236 113.747  0.00  0.00     0.016 C 
ATOM      3  C   LIG d   1       3.835  86.497 112.556  0.00  0.00     0.038 C 
ATOM      4  C   LIG d   1       4.499  87.713 112.341  0.00  0.00     0.028 C 
ATOM      5  C   LIG d   1       3.867  88.887 113.082  0.00  0.00    -0.047 C 
ATOM      6  C   LIG d   1       3.695  88.508 114.570  0.00  0.00     0.091 C 
ENDROOT
BRANCH   1   7
ATOM      7  O   LIG d   1       3.109  86.637 116.041  0.00  0.00    -0.368 OA
BRANCH   7   8
ATOM      8  C   LIG d   1       1.929  86.417 116.852  0.00  0.00     0.119 C 
BRANCH   8   9
ATOM      9  C   LIG d   1       1.645  84.903 116.855  0.00  0.00     0.028 C 
ATOM     10  C   LIG d   1       0.637  84.497 117.944  0.00  0.00     0.006 C 
ENDBRANCH   8   9
BRANCH   8  11
ATOM     11  C   LIG d   1       0.690  87.061 116.221  0.00  0.00     0.028 C 
ATOM     12  C   LIG d   1       0.069  88.152 117.107  0.00  0.00     0.006 C 
ENDBRANCH   8  11
ENDBRANCH   7   8
ENDBRANCH   1   7
BRANCH   6  13
ATOM     13  N   LIG d   1       3.007  89.569 115.350  0.00  0.00    -0.311 N 
ATOM     14  C   LIG d   1       3.652  90.522 116.020  0.00  0.00     0.210 C 
ATOM     15  C   LIG d   1       2.752  91.506 116.774  0.00  0.00     0.109 C 
ATOM     16  O   LIG d   1       4.884  90.665 116.036  0.00  0.00    -0.276 OA
ATOM     17  H   LIG d   1       2.006  89.547 115.366  0.00  0.00     0.149 HD
ENDBRANCH   6  13
BRANCH   5  18
ATOM     18  N   LIG d   1       4.737  90.061 112.881  0.00  0.00     0.381 N 
ATOM     19  H   LIG d   1       5.292  90.215 113.699  0.00  0.00    -0.090 HD
ATOM     20  H   LIG d   1       4.161  90.871 112.734  0.00  0.00    -0.090 HD
ATOM     21  H   LIG d   1       5.328  89.917 112.092  0.00  0.00    -0.090 HD
ENDBRANCH   5  18
BRANCH   3  22
ATOM     22  C   LIG d   1       3.858  85.547 111.546  0.00  0.00     0.382 C 
ATOM     23  O   LIG d   1       4.411  84.437 111.742  0.00  0.00    -0.241 OA
ATOM     24  O   LIG d   1       3.372  85.801 110.428  0.00  0.00    -0.241 OA
ENDBRANCH   3  22
TORSDOF 7
ENDMDL
MODEL 8
REMARK VINA RESULT:      -5.3     11.860     15.028
REMARK  7 active torsions:
REMARK  status: ('A' for Active; 'I' for Inactive)
REMARK    1  A    between atoms: C_2  and  C_3 
REMARK    2  A    between atoms: C_3  and  O_6 
REMARK    3  A    between atoms: C_3  and  C_4 
REMARK    4  A    between atoms: C_7  and  O_6 
REMARK    5  A    between atoms: C_9  and  C_10 
REMARK    6  A    between atoms: N_15  and  C_14 
REMARK    7  A    between atoms: N_20  and  C_19 
REMARK       I    between atoms: C_22  and  N_20 
ROOT
ATOM      1  C   LIG d   1      -7.069  75.955 117.858  0.00  0.00     0.161 C 
ATOM      2  C   LIG d   1      -7.797  74.763 117.705  0.00  0.00     0.016 C 
ATOM      3  C   LIG d   1      -9.192  74.671 117.916  0.00  0.00     0.038 C 
ATOM      4  C   LIG d   1      -9.983  75.806 118.149  0.00  0.00     0.028 C 
ATOM      5  C   LIG d   1      -9.222  76.950 118.810  0.00  0.00    -0.047 C 
ATOM      6  C   LIG d   1      -7.932  77.226 118.003  0.00  0.00     0.091 C 
ENDROOT
BRANCH   1   7
ATOM      7  O   LIG d   1      -6.139  76.102 116.767  0.00  0.00    -0.368 OA
BRANCH   7   8
ATOM      8  C   LIG d   1      -5.465  74.894 116.336  0.00  0.00     0.119 C 
BRANCH   8   9
ATOM      9  C   LIG d   1      -3.949  75.142 116.455  0.00  0.00     0.028 C 
ATOM     10  C   LIG d   1      -3.226  74.011 117.204  0.00  0.00     0.006 C 
ENDBRANCH   8   9
BRANCH   8  11
ATOM     11  C   LIG d   1      -5.716  74.616 114.851  0.00  0.00     0.028 C 
ATOM     12  C   LIG d   1      -6.528  75.727 114.166  0.00  0.00     0.006 C 
ENDBRANCH   8  11
ENDBRANCH   7   8
ENDBRANCH   1   7
BRANCH   6  13
ATOM     13  N   LIG d   1      -7.085  78.275 118.629  0.00  0.00    -0.311 N 
ATOM     14  C   LIG d   1      -7.154  79.564 118.302  0.00  0.00     0.210 C 
ATOM     15  C   LIG d   1      -6.178  80.475 119.054  0.00  0.00     0.109 C 
ATOM     16  O   LIG d   1      -7.951  80.044 117.483  0.00  0.00    -0.276 OA
ATOM     17  H   LIG d   1      -6.431  77.977 119.327  0.00  0.00     0.149 HD
ENDBRANCH   6  13
BRANCH   5  18
ATOM     18  N   LIG d   1     -10.127  78.114 118.868  0.00  0.00     0.381 N 
ATOM     19  H   LIG d   1     -10.032  78.572 119.752  0.00  0.00    -0.090 HD
ATOM     20  H   LIG d   1     -11.075  77.793 118.778  0.00  0.00    -0.090 HD
ATOM     21  H   LIG d   1      -9.913  78.749 118.131  0.00  0.00    -0.090 HD
ENDBRANCH   5  18
BRANCH   3  22
ATOM     22  C   LIG d   1      -9.804  73.427 117.934  0.00  0.00     0.382 C 
ATOM     23  O   LIG d   1      -9.133  72.403 118.206  0.00  0.00    -0.241 OA
ATOM     24  O   LIG d   1     -11.008  73.311 117.638  0.00  0.00    -0.241 OA
ENDBRANCH   3  22
TORSDOF 7
ENDMDL
MODEL 9
REMARK VINA RESULT:      -5.1      2.313      4.716
REMARK  7 active torsions:
REMARK  status: ('A' for Active; 'I' for Inactive)
REMARK    1  A    between atoms: C_2  and  C_3 
REMARK    2  A    between atoms: C_3  and  O_6 
REMARK    3  A    between atoms: C_3  and  C_4 
REMARK    4  A    between atoms: C_7  and  O_6 
REMARK    5  A    between atoms: C_9  and  C_10 
REMARK    6  A    between atoms: N_15  and  C_14 
REMARK    7  A    between atoms: N_20  and  C_19 
REMARK       I    between atoms: C_22  and  N_20 
ROOT
ATOM      1  C   LIG d   1       3.113  85.624 112.501  0.00  0.00     0.161 C 
ATOM      2  C   LIG d   1       3.986  86.520 113.142  0.00  0.00     0.016 C 
ATOM      3  C   LIG d   1       4.122  86.602 114.547  0.00  0.00     0.038 C 
ATOM      4  C   LIG d   1       3.502  85.684 115.407  0.00  0.00     0.028 C 
ATOM      5  C   LIG d   1       2.220  85.088 114.834  0.00  0.00    -0.047 C 
ATOM      6  C   LIG d   1       2.511  84.540 113.419  0.00  0.00     0.091 C 
ENDROOT
BRANCH   1   7
ATOM      7  O   LIG d   1       3.777  85.016 111.375  0.00  0.00    -0.368 OA
BRANCH   7   8
ATOM      8  C   LIG d   1       3.279  85.386 110.066  0.00  0.00     0.119 C 
BRANCH   8   9
ATOM      9  C   LIG d   1       2.053  86.294 110.277  0.00  0.00     0.028 C 
ATOM     10  C   LIG d   1       0.876  85.913 109.363  0.00  0.00     0.006 C 
ENDBRANCH   8   9
BRANCH   8  11
ATOM     11  C   LIG d   1       2.753  84.165 109.305  0.00  0.00     0.028 C 
ATOM     12  C   LIG d   1       3.734  82.981 109.327  0.00  0.00     0.006 C 
ENDBRANCH   8  11
ENDBRANCH   7   8
ENDBRANCH   1   7
BRANCH   6  13
ATOM     13  N   LIG d   1       1.291  84.014 112.753  0.00  0.00    -0.311 N 
ATOM     14  C   LIG d   1       1.218  82.800 112.209  0.00  0.00     0.210 C 
ATOM     15  C   LIG d   1      -0.127  82.464 111.556  0.00  0.00     0.109 C 
ATOM     16  O   LIG d   1       2.127  81.958 112.235  0.00  0.00    -0.276 OA
ATOM     17  H   LIG d   1       0.495  84.620 112.715  0.00  0.00     0.149 HD
ENDBRANCH   6  13
BRANCH   5  18
ATOM     18  N   LIG d   1       1.754  84.049 115.772  0.00  0.00     0.381 N 
ATOM     19  H   LIG d   1       2.128  84.223 116.684  0.00  0.00    -0.090 HD
ATOM     20  H   LIG d   1       2.089  83.155 115.460  0.00  0.00    -0.090 HD
ATOM     21  H   LIG d   1       0.759  84.045 115.809  0.00  0.00    -0.090 HD
ENDBRANCH   5  18
BRANCH   3  22
ATOM     22  C   LIG d   1       4.855  87.638 115.106  0.00  0.00     0.382 C 
ATOM     23  O   LIG d   1       5.166  88.634 114.410  0.00  0.00    -0.241 OA
ATOM     24  O   LIG d   1       5.248  87.568 116.286  0.00  0.00    -0.241 OA
ENDBRANCH   3  22
TORSDOF 7
ENDMDL
