MODEL 1
REMARK VINA RESULT:      -6.6      0.000      0.000
REMARK  7 active torsions:
REMARK  status: ('A' for Active; 'I' for Inactive)
REMARK    1  A    between atoms: C_2  and  C_3 
REMARK    2  A    between atoms: C_3  and  O_6 
REMARK    3  A    between atoms: C_3  and  C_4 
REMARK    4  A    between atoms: C_7  and  O_6 
REMARK    5  A    between atoms: C_9  and  C_10 
REMARK    6  A    between atoms: N_15  and  C_14 
REMARK    7  A    between atoms: N_20  and  C_19 
REMARK       I    between atoms: C_22  and  N_20 
ROOT
ATOM      1  C   LIG d   1       0.924  83.892 109.663  0.00  0.00     0.161 C 
ATOM      2  C   LIG d   1       0.451  85.017 110.358  0.00  0.00     0.016 C 
ATOM      3  C   LIG d   1      -0.306  84.935 111.549  0.00  0.00     0.038 C 
ATOM      4  C   LIG d   1      -0.513  83.716 112.213  0.00  0.00     0.028 C 
ATOM      5  C   LIG d   1      -0.487  82.508 111.283  0.00  0.00    -0.047 C 
ATOM      6  C   LIG d   1       0.802  82.559 110.431  0.00  0.00     0.091 C 
ENDROOT
BRANCH   1   7
ATOM      7  O   LIG d   1       2.288  84.110 109.250  0.00  0.00    -0.368 OA
BRANCH   7   8
ATOM      8  C   LIG d   1       3.309  83.761 110.217  0.00  0.00     0.119 C 
BRANCH   8   9
ATOM      9  C   LIG d   1       3.893  85.076 110.768  0.00  0.00     0.028 C 
ATOM     10  C   LIG d   1       3.478  85.336 112.227  0.00  0.00     0.006 C 
ENDBRANCH   8   9
BRANCH   8  11
ATOM     11  C   LIG d   1       4.486  83.044 109.549  0.00  0.00     0.028 C 
ATOM     12  C   LIG d   1       4.090  82.337 108.243  0.00  0.00     0.006 C 
ENDBRANCH   8  11
ENDBRANCH   7   8
ENDBRANCH   1   7
BRANCH   6  13
ATOM     13  N   LIG d   1       0.867  81.458 109.434  0.00  0.00    -0.311 N 
ATOM     14  C   LIG d   1       1.527  80.320 109.641  0.00  0.00     0.210 C 
ATOM     15  C   LIG d   1       1.483  79.326 108.476  0.00  0.00     0.109 C 
ATOM     16  O   LIG d   1       2.117  80.026 110.691  0.00  0.00    -0.276 OA
ATOM     17  H   LIG d   1       0.389  81.600 108.566  0.00  0.00     0.149 HD
ENDBRANCH   6  13
BRANCH   5  18
ATOM     18  N   LIG d   1      -0.578  81.298 112.121  0.00  0.00     0.381 N 
ATOM     19  H   LIG d   1       0.339  81.009 112.399  0.00  0.00    -0.090 HD
ATOM     20  H   LIG d   1      -0.991  80.558 111.581  0.00  0.00    -0.090 HD
ATOM     21  H   LIG d   1      -1.134  81.482 112.927  0.00  0.00    -0.090 HD
ENDBRANCH   5  18
BRANCH   3  22
ATOM     22  C   LIG d   1      -0.898  86.076 112.068  0.00  0.00     0.382 C 
ATOM     23  O   LIG d   1      -0.732  86.375 113.275  0.00  0.00    -0.241 OA
ATOM     24  O   LIG d   1      -1.631  86.787 111.355  0.00  0.00    -0.241 OA
ENDBRANCH   3  22
TORSDOF 7
ENDMDL
MODEL 2
REMARK VINA RESULT:      -6.5      2.507      4.825
REMARK  7 active torsions:
REMARK  status: ('A' for Active; 'I' for Inactive)
REMARK    1  A    between atoms: C_2  and  C_3 
REMARK    2  A    between atoms: C_3  and  O_6 
REMARK    3  A    between atoms: C_3  and  C_4 
REMARK    4  A    between atoms: C_7  and  O_6 
REMARK    5  A    between atoms: C_9  and  C_10 
REMARK    6  A    between atoms: N_15  and  C_14 
REMARK    7  A    between atoms: N_20  and  C_19 
REMARK       I    between atoms: C_22  and  N_20 
ROOT
ATOM      1  C   LIG d   1       1.608  81.107 111.841  0.00  0.00     0.161 C 
ATOM      2  C   LIG d   1       2.619  81.798 111.153  0.00  0.00     0.016 C 
ATOM      3  C   LIG d   1       2.717  81.832 109.743  0.00  0.00     0.038 C 
ATOM      4  C   LIG d   1       1.717  81.298 108.917  0.00  0.00     0.028 C 
ATOM      5  C   LIG d   1       0.943  80.155 109.565  0.00  0.00    -0.047 C 
ATOM      6  C   LIG d   1       0.446  80.611 110.956  0.00  0.00     0.091 C 
ENDROOT
BRANCH   1   7
ATOM      7  O   LIG d   1       1.105  81.921 112.919  0.00  0.00    -0.368 OA
BRANCH   7   8
ATOM      8  C   LIG d   1       1.062  83.348 112.672  0.00  0.00     0.119 C 
BRANCH   8   9
ATOM      9  C   LIG d   1       1.445  84.056 113.986  0.00  0.00     0.028 C 
ATOM     10  C   LIG d   1       1.106  85.556 113.965  0.00  0.00     0.006 C 
ENDBRANCH   8   9
BRANCH   8  11
ATOM     11  C   LIG d   1      -0.362  83.817 112.360  0.00  0.00     0.028 C 
ATOM     12  C   LIG d   1      -0.588  84.078 110.862  0.00  0.00     0.006 C 
ENDBRANCH   8  11
ENDBRANCH   7   8
ENDBRANCH   1   7
BRANCH   6  13
ATOM     13  N   LIG d   1      -0.249  79.524 111.693  0.00  0.00    -0.311 N 
ATOM     14  C   LIG d   1      -1.399  79.698 112.344  0.00  0.00     0.210 C 
ATOM     15  C   LIG d   1      -1.934  78.452 113.055  0.00  0.00     0.109 C 
ATOM     16  O   LIG d   1      -2.041  80.758 112.373  0.00  0.00    -0.276 OA
ATOM     17  H   LIG d   1       0.187  78.623 111.696  0.00  0.00     0.149 HD
ENDBRANCH   6  13
BRANCH   5  18
ATOM     18  N   LIG d   1      -0.154  79.786 108.651  0.00  0.00     0.381 N 
ATOM     19  H   LIG d   1      -0.193  78.791 108.553  0.00  0.00    -0.090 HD
ATOM     20  H   LIG d   1       0.027  80.185 107.747  0.00  0.00    -0.090 HD
ATOM     21  H   LIG d   1      -1.022  80.126 109.004  0.00  0.00    -0.090 HD
ENDBRANCH   5  18
BRANCH   3  22
ATOM     22  C   LIG d   1       3.846  82.372 109.146  0.00  0.00     0.382 C 
ATOM     23  O   LIG d   1       4.413  83.366 109.659  0.00  0.00    -0.241 OA
ATOM     24  O   LIG d   1       4.280  81.903 108.076  0.00  0.00    -0.241 OA
ENDBRANCH   3  22
TORSDOF 7
ENDMDL
MODEL 3
REMARK VINA RESULT:      -6.2      1.754      2.910
REMARK  7 active torsions:
REMARK  status: ('A' for Active; 'I' for Inactive)
REMARK    1  A    between atoms: C_2  and  C_3 
REMARK    2  A    between atoms: C_3  and  O_6 
REMARK    3  A    between atoms: C_3  and  C_4 
REMARK    4  A    between atoms: C_7  and  O_6 
REMARK    5  A    between atoms: C_9  and  C_10 
REMARK    6  A    between atoms: N_15  and  C_14 
REMARK    7  A    between atoms: N_20  and  C_19 
REMARK       I    between atoms: C_22  and  N_20 
ROOT
ATOM      1  C   LIG d   1       1.999  85.654 110.476  0.00  0.00     0.161 C 
ATOM      2  C   LIG d   1       0.961  86.337 111.131  0.00  0.00     0.016 C 
ATOM      3  C   LIG d   1      -0.269  85.734 111.480  0.00  0.00     0.038 C 
ATOM      4  C   LIG d   1      -0.488  84.356 111.332  0.00  0.00     0.028 C 
ATOM      5  C   LIG d   1       0.339  83.728 110.215  0.00  0.00    -0.047 C 
ATOM      6  C   LIG d   1       1.822  84.123 110.406  0.00  0.00     0.091 C 
ENDROOT
BRANCH   1   7
ATOM      7  O   LIG d   1       3.262  85.985 111.085  0.00  0.00    -0.368 OA
BRANCH   7   8
ATOM      8  C   LIG d   1       3.200  86.534 112.425  0.00  0.00     0.119 C 
BRANCH   8   9
ATOM      9  C   LIG d   1       4.280  87.628 112.528  0.00  0.00     0.028 C 
ATOM     10  C   LIG d   1       4.026  88.595 113.697  0.00  0.00     0.006 C 
ENDBRANCH   8   9
BRANCH   8  11
ATOM     11  C   LIG d   1       3.582  85.486 113.475  0.00  0.00     0.028 C 
ATOM     12  C   LIG d   1       2.362  84.901 114.204  0.00  0.00     0.006 C 
ENDBRANCH   8  11
ENDBRANCH   7   8
ENDBRANCH   1   7
BRANCH   6  13
ATOM     13  N   LIG d   1       2.688  83.620 109.308  0.00  0.00    -0.311 N 
ATOM     14  C   LIG d   1       3.369  82.477 109.377  0.00  0.00     0.210 C 
ATOM     15  C   LIG d   1       4.217  82.155 108.143  0.00  0.00     0.109 C 
ATOM     16  O   LIG d   1       3.327  81.684 110.330  0.00  0.00    -0.276 OA
ATOM     17  H   LIG d   1       2.756  84.185 108.485  0.00  0.00     0.149 HD
ENDBRANCH   6  13
BRANCH   5  18
ATOM     18  N   LIG d   1       0.118  82.271 110.262  0.00  0.00     0.381 N 
ATOM     19  H   LIG d   1       0.940  81.814 110.603  0.00  0.00    -0.090 HD
ATOM     20  H   LIG d   1      -0.063  81.939 109.330  0.00  0.00    -0.090 HD
ATOM     21  H   LIG d   1      -0.656  82.062 110.853  0.00  0.00    -0.090 HD
ENDBRANCH   5  18
BRANCH   3  22
ATOM     22  C   LIG d   1      -1.312  86.519 111.948  0.00  0.00     0.382 C 
ATOM     23  O   LIG d   1      -1.680  86.426 113.143  0.00  0.00    -0.241 OA
ATOM     24  O   LIG d   1      -1.918  87.288 111.177  0.00  0.00    -0.241 OA
ENDBRANCH   3  22
TORSDOF 7
ENDMDL
MODEL 4
REMARK VINA RESULT:      -6.1      2.449      3.808
REMARK  7 active torsions:
REMARK  status: ('A' for Active; 'I' for Inactive)
REMARK    1  A    between atoms: C_2  and  C_3 
REMARK    2  A    between atoms: C_3  and  O_6 
REMARK    3  A    between atoms: C_3  and  C_4 
REMARK    4  A    between atoms: C_7  and  O_6 
REMARK    5  A    between atoms: C_9  and  C_10 
REMARK    6  A    between atoms: N_15  and  C_14 
REMARK    7  A    between atoms: N_20  and  C_19 
REMARK       I    between atoms: C_22  and  N_20 
ROOT
ATOM      1  C   LIG d   1       0.275  82.606 111.189  0.00  0.00     0.161 C 
ATOM      2  C   LIG d   1      -0.863  82.230 111.922  0.00  0.00     0.016 C 
ATOM      3  C   LIG d   1      -1.287  80.889 112.068  0.00  0.00     0.038 C 
ATOM      4  C   LIG d   1      -0.511  79.813 111.613  0.00  0.00     0.028 C 
ATOM      5  C   LIG d   1       0.384  80.168 110.431  0.00  0.00    -0.047 C 
ATOM      6  C   LIG d   1       1.196  81.437 110.780  0.00  0.00     0.091 C 
ENDROOT
BRANCH   1   7
ATOM      7  O   LIG d   1       1.022  83.599 111.920  0.00  0.00    -0.368 OA
BRANCH   7   8
ATOM      8  C   LIG d   1       1.028  84.934 111.358  0.00  0.00     0.119 C 
BRANCH   8   9
ATOM      9  C   LIG d   1       0.094  84.924 110.132  0.00  0.00     0.028 C 
ATOM     10  C   LIG d   1       0.795  85.423 108.857  0.00  0.00     0.006 C 
ENDBRANCH   8   9
BRANCH   8  11
ATOM     11  C   LIG d   1       2.410  85.303 110.812  0.00  0.00     0.028 C 
ATOM     12  C   LIG d   1       3.554  84.617 111.575  0.00  0.00     0.006 C 
ENDBRANCH   8  11
ENDBRANCH   7   8
ENDBRANCH   1   7
BRANCH   6  13
ATOM     13  N   LIG d   1       2.036  81.902 109.645  0.00  0.00    -0.311 N 
ATOM     14  C   LIG d   1       3.310  81.551 109.485  0.00  0.00     0.210 C 
ATOM     15  C   LIG d   1       3.999  82.158 108.259  0.00  0.00     0.109 C 
ATOM     16  O   LIG d   1       3.927  80.768 110.224  0.00  0.00    -0.276 OA
ATOM     17  H   LIG d   1       1.606  82.515 108.981  0.00  0.00     0.149 HD
ENDBRANCH   6  13
BRANCH   5  18
ATOM     18  N   LIG d   1       1.235  78.997 110.149  0.00  0.00     0.381 N 
ATOM     19  H   LIG d   1       1.237  78.808 109.166  0.00  0.00    -0.090 HD
ATOM     20  H   LIG d   1       0.855  78.197 110.624  0.00  0.00    -0.090 HD
ATOM     21  H   LIG d   1       2.165  79.168 110.463  0.00  0.00    -0.090 HD
ENDBRANCH   5  18
BRANCH   3  22
ATOM     22  C   LIG d   1      -2.520  80.617 112.640  0.00  0.00     0.382 C 
ATOM     23  O   LIG d   1      -2.690  79.557 113.288  0.00  0.00    -0.241 OA
ATOM     24  O   LIG d   1      -3.478  81.398 112.479  0.00  0.00    -0.241 OA
ENDBRANCH   3  22
TORSDOF 7
ENDMDL
MODEL 5
REMARK VINA RESULT:      -5.9      2.359      3.490
REMARK  7 active torsions:
REMARK  status: ('A' for Active; 'I' for Inactive)
REMARK    1  A    between atoms: C_2  and  C_3 
REMARK    2  A    between atoms: C_3  and  O_6 
REMARK    3  A    between atoms: C_3  and  C_4 
REMARK    4  A    between atoms: C_7  and  O_6 
REMARK    5  A    between atoms: C_9  and  C_10 
REMARK    6  A    between atoms: N_15  and  C_14 
REMARK    7  A    between atoms: N_20  and  C_19 
REMARK       I    between atoms: C_22  and  N_20 
ROOT
ATOM      1  C   LIG d   1       2.769  83.816 110.551  0.00  0.00     0.161 C 
ATOM      2  C   LIG d   1       3.323  85.097 110.715  0.00  0.00     0.016 C 
ATOM      3  C   LIG d   1       3.126  85.887 111.871  0.00  0.00     0.038 C 
ATOM      4  C   LIG d   1       2.483  85.385 113.012  0.00  0.00     0.028 C 
ATOM      5  C   LIG d   1       1.474  84.284 112.703  0.00  0.00    -0.047 C 
ATOM      6  C   LIG d   1       2.158  83.207 111.830  0.00  0.00     0.091 C 
ENDROOT
BRANCH   1   7
ATOM      7  O   LIG d   1       3.756  82.925 109.995  0.00  0.00    -0.368 OA
BRANCH   7   8
ATOM      8  C   LIG d   1       3.638  82.647 108.578  0.00  0.00     0.119 C 
BRANCH   8   9
ATOM      9  C   LIG d   1       2.139  82.696 108.221  0.00  0.00     0.028 C 
ATOM     10  C   LIG d   1       1.883  83.353 106.854  0.00  0.00     0.006 C 
ENDBRANCH   8   9
BRANCH   8  11
ATOM     11  C   LIG d   1       4.086  81.220 108.250  0.00  0.00     0.028 C 
ATOM     12  C   LIG d   1       3.390  80.162 109.121  0.00  0.00     0.006 C 
ENDBRANCH   8  11
ENDBRANCH   7   8
ENDBRANCH   1   7
BRANCH   6  13
ATOM     13  N   LIG d   1       1.217  82.135 111.413  0.00  0.00    -0.311 N 
ATOM     14  C   LIG d   1       0.911  81.089 112.179  0.00  0.00     0.210 C 
ATOM     15  C   LIG d   1      -0.064  80.090 111.549  0.00  0.00     0.109 C 
ATOM     16  O   LIG d   1       1.330  80.911 113.333  0.00  0.00    -0.276 OA
ATOM     17  H   LIG d   1       0.807  82.216 110.503  0.00  0.00     0.149 HD
ENDBRANCH   6  13
BRANCH   5  18
ATOM     18  N   LIG d   1       0.981  83.758 113.990  0.00  0.00     0.381 N 
ATOM     19  H   LIG d   1       1.589  83.033 114.315  0.00  0.00    -0.090 HD
ATOM     20  H   LIG d   1       0.067  83.365 113.852  0.00  0.00    -0.090 HD
ATOM     21  H   LIG d   1       0.938  84.491 114.664  0.00  0.00    -0.090 HD
ENDBRANCH   5  18
BRANCH   3  22
ATOM     22  C   LIG d   1       3.541  87.210 111.877  0.00  0.00     0.382 C 
ATOM     23  O   LIG d   1       2.724  88.123 112.148  0.00  0.00    -0.241 OA
ATOM     24  O   LIG d   1       4.712  87.507 111.571  0.00  0.00    -0.241 OA
ENDBRANCH   3  22
TORSDOF 7
ENDMDL
MODEL 6
REMARK VINA RESULT:      -5.7      2.156      5.496
REMARK  7 active torsions:
REMARK  status: ('A' for Active; 'I' for Inactive)
REMARK    1  A    between atoms: C_2  and  C_3 
REMARK    2  A    between atoms: C_3  and  O_6 
REMARK    3  A    between atoms: C_3  and  C_4 
REMARK    4  A    between atoms: C_7  and  O_6 
REMARK    5  A    between atoms: C_9  and  C_10 
REMARK    6  A    between atoms: N_15  and  C_14 
REMARK    7  A    between atoms: N_20  and  C_19 
REMARK       I    between atoms: C_22  and  N_20 
ROOT
ATOM      1  C   LIG d   1       3.216  83.266 110.853  0.00  0.00     0.161 C 
ATOM      2  C   LIG d   1       3.619  82.205 110.025  0.00  0.00     0.016 C 
ATOM      3  C   LIG d   1       3.212  80.865 110.223  0.00  0.00     0.038 C 
ATOM      4  C   LIG d   1       2.247  80.518 111.181  0.00  0.00     0.028 C 
ATOM      5  C   LIG d   1       2.196  81.477 112.365  0.00  0.00    -0.047 C 
ATOM      6  C   LIG d   1       2.076  82.924 111.834  0.00  0.00     0.091 C 
ENDROOT
BRANCH   1   7
ATOM      7  O   LIG d   1       2.858  84.406 110.046  0.00  0.00    -0.368 OA
BRANCH   7   8
ATOM      8  C   LIG d   1       1.472  84.484 109.633  0.00  0.00     0.119 C 
BRANCH   8   9
ATOM      9  C   LIG d   1       1.449  84.509 108.092  0.00  0.00     0.028 C 
ATOM     10  C   LIG d   1       1.829  83.151 107.477  0.00  0.00     0.006 C 
ENDBRANCH   8   9
BRANCH   8  11
ATOM     11  C   LIG d   1       0.833  85.805 110.070  0.00  0.00     0.028 C 
ATOM     12  C   LIG d   1      -0.702  85.742 110.107  0.00  0.00     0.006 C 
ENDBRANCH   8  11
ENDBRANCH   7   8
ENDBRANCH   1   7
BRANCH   6  13
ATOM     13  N   LIG d   1       2.105  83.932 112.926  0.00  0.00    -0.311 N 
ATOM     14  C   LIG d   1       1.007  84.449 113.475  0.00  0.00     0.210 C 
ATOM     15  C   LIG d   1       1.261  85.488 114.572  0.00  0.00     0.109 C 
ATOM     16  O   LIG d   1      -0.152  84.122 113.180  0.00  0.00    -0.276 OA
ATOM     17  H   LIG d   1       3.005  84.231 113.247  0.00  0.00     0.149 HD
ENDBRANCH   6  13
BRANCH   5  18
ATOM     18  N   LIG d   1       1.058  81.076 113.214  0.00  0.00     0.381 N 
ATOM     19  H   LIG d   1       0.770  81.849 113.781  0.00  0.00    -0.090 HD
ATOM     20  H   LIG d   1       1.352  80.332 113.822  0.00  0.00    -0.090 HD
ATOM     21  H   LIG d   1       0.299  80.771 112.646  0.00  0.00    -0.090 HD
ENDBRANCH   5  18
BRANCH   3  22
ATOM     22  C   LIG d   1       3.802  79.851 109.485  0.00  0.00     0.382 C 
ATOM     23  O   LIG d   1       3.537  78.652 109.743  0.00  0.00    -0.241 OA
ATOM     24  O   LIG d   1       4.630  80.118 108.594  0.00  0.00    -0.241 OA
ENDBRANCH   3  22
TORSDOF 7
ENDMDL
MODEL 7
REMARK VINA RESULT:      -5.5      2.190      2.921
REMARK  7 active torsions:
REMARK  status: ('A' for Active; 'I' for Inactive)
REMARK    1  A    between atoms: C_2  and  C_3 
REMARK    2  A    between atoms: C_3  and  O_6 
REMARK    3  A    between atoms: C_3  and  C_4 
REMARK    4  A    between atoms: C_7  and  O_6 
REMARK    5  A    between atoms: C_9  and  C_10 
REMARK    6  A    between atoms: N_15  and  C_14 
REMARK    7  A    between atoms: N_20  and  C_19 
REMARK       I    between atoms: C_22  and  N_20 
ROOT
ATOM      1  C   LIG d   1       0.857  82.761 110.589  0.00  0.00     0.161 C 
ATOM      2  C   LIG d   1       1.010  84.140 110.367  0.00  0.00     0.016 C 
ATOM      3  C   LIG d   1       1.315  85.065 111.392  0.00  0.00     0.038 C 
ATOM      4  C   LIG d   1       1.641  84.650 112.692  0.00  0.00     0.028 C 
ATOM      5  C   LIG d   1       1.007  83.318 113.079  0.00  0.00    -0.047 C 
ATOM      6  C   LIG d   1       1.318  82.276 111.980  0.00  0.00     0.091 C 
ENDROOT
BRANCH   1   7
ATOM      7  O   LIG d   1       1.532  82.022 109.552  0.00  0.00    -0.368 OA
BRANCH   7   8
ATOM      8  C   LIG d   1       2.844  81.507 109.886  0.00  0.00     0.119 C 
BRANCH   8   9
ATOM      9  C   LIG d   1       3.869  82.243 109.001  0.00  0.00     0.028 C 
ATOM     10  C   LIG d   1       4.544  83.414 109.735  0.00  0.00     0.006 C 
ENDBRANCH   8   9
BRANCH   8  11
ATOM     11  C   LIG d   1       2.974  80.028 109.513  0.00  0.00     0.028 C 
ATOM     12  C   LIG d   1       4.353  79.679 108.931  0.00  0.00     0.006 C 
ENDBRANCH   8  11
ENDBRANCH   7   8
ENDBRANCH   1   7
BRANCH   6  13
ATOM     13  N   LIG d   1       0.663  80.967 112.238  0.00  0.00    -0.311 N 
ATOM     14  C   LIG d   1      -0.658  80.797 112.252  0.00  0.00     0.210 C 
ATOM     15  C   LIG d   1      -1.123  79.371 112.559  0.00  0.00     0.109 C 
ATOM     16  O   LIG d   1      -1.487  81.686 112.008  0.00  0.00    -0.276 OA
ATOM     17  H   LIG d   1       1.263  80.185 112.416  0.00  0.00     0.149 HD
ENDBRANCH   6  13
BRANCH   5  18
ATOM     18  N   LIG d   1       1.538  82.939 114.402  0.00  0.00     0.381 N 
ATOM     19  H   LIG d   1       1.647  81.946 114.451  0.00  0.00    -0.090 HD
ATOM     20  H   LIG d   1       0.881  83.220 115.108  0.00  0.00    -0.090 HD
ATOM     21  H   LIG d   1       2.415  83.385 114.557  0.00  0.00    -0.090 HD
ENDBRANCH   5  18
BRANCH   3  22
ATOM     22  C   LIG d   1       1.259  86.425 111.130  0.00  0.00     0.382 C 
ATOM     23  O   LIG d   1       2.269  87.020 110.684  0.00  0.00    -0.241 OA
ATOM     24  O   LIG d   1       0.224  87.073 111.375  0.00  0.00    -0.241 OA
ENDBRANCH   3  22
TORSDOF 7
ENDMDL
MODEL 8
REMARK VINA RESULT:      -5.4      3.080      4.260
REMARK  7 active torsions:
REMARK  status: ('A' for Active; 'I' for Inactive)
REMARK    1  A    between atoms: C_2  and  C_3 
REMARK    2  A    between atoms: C_3  and  O_6 
REMARK    3  A    between atoms: C_3  and  C_4 
REMARK    4  A    between atoms: C_7  and  O_6 
REMARK    5  A    between atoms: C_9  and  C_10 
REMARK    6  A    between atoms: N_15  and  C_14 
REMARK    7  A    between atoms: N_20  and  C_19 
REMARK       I    between atoms: C_22  and  N_20 
ROOT
ATOM      1  C   LIG d   1       3.448  84.421 111.672  0.00  0.00     0.161 C 
ATOM      2  C   LIG d   1       3.814  85.645 112.256  0.00  0.00     0.016 C 
ATOM      3  C   LIG d   1       3.159  86.867 111.977  0.00  0.00     0.038 C 
ATOM      4  C   LIG d   1       1.988  86.922 111.206  0.00  0.00     0.028 C 
ATOM      5  C   LIG d   1       1.880  85.790 110.189  0.00  0.00    -0.047 C 
ATOM      6  C   LIG d   1       2.105  84.442 110.913  0.00  0.00     0.091 C 
ENDROOT
BRANCH   1   7
ATOM      7  O   LIG d   1       3.442  83.385 112.673  0.00  0.00    -0.368 OA
BRANCH   7   8
ATOM      8  C   LIG d   1       2.230  83.263 113.458  0.00  0.00     0.119 C 
BRANCH   8   9
ATOM      9  C   LIG d   1       2.472  83.986 114.797  0.00  0.00     0.028 C 
ATOM     10  C   LIG d   1       1.517  85.173 115.004  0.00  0.00     0.006 C 
ENDBRANCH   8   9
BRANCH   8  11
ATOM     11  C   LIG d   1       1.950  81.804 113.829  0.00  0.00     0.028 C 
ATOM     12  C   LIG d   1       2.298  81.484 115.291  0.00  0.00     0.006 C 
ENDBRANCH   8  11
ENDBRANCH   7   8
ENDBRANCH   1   7
BRANCH   6  13
ATOM     13  N   LIG d   1       2.098  83.288 109.977  0.00  0.00    -0.311 N 
ATOM     14  C   LIG d   1       1.129  82.375 109.945  0.00  0.00     0.210 C 
ATOM     15  C   LIG d   1       1.328  81.256 108.918  0.00  0.00     0.109 C 
ATOM     16  O   LIG d   1       0.108  82.403 110.648  0.00  0.00    -0.276 OA
ATOM     17  H   LIG d   1       2.874  83.205 109.350  0.00  0.00     0.149 HD
ENDBRANCH   6  13
BRANCH   5  18
ATOM     18  N   LIG d   1       0.553  85.889 109.552  0.00  0.00     0.381 N 
ATOM     19  H   LIG d   1       0.517  86.702 108.970  0.00  0.00    -0.090 HD
ATOM     20  H   LIG d   1      -0.145  85.983 110.268  0.00  0.00    -0.090 HD
ATOM     21  H   LIG d   1       0.374  85.074 109.008  0.00  0.00    -0.090 HD
ENDBRANCH   5  18
BRANCH   3  22
ATOM     22  C   LIG d   1       3.698  88.057 112.441  0.00  0.00     0.382 C 
ATOM     23  O   LIG d   1       2.941  88.968 112.857  0.00  0.00    -0.241 OA
ATOM     24  O   LIG d   1       4.928  88.249 112.408  0.00  0.00    -0.241 OA
ENDBRANCH   3  22
TORSDOF 7
ENDMDL
MODEL 9
REMARK VINA RESULT:      -5.3      2.802      4.386
REMARK  7 active torsions:
REMARK  status: ('A' for Active; 'I' for Inactive)
REMARK    1  A    between atoms: C_2  and  C_3 
REMARK    2  A    between atoms: C_3  and  O_6 
REMARK    3  A    between atoms: C_3  and  C_4 
REMARK    4  A    between atoms: C_7  and  O_6 
REMARK    5  A    between atoms: C_9  and  C_10 
REMARK    6  A    between atoms: N_15  and  C_14 
REMARK    7  A    between atoms: N_20  and  C_19 
REMARK       I    between atoms: C_22  and  N_20 
ROOT
ATOM      1  C   LIG d   1       2.912  85.043 111.759  0.00  0.00     0.161 C 
ATOM      2  C   LIG d   1       3.594  86.269 111.827  0.00  0.00     0.016 C 
ATOM      3  C   LIG d   1       3.530  87.133 112.945  0.00  0.00     0.038 C 
ATOM      4  C   LIG d   1       2.897  86.757 114.138  0.00  0.00     0.028 C 
ATOM      5  C   LIG d   1       1.772  85.748 113.934  0.00  0.00    -0.047 C 
ATOM      6  C   LIG d   1       2.305  84.565 113.095  0.00  0.00     0.091 C 
ENDROOT
BRANCH   1   7
ATOM      7  O   LIG d   1       3.780  84.031 111.212  0.00  0.00    -0.368 OA
BRANCH   7   8
ATOM      8  C   LIG d   1       3.698  83.828 109.779  0.00  0.00     0.119 C 
BRANCH   8   9
ATOM      9  C   LIG d   1       2.220  83.985 109.373  0.00  0.00     0.028 C 
ATOM     10  C   LIG d   1       1.918  83.352 108.004  0.00  0.00     0.006 C 
ENDBRANCH   8   9
BRANCH   8  11
ATOM     11  C   LIG d   1       4.074  82.393 109.398  0.00  0.00     0.028 C 
ATOM     12  C   LIG d   1       3.705  81.371 110.486  0.00  0.00     0.006 C 
ENDBRANCH   8  11
ENDBRANCH   7   8
ENDBRANCH   1   7
BRANCH   6  13
ATOM     13  N   LIG d   1       1.246  83.572 112.778  0.00  0.00    -0.311 N 
ATOM     14  C   LIG d   1       0.079  83.896 112.224  0.00  0.00     0.210 C 
ATOM     15  C   LIG d   1      -0.879  82.722 111.999  0.00  0.00     0.109 C 
ATOM     16  O   LIG d   1      -0.241  85.040 111.867  0.00  0.00    -0.276 OA
ATOM     17  H   LIG d   1       1.435  82.615 113.005  0.00  0.00     0.149 HD
ENDBRANCH   6  13
BRANCH   5  18
ATOM     18  N   LIG d   1       1.292  85.340 115.268  0.00  0.00     0.381 N 
ATOM     19  H   LIG d   1       0.370  84.958 115.195  0.00  0.00    -0.090 HD
ATOM     20  H   LIG d   1       1.250  86.151 115.861  0.00  0.00    -0.090 HD
ATOM     21  H   LIG d   1       1.909  84.664 115.661  0.00  0.00    -0.090 HD
ENDBRANCH   5  18
BRANCH   3  22
ATOM     22  C   LIG d   1       4.072  88.407 112.860  0.00  0.00     0.382 C 
ATOM     23  O   LIG d   1       5.279  88.556 112.549  0.00  0.00    -0.241 OA
ATOM     24  O   LIG d   1       3.381  89.407 113.133  0.00  0.00    -0.241 OA
ENDBRANCH   3  22
TORSDOF 7
ENDMDL
