MODEL 1
REMARK VINA RESULT:      -6.8      0.000      0.000
REMARK  7 active torsions:
REMARK  status: ('A' for Active; 'I' for Inactive)
REMARK    1  A    between atoms: C_2  and  C_3 
REMARK    2  A    between atoms: C_3  and  O_6 
REMARK    3  A    between atoms: C_3  and  C_4 
REMARK    4  A    between atoms: C_7  and  O_6 
REMARK    5  A    between atoms: C_9  and  C_10 
REMARK    6  A    between atoms: N_15  and  C_14 
REMARK    7  A    between atoms: N_20  and  C_19 
REMARK       I    between atoms: C_22  and  N_20 
ROOT
ATOM      1  C   LIG d   1       0.053  82.339 111.036  0.00  0.00     0.161 C 
ATOM      2  C   LIG d   1      -1.056  81.942 111.802  0.00  0.00     0.016 C 
ATOM      3  C   LIG d   1      -1.535  80.613 111.846  0.00  0.00     0.038 C 
ATOM      4  C   LIG d   1      -0.841  79.554 111.241  0.00  0.00     0.028 C 
ATOM      5  C   LIG d   1      -0.003  79.986 110.042  0.00  0.00    -0.047 C 
ATOM      6  C   LIG d   1       0.889  81.179 110.458  0.00  0.00     0.091 C 
ENDROOT
BRANCH   1   7
ATOM      7  O   LIG d   1       0.889  83.223 111.809  0.00  0.00    -0.368 OA
BRANCH   7   8
ATOM      8  C   LIG d   1       0.689  84.641 111.594  0.00  0.00     0.119 C 
BRANCH   8   9
ATOM      9  C   LIG d   1       0.285  84.834 110.120  0.00  0.00     0.028 C 
ATOM     10  C   LIG d   1      -0.826  85.883 109.947  0.00  0.00     0.006 C 
ENDBRANCH   8   9
BRANCH   8  11
ATOM     11  C   LIG d   1       1.996  85.421 111.762  0.00  0.00     0.028 C 
ATOM     12  C   LIG d   1       2.822  85.485 110.467  0.00  0.00     0.006 C 
ENDBRANCH   8  11
ENDBRANCH   7   8
ENDBRANCH   1   7
BRANCH   6  13
ATOM     13  N   LIG d   1       1.680  81.717 109.321  0.00  0.00    -0.311 N 
ATOM     14  C   LIG d   1       2.984  81.978 109.394  0.00  0.00     0.210 C 
ATOM     15  C   LIG d   1       3.603  82.548 108.113  0.00  0.00     0.109 C 
ATOM     16  O   LIG d   1       3.694  81.763 110.388  0.00  0.00    -0.276 OA
ATOM     17  H   LIG d   1       1.189  81.893 108.466  0.00  0.00     0.149 HD
ENDBRANCH   6  13
BRANCH   5  18
ATOM     18  N   LIG d   1       0.772  78.813 109.595  0.00  0.00     0.381 N 
ATOM     19  H   LIG d   1       1.176  78.997 108.698  0.00  0.00    -0.090 HD
ATOM     20  H   LIG d   1       0.151  78.028 109.506  0.00  0.00    -0.090 HD
ATOM     21  H   LIG d   1       1.489  78.606 110.254  0.00  0.00    -0.090 HD
ENDBRANCH   5  18
BRANCH   3  22
ATOM     22  C   LIG d   1      -2.743  80.338 112.468  0.00  0.00     0.382 C 
ATOM     23  O   LIG d   1      -3.095  79.149 112.658  0.00  0.00    -0.241 OA
ATOM     24  O   LIG d   1      -3.507  81.264 112.802  0.00  0.00    -0.241 OA
ENDBRANCH   3  22
TORSDOF 7
ENDMDL
MODEL 2
REMARK VINA RESULT:      -6.8      1.517      4.965
REMARK  7 active torsions:
REMARK  status: ('A' for Active; 'I' for Inactive)
REMARK    1  A    between atoms: C_2  and  C_3 
REMARK    2  A    between atoms: C_3  and  O_6 
REMARK    3  A    between atoms: C_3  and  C_4 
REMARK    4  A    between atoms: C_7  and  O_6 
REMARK    5  A    between atoms: C_9  and  C_10 
REMARK    6  A    between atoms: N_15  and  C_14 
REMARK    7  A    between atoms: N_20  and  C_19 
REMARK       I    between atoms: C_22  and  N_20 
ROOT
ATOM      1  C   LIG d   1       1.399  81.527 111.546  0.00  0.00     0.161 C 
ATOM      2  C   LIG d   1       2.440  82.062 110.769  0.00  0.00     0.016 C 
ATOM      3  C   LIG d   1       2.559  81.850 109.376  0.00  0.00     0.038 C 
ATOM      4  C   LIG d   1       1.554  81.209 108.635  0.00  0.00     0.028 C 
ATOM      5  C   LIG d   1       0.736  80.218 109.454  0.00  0.00    -0.047 C 
ATOM      6  C   LIG d   1       0.234  80.920 110.737  0.00  0.00     0.091 C 
ENDROOT
BRANCH   1   7
ATOM      7  O   LIG d   1       0.906  82.529 112.458  0.00  0.00    -0.368 OA
BRANCH   7   8
ATOM      8  C   LIG d   1       0.973  83.900 111.995  0.00  0.00     0.119 C 
BRANCH   8   9
ATOM      9  C   LIG d   1       1.466  84.763 113.173  0.00  0.00     0.028 C 
ATOM     10  C   LIG d   1       2.921  85.226 112.993  0.00  0.00     0.006 C 
ENDBRANCH   8   9
BRANCH   8  11
ATOM     11  C   LIG d   1      -0.418  84.441 111.651  0.00  0.00     0.028 C 
ATOM     12  C   LIG d   1      -0.496  85.025 110.231  0.00  0.00     0.006 C 
ENDBRANCH   8  11
ENDBRANCH   7   8
ENDBRANCH   1   7
BRANCH   6  13
ATOM     13  N   LIG d   1      -0.505  79.996 111.636  0.00  0.00    -0.311 N 
ATOM     14  C   LIG d   1      -1.646  80.320 112.243  0.00  0.00     0.210 C 
ATOM     15  C   LIG d   1      -2.232  79.228 113.143  0.00  0.00     0.109 C 
ATOM     16  O   LIG d   1      -2.244  81.396 112.095  0.00  0.00    -0.276 OA
ATOM     17  H   LIG d   1      -0.107  79.090 111.787  0.00  0.00     0.149 HD
ENDBRANCH   6  13
BRANCH   5  18
ATOM     18  N   LIG d   1      -0.359  79.728 108.597  0.00  0.00     0.381 N 
ATOM     19  H   LIG d   1      -0.031  79.618 107.658  0.00  0.00    -0.090 HD
ATOM     20  H   LIG d   1      -1.100  80.407 108.595  0.00  0.00    -0.090 HD
ATOM     21  H   LIG d   1      -0.699  78.857 108.942  0.00  0.00    -0.090 HD
ENDBRANCH   5  18
BRANCH   3  22
ATOM     22  C   LIG d   1       3.713  82.246 108.717  0.00  0.00     0.382 C 
ATOM     23  O   LIG d   1       4.771  82.433 109.363  0.00  0.00    -0.241 OA
ATOM     24  O   LIG d   1       3.697  82.461 107.490  0.00  0.00    -0.241 OA
ENDBRANCH   3  22
TORSDOF 7
ENDMDL
MODEL 3
REMARK VINA RESULT:      -6.7      2.868      6.325
REMARK  7 active torsions:
REMARK  status: ('A' for Active; 'I' for Inactive)
REMARK    1  A    between atoms: C_2  and  C_3 
REMARK    2  A    between atoms: C_3  and  O_6 
REMARK    3  A    between atoms: C_3  and  C_4 
REMARK    4  A    between atoms: C_7  and  O_6 
REMARK    5  A    between atoms: C_9  and  C_10 
REMARK    6  A    between atoms: N_15  and  C_14 
REMARK    7  A    between atoms: N_20  and  C_19 
REMARK       I    between atoms: C_22  and  N_20 
ROOT
ATOM      1  C   LIG d   1       3.027  84.534 110.600  0.00  0.00     0.161 C 
ATOM      2  C   LIG d   1       3.630  85.792 110.765  0.00  0.00     0.016 C 
ATOM      3  C   LIG d   1       3.515  86.561 111.946  0.00  0.00     0.038 C 
ATOM      4  C   LIG d   1       2.910  86.053 113.105  0.00  0.00     0.028 C 
ATOM      5  C   LIG d   1       1.852  84.993 112.822  0.00  0.00    -0.047 C 
ATOM      6  C   LIG d   1       2.457  83.915 111.893  0.00  0.00     0.091 C 
ENDROOT
BRANCH   1   7
ATOM      7  O   LIG d   1       3.957  83.625 109.977  0.00  0.00    -0.368 OA
BRANCH   7   8
ATOM      8  C   LIG d   1       3.669  83.260 108.605  0.00  0.00     0.119 C 
BRANCH   8   9
ATOM      9  C   LIG d   1       2.225  83.704 108.301  0.00  0.00     0.028 C 
ATOM     10  C   LIG d   1       1.840  83.481 106.829  0.00  0.00     0.006 C 
ENDBRANCH   8   9
BRANCH   8  11
ATOM     11  C   LIG d   1       3.673  81.739 108.420  0.00  0.00     0.028 C 
ATOM     12  C   LIG d   1       3.994  80.982 109.719  0.00  0.00     0.006 C 
ENDBRANCH   8  11
ENDBRANCH   7   8
ENDBRANCH   1   7
BRANCH   6  13
ATOM     13  N   LIG d   1       1.463  82.884 111.498  0.00  0.00    -0.311 N 
ATOM     14  C   LIG d   1       1.271  81.753 112.176  0.00  0.00     0.210 C 
ATOM     15  C   LIG d   1       0.211  80.818 111.585  0.00  0.00     0.109 C 
ATOM     16  O   LIG d   1       1.854  81.451 113.227  0.00  0.00    -0.276 OA
ATOM     17  H   LIG d   1       0.923  83.063 110.674  0.00  0.00     0.149 HD
ENDBRANCH   6  13
BRANCH   5  18
ATOM     18  N   LIG d   1       1.403  84.453 114.119  0.00  0.00     0.381 N 
ATOM     19  H   LIG d   1       1.711  85.051 114.859  0.00  0.00    -0.090 HD
ATOM     20  H   LIG d   1       1.816  83.547 114.254  0.00  0.00    -0.090 HD
ATOM     21  H   LIG d   1       0.410  84.379 114.133  0.00  0.00    -0.090 HD
ENDBRANCH   5  18
BRANCH   3  22
ATOM     22  C   LIG d   1       3.974  87.870 111.961  0.00  0.00     0.382 C 
ATOM     23  O   LIG d   1       3.155  88.821 111.960  0.00  0.00    -0.241 OA
ATOM     24  O   LIG d   1       5.195  88.111 111.931  0.00  0.00    -0.241 OA
ENDBRANCH   3  22
TORSDOF 7
ENDMDL
MODEL 4
REMARK VINA RESULT:      -6.3      2.170      3.882
REMARK  7 active torsions:
REMARK  status: ('A' for Active; 'I' for Inactive)
REMARK    1  A    between atoms: C_2  and  C_3 
REMARK    2  A    between atoms: C_3  and  O_6 
REMARK    3  A    between atoms: C_3  and  C_4 
REMARK    4  A    between atoms: C_7  and  O_6 
REMARK    5  A    between atoms: C_9  and  C_10 
REMARK    6  A    between atoms: N_15  and  C_14 
REMARK    7  A    between atoms: N_20  and  C_19 
REMARK       I    between atoms: C_22  and  N_20 
ROOT
ATOM      1  C   LIG d   1       1.961  82.078 111.437  0.00  0.00     0.161 C 
ATOM      2  C   LIG d   1       0.985  81.076 111.565  0.00  0.00     0.016 C 
ATOM      3  C   LIG d   1      -0.401  81.346 111.648  0.00  0.00     0.038 C 
ATOM      4  C   LIG d   1      -0.918  82.636 111.456  0.00  0.00     0.028 C 
ATOM      5  C   LIG d   1       0.063  83.743 111.828  0.00  0.00    -0.047 C 
ATOM      6  C   LIG d   1       1.409  83.482 111.114  0.00  0.00     0.091 C 
ENDROOT
BRANCH   1   7
ATOM      7  O   LIG d   1       2.938  81.685 110.452  0.00  0.00    -0.368 OA
BRANCH   7   8
ATOM      8  C   LIG d   1       2.547  81.849 109.066  0.00  0.00     0.119 C 
BRANCH   8   9
ATOM      9  C   LIG d   1       2.528  80.449 108.422  0.00  0.00     0.028 C 
ATOM     10  C   LIG d   1       1.099  79.935 108.179  0.00  0.00     0.006 C 
ENDBRANCH   8   9
BRANCH   8  11
ATOM     11  C   LIG d   1       3.597  82.642 108.282  0.00  0.00     0.028 C 
ATOM     12  C   LIG d   1       4.794  83.065 109.148  0.00  0.00     0.006 C 
ENDBRANCH   8  11
ENDBRANCH   7   8
ENDBRANCH   1   7
BRANCH   6  13
ATOM     13  N   LIG d   1       2.451  84.473 111.489  0.00  0.00    -0.311 N 
ATOM     14  C   LIG d   1       2.696  85.579 110.790  0.00  0.00     0.210 C 
ATOM     15  C   LIG d   1       3.827  86.454 111.340  0.00  0.00     0.109 C 
ATOM     16  O   LIG d   1       2.063  85.936 109.785  0.00  0.00    -0.276 OA
ATOM     17  H   LIG d   1       2.991  84.278 112.310  0.00  0.00     0.149 HD
ENDBRANCH   6  13
BRANCH   5  18
ATOM     18  N   LIG d   1      -0.553  85.029 111.450  0.00  0.00     0.381 N 
ATOM     19  H   LIG d   1      -1.075  84.919 110.604  0.00  0.00    -0.090 HD
ATOM     20  H   LIG d   1       0.175  85.702 111.286  0.00  0.00    -0.090 HD
ATOM     21  H   LIG d   1      -1.152  85.348 112.179  0.00  0.00    -0.090 HD
ENDBRANCH   5  18
BRANCH   3  22
ATOM     22  C   LIG d   1      -1.282  80.324 111.967  0.00  0.00     0.382 C 
ATOM     23  O   LIG d   1      -1.464  79.379 111.161  0.00  0.00    -0.241 OA
ATOM     24  O   LIG d   1      -1.931  80.357 113.029  0.00  0.00    -0.241 OA
ENDBRANCH   3  22
TORSDOF 7
ENDMDL
MODEL 5
REMARK VINA RESULT:      -5.6      2.908      4.310
REMARK  7 active torsions:
REMARK  status: ('A' for Active; 'I' for Inactive)
REMARK    1  A    between atoms: C_2  and  C_3 
REMARK    2  A    between atoms: C_3  and  O_6 
REMARK    3  A    between atoms: C_3  and  C_4 
REMARK    4  A    between atoms: C_7  and  O_6 
REMARK    5  A    between atoms: C_9  and  C_10 
REMARK    6  A    between atoms: N_15  and  C_14 
REMARK    7  A    between atoms: N_20  and  C_19 
REMARK       I    between atoms: C_22  and  N_20 
ROOT
ATOM      1  C   LIG d   1       2.021  83.126 110.605  0.00  0.00     0.161 C 
ATOM      2  C   LIG d   1       2.405  81.981 109.888  0.00  0.00     0.016 C 
ATOM      3  C   LIG d   1       1.658  80.780 109.880  0.00  0.00     0.038 C 
ATOM      4  C   LIG d   1       0.389  80.694 110.472  0.00  0.00     0.028 C 
ATOM      5  C   LIG d   1       0.193  81.665 111.631  0.00  0.00    -0.047 C 
ATOM      6  C   LIG d   1       0.584  83.086 111.166  0.00  0.00     0.091 C 
ENDROOT
BRANCH   1   7
ATOM      7  O   LIG d   1       2.208  84.299 109.788  0.00  0.00    -0.368 OA
BRANCH   7   8
ATOM      8  C   LIG d   1       1.105  84.651 108.917  0.00  0.00     0.119 C 
BRANCH   8   9
ATOM      9  C   LIG d   1       1.643  84.670 107.473  0.00  0.00     0.028 C 
ATOM     10  C   LIG d   1       1.799  83.257 106.886  0.00  0.00     0.006 C 
ENDBRANCH   8   9
BRANCH   8  11
ATOM     11  C   LIG d   1       0.616  86.078 109.186  0.00  0.00     0.028 C 
ATOM     12  C   LIG d   1      -0.838  86.125 109.682  0.00  0.00     0.006 C 
ENDBRANCH   8  11
ENDBRANCH   7   8
ENDBRANCH   1   7
BRANCH   6  13
ATOM     13  N   LIG d   1       0.503  84.085 112.264  0.00  0.00    -0.311 N 
ATOM     14  C   LIG d   1       1.456  84.247 113.180  0.00  0.00     0.210 C 
ATOM     15  C   LIG d   1       1.163  85.318 114.235  0.00  0.00     0.109 C 
ATOM     16  O   LIG d   1       2.531  83.629 113.199  0.00  0.00    -0.276 OA
ATOM     17  H   LIG d   1      -0.322  84.651 112.305  0.00  0.00     0.149 HD
ENDBRANCH   6  13
BRANCH   5  18
ATOM     18  N   LIG d   1      -1.213  81.565 112.064  0.00  0.00     0.381 N 
ATOM     19  H   LIG d   1      -1.441  80.611 112.259  0.00  0.00    -0.090 HD
ATOM     20  H   LIG d   1      -1.806  81.886 111.319  0.00  0.00    -0.090 HD
ATOM     21  H   LIG d   1      -1.360  82.121 112.878  0.00  0.00    -0.090 HD
ENDBRANCH   5  18
BRANCH   3  22
ATOM     22  C   LIG d   1       2.197  79.638 109.309  0.00  0.00     0.382 C 
ATOM     23  O   LIG d   1       3.355  79.268 109.621  0.00  0.00    -0.241 OA
ATOM     24  O   LIG d   1       1.559  78.998 108.452  0.00  0.00    -0.241 OA
ENDBRANCH   3  22
TORSDOF 7
ENDMDL
MODEL 6
REMARK VINA RESULT:      -5.5      2.584      4.602
REMARK  7 active torsions:
REMARK  status: ('A' for Active; 'I' for Inactive)
REMARK    1  A    between atoms: C_2  and  C_3 
REMARK    2  A    between atoms: C_3  and  O_6 
REMARK    3  A    between atoms: C_3  and  C_4 
REMARK    4  A    between atoms: C_7  and  O_6 
REMARK    5  A    between atoms: C_9  and  C_10 
REMARK    6  A    between atoms: N_15  and  C_14 
REMARK    7  A    between atoms: N_20  and  C_19 
REMARK       I    between atoms: C_22  and  N_20 
ROOT
ATOM      1  C   LIG d   1       2.387  83.507 110.804  0.00  0.00     0.161 C 
ATOM      2  C   LIG d   1       1.700  82.304 111.040  0.00  0.00     0.016 C 
ATOM      3  C   LIG d   1       0.298  82.227 111.204  0.00  0.00     0.038 C 
ATOM      4  C   LIG d   1      -0.535  83.336 110.991  0.00  0.00     0.028 C 
ATOM      5  C   LIG d   1       0.156  84.671 111.249  0.00  0.00    -0.047 C 
ATOM      6  C   LIG d   1       1.484  84.710 110.458  0.00  0.00     0.091 C 
ENDROOT
BRANCH   1   7
ATOM      7  O   LIG d   1       3.376  83.311 109.775  0.00  0.00    -0.368 OA
BRANCH   7   8
ATOM      8  C   LIG d   1       3.191  82.153 108.925  0.00  0.00     0.119 C 
BRANCH   8   9
ATOM      9  C   LIG d   1       4.429  81.251 109.096  0.00  0.00     0.028 C 
ATOM     10  C   LIG d   1       4.087  79.901 109.749  0.00  0.00     0.006 C 
ENDBRANCH   8   9
BRANCH   8  11
ATOM     11  C   LIG d   1       3.176  82.544 107.444  0.00  0.00     0.028 C 
ATOM     12  C   LIG d   1       1.911  83.320 107.046  0.00  0.00     0.006 C 
ENDBRANCH   8  11
ENDBRANCH   7   8
ENDBRANCH   1   7
BRANCH   6  13
ATOM     13  N   LIG d   1       2.263  85.948 110.721  0.00  0.00    -0.311 N 
ATOM     14  C   LIG d   1       2.896  86.186 111.868  0.00  0.00     0.210 C 
ATOM     15  C   LIG d   1       3.624  87.532 111.937  0.00  0.00     0.109 C 
ATOM     16  O   LIG d   1       2.950  85.397 112.823  0.00  0.00    -0.276 OA
ATOM     17  H   LIG d   1       2.298  86.629 109.987  0.00  0.00     0.149 HD
ENDBRANCH   6  13
BRANCH   5  18
ATOM     18  N   LIG d   1      -0.782  85.740 110.857  0.00  0.00     0.381 N 
ATOM     19  H   LIG d   1      -0.519  86.111 109.965  0.00  0.00    -0.090 HD
ATOM     20  H   LIG d   1      -0.731  86.481 111.534  0.00  0.00    -0.090 HD
ATOM     21  H   LIG d   1      -1.710  85.382 110.815  0.00  0.00    -0.090 HD
ENDBRANCH   5  18
BRANCH   3  22
ATOM     22  C   LIG d   1      -0.281  81.039 111.624  0.00  0.00     0.382 C 
ATOM     23  O   LIG d   1      -0.062  80.611 112.782  0.00  0.00    -0.241 OA
ATOM     24  O   LIG d   1      -0.983  80.369 110.844  0.00  0.00    -0.241 OA
ENDBRANCH   3  22
TORSDOF 7
ENDMDL
MODEL 7
REMARK VINA RESULT:      -5.5      2.991      6.028
REMARK  7 active torsions:
REMARK  status: ('A' for Active; 'I' for Inactive)
REMARK    1  A    between atoms: C_2  and  C_3 
REMARK    2  A    between atoms: C_3  and  O_6 
REMARK    3  A    between atoms: C_3  and  C_4 
REMARK    4  A    between atoms: C_7  and  O_6 
REMARK    5  A    between atoms: C_9  and  C_10 
REMARK    6  A    between atoms: N_15  and  C_14 
REMARK    7  A    between atoms: N_20  and  C_19 
REMARK       I    between atoms: C_22  and  N_20 
ROOT
ATOM      1  C   LIG d   1       3.082  84.283 110.727  0.00  0.00     0.161 C 
ATOM      2  C   LIG d   1       3.585  85.441 111.343  0.00  0.00     0.016 C 
ATOM      3  C   LIG d   1       3.066  86.735 111.108  0.00  0.00     0.038 C 
ATOM      4  C   LIG d   1       1.903  86.942 110.351  0.00  0.00     0.028 C 
ATOM      5  C   LIG d   1       1.663  85.860 109.303  0.00  0.00    -0.047 C 
ATOM      6  C   LIG d   1       1.743  84.475 109.985  0.00  0.00     0.091 C 
ENDROOT
BRANCH   1   7
ATOM      7  O   LIG d   1       2.970  83.223 111.697  0.00  0.00    -0.368 OA
BRANCH   7   8
ATOM      8  C   LIG d   1       1.668  83.057 112.311  0.00  0.00     0.119 C 
BRANCH   8   9
ATOM      9  C   LIG d   1       1.798  83.469 113.791  0.00  0.00     0.028 C 
ATOM     10  C   LIG d   1       1.500  84.961 114.012  0.00  0.00     0.006 C 
ENDBRANCH   8   9
BRANCH   8  11
ATOM     11  C   LIG d   1       1.247  81.584 112.336  0.00  0.00     0.028 C 
ATOM     12  C   LIG d   1      -0.015  81.311 111.503  0.00  0.00     0.006 C 
ENDBRANCH   8  11
ENDBRANCH   7   8
ENDBRANCH   1   7
BRANCH   6  13
ATOM     13  N   LIG d   1       1.602  83.358 109.015  0.00  0.00    -0.311 N 
ATOM     14  C   LIG d   1       2.626  82.842 108.337  0.00  0.00     0.210 C 
ATOM     15  C   LIG d   1       2.259  81.709 107.373  0.00  0.00     0.109 C 
ATOM     16  O   LIG d   1       3.809  83.194 108.465  0.00  0.00    -0.276 OA
ATOM     17  H   LIG d   1       0.682  82.991 108.872  0.00  0.00     0.149 HD
ENDBRANCH   6  13
BRANCH   5  18
ATOM     18  N   LIG d   1       0.350  86.125 108.684  0.00  0.00     0.381 N 
ATOM     19  H   LIG d   1      -0.233  85.316 108.768  0.00  0.00    -0.090 HD
ATOM     20  H   LIG d   1       0.485  86.316 107.707  0.00  0.00    -0.090 HD
ATOM     21  H   LIG d   1      -0.085  86.904 109.126  0.00  0.00    -0.090 HD
ENDBRANCH   5  18
BRANCH   3  22
ATOM     22  C   LIG d   1       3.737  87.844 111.601  0.00  0.00     0.382 C 
ATOM     23  O   LIG d   1       3.090  88.845 111.995  0.00  0.00    -0.241 OA
ATOM     24  O   LIG d   1       4.982  87.875 111.616  0.00  0.00    -0.241 OA
ENDBRANCH   3  22
TORSDOF 7
ENDMDL
MODEL 8
REMARK VINA RESULT:      -5.1      2.296      5.851
REMARK  7 active torsions:
REMARK  status: ('A' for Active; 'I' for Inactive)
REMARK    1  A    between atoms: C_2  and  C_3 
REMARK    2  A    between atoms: C_3  and  O_6 
REMARK    3  A    between atoms: C_3  and  C_4 
REMARK    4  A    between atoms: C_7  and  O_6 
REMARK    5  A    between atoms: C_9  and  C_10 
REMARK    6  A    between atoms: N_15  and  C_14 
REMARK    7  A    between atoms: N_20  and  C_19 
REMARK       I    between atoms: C_22  and  N_20 
ROOT
ATOM      1  C   LIG d   1       1.960  82.652 110.508  0.00  0.00     0.161 C 
ATOM      2  C   LIG d   1       2.693  83.850 110.475  0.00  0.00     0.016 C 
ATOM      3  C   LIG d   1       2.216  85.070 111.008  0.00  0.00     0.038 C 
ATOM      4  C   LIG d   1       1.028  85.140 111.751  0.00  0.00     0.028 C 
ATOM      5  C   LIG d   1       0.015  84.064 111.375  0.00  0.00    -0.047 C 
ATOM      6  C   LIG d   1       0.710  82.684 111.412  0.00  0.00     0.091 C 
ENDROOT
BRANCH   1   7
ATOM      7  O   LIG d   1       2.823  81.561 110.885  0.00  0.00    -0.368 OA
BRANCH   7   8
ATOM      8  C   LIG d   1       3.122  80.597 109.846  0.00  0.00     0.119 C 
BRANCH   8   9
ATOM      9  C   LIG d   1       4.503  80.955 109.263  0.00  0.00     0.028 C 
ATOM     10  C   LIG d   1       4.417  82.041 108.177  0.00  0.00     0.006 C 
ENDBRANCH   8   9
BRANCH   8  11
ATOM     11  C   LIG d   1       2.143  80.719 108.674  0.00  0.00     0.028 C 
ATOM     12  C   LIG d   1       1.296  79.453 108.471  0.00  0.00     0.006 C 
ENDBRANCH   8  11
ENDBRANCH   7   8
ENDBRANCH   1   7
BRANCH   6  13
ATOM     13  N   LIG d   1      -0.189  81.584 110.975  0.00  0.00    -0.311 N 
ATOM     14  C   LIG d   1      -0.511  80.550 111.749  0.00  0.00     0.210 C 
ATOM     15  C   LIG d   1      -1.436  79.517 111.097  0.00  0.00     0.109 C 
ATOM     16  O   LIG d   1      -0.145  80.405 112.925  0.00  0.00    -0.276 OA
ATOM     17  H   LIG d   1      -0.557  81.638 110.045  0.00  0.00     0.149 HD
ENDBRANCH   6  13
BRANCH   5  18
ATOM     18  N   LIG d   1      -1.116  84.168 112.317  0.00  0.00     0.381 N 
ATOM     19  H   LIG d   1      -1.436  83.253 112.563  0.00  0.00    -0.090 HD
ATOM     20  H   LIG d   1      -1.870  84.656 111.867  0.00  0.00    -0.090 HD
ATOM     21  H   LIG d   1      -0.833  84.660 113.135  0.00  0.00    -0.090 HD
ENDBRANCH   5  18
BRANCH   3  22
ATOM     22  C   LIG d   1       2.912  86.244 110.766  0.00  0.00     0.382 C 
ATOM     23  O   LIG d   1       4.159  86.273 110.900  0.00  0.00    -0.241 OA
ATOM     24  O   LIG d   1       2.303  87.287 110.458  0.00  0.00    -0.241 OA
ENDBRANCH   3  22
TORSDOF 7
ENDMDL
MODEL 9
REMARK VINA RESULT:      -5.1      2.365      5.576
REMARK  7 active torsions:
REMARK  status: ('A' for Active; 'I' for Inactive)
REMARK    1  A    between atoms: C_2  and  C_3 
REMARK    2  A    between atoms: C_3  and  O_6 
REMARK    3  A    between atoms: C_3  and  C_4 
REMARK    4  A    between atoms: C_7  and  O_6 
REMARK    5  A    between atoms: C_9  and  C_10 
REMARK    6  A    between atoms: N_15  and  C_14 
REMARK    7  A    between atoms: N_20  and  C_19 
REMARK       I    between atoms: C_22  and  N_20 
ROOT
ATOM      1  C   LIG d   1       1.419  83.441 111.250  0.00  0.00     0.161 C 
ATOM      2  C   LIG d   1       1.900  83.846 112.506  0.00  0.00     0.016 C 
ATOM      3  C   LIG d   1       2.274  85.177 112.804  0.00  0.00     0.038 C 
ATOM      4  C   LIG d   1       2.048  86.229 111.904  0.00  0.00     0.028 C 
ATOM      5  C   LIG d   1       2.034  85.786 110.445  0.00  0.00    -0.047 C 
ATOM      6  C   LIG d   1       1.061  84.595 110.291  0.00  0.00     0.091 C 
ENDROOT
BRANCH   1   7
ATOM      7  O   LIG d   1       0.289  82.562 111.420  0.00  0.00    -0.368 OA
BRANCH   7   8
ATOM      8  C   LIG d   1       0.588  81.145 111.482  0.00  0.00     0.119 C 
BRANCH   8   9
ATOM      9  C   LIG d   1       0.663  80.623 110.034  0.00  0.00     0.028 C 
ATOM     10  C   LIG d   1       2.074  80.142 109.657  0.00  0.00     0.006 C 
ENDBRANCH   8   9
BRANCH   8  11
ATOM     11  C   LIG d   1      -0.556  80.363 112.136  0.00  0.00     0.028 C 
ATOM     12  C   LIG d   1      -1.124  79.265 111.224  0.00  0.00     0.006 C 
ENDBRANCH   8  11
ENDBRANCH   7   8
ENDBRANCH   1   7
BRANCH   6  13
ATOM     13  N   LIG d   1       1.051  84.046 108.910  0.00  0.00    -0.311 N 
ATOM     14  C   LIG d   1       2.129  83.541 108.314  0.00  0.00     0.210 C 
ATOM     15  C   LIG d   1       1.905  83.048 106.881  0.00  0.00     0.109 C 
ATOM     16  O   LIG d   1       3.243  83.426 108.847  0.00  0.00    -0.276 OA
ATOM     17  H   LIG d   1       0.180  84.072 108.415  0.00  0.00     0.149 HD
ENDBRANCH   6  13
BRANCH   5  18
ATOM     18  N   LIG d   1       1.652  86.954 109.629  0.00  0.00     0.381 N 
ATOM     19  H   LIG d   1       0.911  87.454 110.078  0.00  0.00    -0.090 HD
ATOM     20  H   LIG d   1       1.320  86.633 108.737  0.00  0.00    -0.090 HD
ATOM     21  H   LIG d   1       2.437  87.554 109.503  0.00  0.00    -0.090 HD
ENDBRANCH   5  18
BRANCH   3  22
ATOM     22  C   LIG d   1       2.918  85.458 113.999  0.00  0.00     0.382 C 
ATOM     23  O   LIG d   1       2.752  86.572 114.553  0.00  0.00    -0.241 OA
ATOM     24  O   LIG d   1       3.698  84.630 114.507  0.00  0.00    -0.241 OA
ENDBRANCH   3  22
TORSDOF 7
ENDMDL
