MODEL 1
REMARK VINA RESULT:      -6.0      0.000      0.000
REMARK  7 active torsions:
REMARK  status: ('A' for Active; 'I' for Inactive)
REMARK    1  A    between atoms: C_2  and  C_3 
REMARK    2  A    between atoms: C_3  and  O_6 
REMARK    3  A    between atoms: C_3  and  C_4 
REMARK    4  A    between atoms: C_7  and  O_6 
REMARK    5  A    between atoms: C_9  and  C_10 
REMARK    6  A    between atoms: N_15  and  C_14 
REMARK    7  A    between atoms: N_20  and  C_19 
REMARK       I    between atoms: C_22  and  N_20 
ROOT
ATOM      1  C   LIG d   1       1.840  83.251 112.114  0.00  0.00     0.161 C 
ATOM      2  C   LIG d   1       2.882  82.963 111.217  0.00  0.00     0.016 C 
ATOM      3  C   LIG d   1       2.888  81.833 110.368  0.00  0.00     0.038 C 
ATOM      4  C   LIG d   1       1.774  80.989 110.249  0.00  0.00     0.028 C 
ATOM      5  C   LIG d   1       0.905  80.953 111.502  0.00  0.00    -0.047 C 
ATOM      6  C   LIG d   1       0.566  82.402 111.919  0.00  0.00     0.091 C 
ENDROOT
BRANCH   1   7
ATOM      7  O   LIG d   1       1.520  84.655 112.058  0.00  0.00    -0.368 OA
BRANCH   7   8
ATOM      8  C   LIG d   1       1.633  85.283 110.757  0.00  0.00     0.119 C 
BRANCH   8   9
ATOM      9  C   LIG d   1       2.314  86.650 110.961  0.00  0.00     0.028 C 
ATOM     10  C   LIG d   1       3.760  86.516 111.468  0.00  0.00     0.006 C 
ENDBRANCH   8   9
BRANCH   8  11
ATOM     11  C   LIG d   1       0.255  85.599 110.169  0.00  0.00     0.028 C 
ATOM     12  C   LIG d   1      -0.657  86.344 111.157  0.00  0.00     0.006 C 
ENDBRANCH   8  11
ENDBRANCH   7   8
ENDBRANCH   1   7
BRANCH   6  13
ATOM     13  N   LIG d   1      -0.212  82.460 113.184  0.00  0.00    -0.311 N 
ATOM     14  C   LIG d   1      -1.540  82.379 113.232  0.00  0.00     0.210 C 
ATOM     15  C   LIG d   1      -2.144  82.481 114.637  0.00  0.00     0.109 C 
ATOM     16  O   LIG d   1      -2.274  82.200 112.249  0.00  0.00    -0.276 OA
ATOM     17  H   LIG d   1       0.307  82.573 114.033  0.00  0.00     0.149 HD
ENDBRANCH   6  13
BRANCH   5  18
ATOM     18  N   LIG d   1      -0.290  80.146 111.192  0.00  0.00     0.381 N 
ATOM     19  H   LIG d   1      -0.822  79.994 112.026  0.00  0.00    -0.090 HD
ATOM     20  H   LIG d   1       0.004  79.252 110.838  0.00  0.00    -0.090 HD
ATOM     21  H   LIG d   1      -0.850  80.612 110.512  0.00  0.00    -0.090 HD
ENDBRANCH   5  18
BRANCH   3  22
ATOM     22  C   LIG d   1       4.034  81.515 109.655  0.00  0.00     0.382 C 
ATOM     23  O   LIG d   1       4.300  80.317 109.397  0.00  0.00    -0.241 OA
ATOM     24  O   LIG d   1       4.829  82.409 109.305  0.00  0.00    -0.241 OA
ENDBRANCH   3  22
TORSDOF 7
ENDMDL
MODEL 2
REMARK VINA RESULT:      -6.0      1.905      4.788
REMARK  7 active torsions:
REMARK  status: ('A' for Active; 'I' for Inactive)
REMARK    1  A    between atoms: C_2  and  C_3 
REMARK    2  A    between atoms: C_3  and  O_6 
REMARK    3  A    between atoms: C_3  and  C_4 
REMARK    4  A    between atoms: C_7  and  O_6 
REMARK    5  A    between atoms: C_9  and  C_10 
REMARK    6  A    between atoms: N_15  and  C_14 
REMARK    7  A    between atoms: N_20  and  C_19 
REMARK       I    between atoms: C_22  and  N_20 
ROOT
ATOM      1  C   LIG d   1       0.780  83.204 112.112  0.00  0.00     0.161 C 
ATOM      2  C   LIG d   1      -0.469  82.912 112.685  0.00  0.00     0.016 C 
ATOM      3  C   LIG d   1      -1.140  81.681 112.503  0.00  0.00     0.038 C 
ATOM      4  C   LIG d   1      -0.533  80.595 111.854  0.00  0.00     0.028 C 
ATOM      5  C   LIG d   1       0.515  81.011 110.827  0.00  0.00    -0.047 C 
ATOM      6  C   LIG d   1       1.507  81.992 111.493  0.00  0.00     0.091 C 
ENDROOT
BRANCH   1   7
ATOM      7  O   LIG d   1       1.624  83.852 113.084  0.00  0.00    -0.368 OA
BRANCH   7   8
ATOM      8  C   LIG d   1       1.920  85.249 112.841  0.00  0.00     0.119 C 
BRANCH   8   9
ATOM      9  C   LIG d   1       3.424  85.355 112.522  0.00  0.00     0.028 C 
ATOM     10  C   LIG d   1       3.688  85.959 111.132  0.00  0.00     0.006 C 
ENDBRANCH   8   9
BRANCH   8  11
ATOM     11  C   LIG d   1       1.713  86.090 114.104  0.00  0.00     0.028 C 
ATOM     12  C   LIG d   1       0.359  85.825 114.781  0.00  0.00     0.006 C 
ENDBRANCH   8  11
ENDBRANCH   7   8
ENDBRANCH   1   7
BRANCH   6  13
ATOM     13  N   LIG d   1       2.517  82.514 110.535  0.00  0.00    -0.311 N 
ATOM     14  C   LIG d   1       3.752  82.026 110.434  0.00  0.00     0.210 C 
ATOM     15  C   LIG d   1       4.639  82.722 109.396  0.00  0.00     0.109 C 
ATOM     16  O   LIG d   1       4.187  81.062 111.082  0.00  0.00    -0.276 OA
ATOM     17  H   LIG d   1       2.238  83.275 109.948  0.00  0.00     0.149 HD
ENDBRANCH   6  13
BRANCH   5  18
ATOM     18  N   LIG d   1       1.163  79.783 110.329  0.00  0.00     0.381 N 
ATOM     19  H   LIG d   1       1.699  79.991 109.511  0.00  0.00    -0.090 HD
ATOM     20  H   LIG d   1       0.451  79.119 110.078  0.00  0.00    -0.090 HD
ATOM     21  H   LIG d   1       1.753  79.398 111.033  0.00  0.00    -0.090 HD
ENDBRANCH   5  18
BRANCH   3  22
ATOM     22  C   LIG d   1      -2.449  81.541 112.938  0.00  0.00     0.382 C 
ATOM     23  O   LIG d   1      -3.094  80.501 112.660  0.00  0.00    -0.241 OA
ATOM     24  O   LIG d   1      -3.007  82.459 113.567  0.00  0.00    -0.241 OA
ENDBRANCH   3  22
TORSDOF 7
ENDMDL
MODEL 3
REMARK VINA RESULT:      -5.9      1.789      2.127
REMARK  7 active torsions:
REMARK  status: ('A' for Active; 'I' for Inactive)
REMARK    1  A    between atoms: C_2  and  C_3 
REMARK    2  A    between atoms: C_3  and  O_6 
REMARK    3  A    between atoms: C_3  and  C_4 
REMARK    4  A    between atoms: C_7  and  O_6 
REMARK    5  A    between atoms: C_9  and  C_10 
REMARK    6  A    between atoms: N_15  and  C_14 
REMARK    7  A    between atoms: N_20  and  C_19 
REMARK       I    between atoms: C_22  and  N_20 
ROOT
ATOM      1  C   LIG d   1       1.998  83.852 112.844  0.00  0.00     0.161 C 
ATOM      2  C   LIG d   1       2.792  82.998 112.061  0.00  0.00     0.016 C 
ATOM      3  C   LIG d   1       2.275  81.897 111.341  0.00  0.00     0.038 C 
ATOM      4  C   LIG d   1       0.896  81.664 111.233  0.00  0.00     0.028 C 
ATOM      5  C   LIG d   1       0.096  82.200 112.415  0.00  0.00    -0.047 C 
ATOM      6  C   LIG d   1       0.477  83.680 112.648  0.00  0.00     0.091 C 
ENDROOT
BRANCH   1   7
ATOM      7  O   LIG d   1       2.381  85.222 112.613  0.00  0.00    -0.368 OA
BRANCH   7   8
ATOM      8  C   LIG d   1       2.798  85.550 111.265  0.00  0.00     0.119 C 
BRANCH   8   9
ATOM      9  C   LIG d   1       4.026  86.475 111.371  0.00  0.00     0.028 C 
ATOM     10  C   LIG d   1       3.860  87.547 112.461  0.00  0.00     0.006 C 
ENDBRANCH   8   9
BRANCH   8  11
ATOM     11  C   LIG d   1       1.732  86.373 110.537  0.00  0.00     0.028 C 
ATOM     12  C   LIG d   1       0.939  85.548 109.511  0.00  0.00     0.006 C 
ENDBRANCH   8  11
ENDBRANCH   7   8
ENDBRANCH   1   7
BRANCH   6  13
ATOM     13  N   LIG d   1      -0.198  84.258 113.840  0.00  0.00    -0.311 N 
ATOM     14  C   LIG d   1      -0.886  85.398 113.811  0.00  0.00     0.210 C 
ATOM     15  C   LIG d   1      -1.485  85.825 115.155  0.00  0.00     0.109 C 
ATOM     16  O   LIG d   1      -1.084  86.080 112.794  0.00  0.00    -0.276 OA
ATOM     17  H   LIG d   1      -0.114  83.754 114.701  0.00  0.00     0.149 HD
ENDBRANCH   6  13
BRANCH   5  18
ATOM     18  N   LIG d   1      -1.335  82.013 112.107  0.00  0.00     0.381 N 
ATOM     19  H   LIG d   1      -1.565  82.494 111.261  0.00  0.00    -0.090 HD
ATOM     20  H   LIG d   1      -1.881  82.407 112.853  0.00  0.00    -0.090 HD
ATOM     21  H   LIG d   1      -1.539  81.043 112.013  0.00  0.00    -0.090 HD
ENDBRANCH   5  18
BRANCH   3  22
ATOM     22  C   LIG d   1       3.144  80.991 110.752  0.00  0.00     0.382 C 
ATOM     23  O   LIG d   1       4.376  81.070 110.973  0.00  0.00    -0.241 OA
ATOM     24  O   LIG d   1       2.716  80.123 109.967  0.00  0.00    -0.241 OA
ENDBRANCH   3  22
TORSDOF 7
ENDMDL
MODEL 4
REMARK VINA RESULT:      -5.9      2.769      4.719
REMARK  7 active torsions:
REMARK  status: ('A' for Active; 'I' for Inactive)
REMARK    1  A    between atoms: C_2  and  C_3 
REMARK    2  A    between atoms: C_3  and  O_6 
REMARK    3  A    between atoms: C_3  and  C_4 
REMARK    4  A    between atoms: C_7  and  O_6 
REMARK    5  A    between atoms: C_9  and  C_10 
REMARK    6  A    between atoms: N_15  and  C_14 
REMARK    7  A    between atoms: N_20  and  C_19 
REMARK       I    between atoms: C_22  and  N_20 
ROOT
ATOM      1  C   LIG d   1      -0.511  84.533 113.533  0.00  0.00     0.161 C 
ATOM      2  C   LIG d   1       0.144  85.666 113.023  0.00  0.00     0.016 C 
ATOM      3  C   LIG d   1       0.767  85.699 111.754  0.00  0.00     0.038 C 
ATOM      4  C   LIG d   1       0.644  84.642 110.840  0.00  0.00     0.028 C 
ATOM      5  C   LIG d   1       0.423  83.288 111.506  0.00  0.00    -0.047 C 
ATOM      6  C   LIG d   1      -0.751  83.407 112.505  0.00  0.00     0.091 C 
ENDROOT
BRANCH   1   7
ATOM      7  O   LIG d   1      -1.755  84.923 114.147  0.00  0.00    -0.368 OA
BRANCH   7   8
ATOM      8  C   LIG d   1      -1.807  84.834 115.592  0.00  0.00     0.119 C 
BRANCH   8   9
ATOM      9  C   LIG d   1      -0.390  84.485 116.086  0.00  0.00     0.028 C 
ATOM     10  C   LIG d   1       0.184  85.557 117.028  0.00  0.00     0.006 C 
ENDBRANCH   8   9
BRANCH   8  11
ATOM     11  C   LIG d   1      -2.693  83.671 116.048  0.00  0.00     0.028 C 
ATOM     12  C   LIG d   1      -1.929  82.630 116.881  0.00  0.00     0.006 C 
ENDBRANCH   8  11
ENDBRANCH   7   8
ENDBRANCH   1   7
BRANCH   6  13
ATOM     13  N   LIG d   1      -0.980  82.148 113.262  0.00  0.00    -0.311 N 
ATOM     14  C   LIG d   1      -2.120  81.461 113.213  0.00  0.00     0.210 C 
ATOM     15  C   LIG d   1      -2.154  80.202 114.085  0.00  0.00     0.109 C 
ATOM     16  O   LIG d   1      -3.094  81.756 112.504  0.00  0.00    -0.276 OA
ATOM     17  H   LIG d   1      -0.230  81.819 113.838  0.00  0.00     0.149 HD
ENDBRANCH   6  13
BRANCH   5  18
ATOM     18  N   LIG d   1       0.175  82.301 110.438  0.00  0.00     0.381 N 
ATOM     19  H   LIG d   1       1.046  81.977 110.067  0.00  0.00    -0.090 HD
ATOM     20  H   LIG d   1      -0.337  82.746 109.696  0.00  0.00    -0.090 HD
ATOM     21  H   LIG d   1      -0.348  81.533 110.798  0.00  0.00    -0.090 HD
ENDBRANCH   5  18
BRANCH   3  22
ATOM     22  C   LIG d   1       1.555  86.785 111.403  0.00  0.00     0.382 C 
ATOM     23  O   LIG d   1       2.434  86.661 110.516  0.00  0.00    -0.241 OA
ATOM     24  O   LIG d   1       1.430  87.874 111.995  0.00  0.00    -0.241 OA
ENDBRANCH   3  22
TORSDOF 7
ENDMDL
MODEL 5
REMARK VINA RESULT:      -5.9      4.465      7.461
REMARK  7 active torsions:
REMARK  status: ('A' for Active; 'I' for Inactive)
REMARK    1  A    between atoms: C_2  and  C_3 
REMARK    2  A    between atoms: C_3  and  O_6 
REMARK    3  A    between atoms: C_3  and  C_4 
REMARK    4  A    between atoms: C_7  and  O_6 
REMARK    5  A    between atoms: C_9  and  C_10 
REMARK    6  A    between atoms: N_15  and  C_14 
REMARK    7  A    between atoms: N_20  and  C_19 
REMARK       I    between atoms: C_22  and  N_20 
ROOT
ATOM      1  C   LIG d   1       2.623  87.318 113.985  0.00  0.00     0.161 C 
ATOM      2  C   LIG d   1       2.621  88.328 114.961  0.00  0.00     0.016 C 
ATOM      3  C   LIG d   1       3.617  89.327 115.050  0.00  0.00     0.038 C 
ATOM      4  C   LIG d   1       4.609  89.474 114.070  0.00  0.00     0.028 C 
ATOM      5  C   LIG d   1       4.946  88.173 113.349  0.00  0.00    -0.047 C 
ATOM      6  C   LIG d   1       3.636  87.528 112.840  0.00  0.00     0.091 C 
ENDROOT
BRANCH   1   7
ATOM      7  O   LIG d   1       1.294  87.148 113.454  0.00  0.00    -0.368 OA
BRANCH   7   8
ATOM      8  C   LIG d   1       0.673  85.861 113.691  0.00  0.00     0.119 C 
BRANCH   8   9
ATOM      9  C   LIG d   1      -0.469  85.704 112.668  0.00  0.00     0.028 C 
ATOM     10  C   LIG d   1      -0.238  84.525 111.707  0.00  0.00     0.006 C 
ENDBRANCH   8   9
BRANCH   8  11
ATOM     11  C   LIG d   1      -0.004  85.813 115.064  0.00  0.00     0.028 C 
ATOM     12  C   LIG d   1      -1.536  85.742 114.972  0.00  0.00     0.006 C 
ENDBRANCH   8  11
ENDBRANCH   7   8
ENDBRANCH   1   7
BRANCH   6  13
ATOM     13  N   LIG d   1       3.867  86.208 112.197  0.00  0.00    -0.311 N 
ATOM     14  C   LIG d   1       3.257  85.822 111.077  0.00  0.00     0.210 C 
ATOM     15  C   LIG d   1       3.623  84.416 110.594  0.00  0.00     0.109 C 
ATOM     16  O   LIG d   1       2.473  86.524 110.421  0.00  0.00    -0.276 OA
ATOM     17  H   LIG d   1       4.512  85.588 112.645  0.00  0.00     0.149 HD
ENDBRANCH   6  13
BRANCH   5  18
ATOM     18  N   LIG d   1       5.891  88.496 112.263  0.00  0.00     0.381 N 
ATOM     19  H   LIG d   1       5.745  87.876 111.492  0.00  0.00    -0.090 HD
ATOM     20  H   LIG d   1       6.829  88.367 112.599  0.00  0.00    -0.090 HD
ATOM     21  H   LIG d   1       5.762  89.439 111.969  0.00  0.00    -0.090 HD
ENDBRANCH   5  18
BRANCH   3  22
ATOM     22  C   LIG d   1       3.651  90.169 116.152  0.00  0.00     0.382 C 
ATOM     23  O   LIG d   1       2.842  91.124 116.236  0.00  0.00    -0.241 OA
ATOM     24  O   LIG d   1       4.508  90.011 117.041  0.00  0.00    -0.241 OA
ENDBRANCH   3  22
TORSDOF 7
ENDMDL
MODEL 6
REMARK VINA RESULT:      -5.7      3.965      6.764
REMARK  7 active torsions:
REMARK  status: ('A' for Active; 'I' for Inactive)
REMARK    1  A    between atoms: C_2  and  C_3 
REMARK    2  A    between atoms: C_3  and  O_6 
REMARK    3  A    between atoms: C_3  and  C_4 
REMARK    4  A    between atoms: C_7  and  O_6 
REMARK    5  A    between atoms: C_9  and  C_10 
REMARK    6  A    between atoms: N_15  and  C_14 
REMARK    7  A    between atoms: N_20  and  C_19 
REMARK       I    between atoms: C_22  and  N_20 
ROOT
ATOM      1  C   LIG d   1       1.423  86.230 112.926  0.00  0.00     0.161 C 
ATOM      2  C   LIG d   1       0.249  85.680 113.466  0.00  0.00     0.016 C 
ATOM      3  C   LIG d   1      -0.098  85.775 114.833  0.00  0.00     0.038 C 
ATOM      4  C   LIG d   1       0.638  86.563 115.732  0.00  0.00     0.028 C 
ATOM      5  C   LIG d   1       2.103  86.720 115.340  0.00  0.00    -0.047 C 
ATOM      6  C   LIG d   1       2.182  87.187 113.869  0.00  0.00     0.091 C 
ENDROOT
BRANCH   1   7
ATOM      7  O   LIG d   1       1.126  86.887 111.678  0.00  0.00    -0.368 OA
BRANCH   7   8
ATOM      8  C   LIG d   1       1.776  86.344 110.502  0.00  0.00     0.119 C 
BRANCH   8   9
ATOM      9  C   LIG d   1       0.688  85.679 109.637  0.00  0.00     0.028 C 
ATOM     10  C   LIG d   1      -0.733  86.055 110.090  0.00  0.00     0.006 C 
ENDBRANCH   8   9
BRANCH   8  11
ATOM     11  C   LIG d   1       2.746  85.218 110.871  0.00  0.00     0.028 C 
ATOM     12  C   LIG d   1       2.703  84.046 109.877  0.00  0.00     0.006 C 
ENDBRANCH   8  11
ENDBRANCH   7   8
ENDBRANCH   1   7
BRANCH   6  13
ATOM     13  N   LIG d   1       3.582  87.285 113.379  0.00  0.00    -0.311 N 
ATOM     14  C   LIG d   1       4.149  88.430 113.003  0.00  0.00     0.210 C 
ATOM     15  C   LIG d   1       5.594  88.305 112.512  0.00  0.00     0.109 C 
ATOM     16  O   LIG d   1       3.602  89.542 113.060  0.00  0.00    -0.276 OA
ATOM     17  H   LIG d   1       4.108  86.435 113.331  0.00  0.00     0.149 HD
ENDBRANCH   6  13
BRANCH   5  18
ATOM     18  N   LIG d   1       2.717  87.673 116.283  0.00  0.00     0.381 N 
ATOM     19  H   LIG d   1       3.545  88.064 115.880  0.00  0.00    -0.090 HD
ATOM     20  H   LIG d   1       2.976  87.181 117.120  0.00  0.00    -0.090 HD
ATOM     21  H   LIG d   1       2.071  88.399 116.503  0.00  0.00    -0.090 HD
ENDBRANCH   5  18
BRANCH   3  22
ATOM     22  C   LIG d   1      -1.170  85.044 115.323  0.00  0.00     0.382 C 
ATOM     23  O   LIG d   1      -2.334  85.299 114.930  0.00  0.00    -0.241 OA
ATOM     24  O   LIG d   1      -0.993  84.164 116.185  0.00  0.00    -0.241 OA
ENDBRANCH   3  22
TORSDOF 7
ENDMDL
MODEL 7
REMARK VINA RESULT:      -5.5      1.501      2.187
REMARK  7 active torsions:
REMARK  status: ('A' for Active; 'I' for Inactive)
REMARK    1  A    between atoms: C_2  and  C_3 
REMARK    2  A    between atoms: C_3  and  O_6 
REMARK    3  A    between atoms: C_3  and  C_4 
REMARK    4  A    between atoms: C_7  and  O_6 
REMARK    5  A    between atoms: C_9  and  C_10 
REMARK    6  A    between atoms: N_15  and  C_14 
REMARK    7  A    between atoms: N_20  and  C_19 
REMARK       I    between atoms: C_22  and  N_20 
ROOT
ATOM      1  C   LIG d   1       1.257  83.164 113.132  0.00  0.00     0.161 C 
ATOM      2  C   LIG d   1       2.352  83.352 112.272  0.00  0.00     0.016 C 
ATOM      3  C   LIG d   1       2.511  82.656 111.051  0.00  0.00     0.038 C 
ATOM      4  C   LIG d   1       1.503  81.831 110.532  0.00  0.00     0.028 C 
ATOM      5  C   LIG d   1       0.606  81.222 111.604  0.00  0.00    -0.047 C 
ATOM      6  C   LIG d   1       0.093  82.349 112.528  0.00  0.00     0.091 C 
ENDROOT
BRANCH   1   7
ATOM      7  O   LIG d   1       0.783  84.440 113.606  0.00  0.00    -0.368 OA
BRANCH   7   8
ATOM      8  C   LIG d   1      -0.421  84.946 112.977  0.00  0.00     0.119 C 
BRANCH   8   9
ATOM      9  C   LIG d   1       0.004  86.037 111.975  0.00  0.00     0.028 C 
ATOM     10  C   LIG d   1      -0.567  85.796 110.568  0.00  0.00     0.006 C 
ENDBRANCH   8   9
BRANCH   8  11
ATOM     11  C   LIG d   1      -1.323  85.655 113.991  0.00  0.00     0.028 C 
ATOM     12  C   LIG d   1      -1.237  85.041 115.397  0.00  0.00     0.006 C 
ENDBRANCH   8  11
ENDBRANCH   7   8
ENDBRANCH   1   7
BRANCH   6  13
ATOM     13  N   LIG d   1      -0.725  81.830 113.656  0.00  0.00    -0.311 N 
ATOM     14  C   LIG d   1      -2.051  81.719 113.609  0.00  0.00     0.210 C 
ATOM     15  C   LIG d   1      -2.700  81.179 114.887  0.00  0.00     0.109 C 
ATOM     16  O   LIG d   1      -2.749  81.986 112.619  0.00  0.00    -0.276 OA
ATOM     17  H   LIG d   1      -0.236  81.561 114.487  0.00  0.00     0.149 HD
ENDBRANCH   6  13
BRANCH   5  18
ATOM     18  N   LIG d   1      -0.481  80.498 110.917  0.00  0.00     0.381 N 
ATOM     19  H   LIG d   1      -0.858  79.798 111.524  0.00  0.00    -0.090 HD
ATOM     20  H   LIG d   1      -0.104  80.041 110.105  0.00  0.00    -0.090 HD
ATOM     21  H   LIG d   1      -1.197  81.135 110.647  0.00  0.00    -0.090 HD
ENDBRANCH   5  18
BRANCH   3  22
ATOM     22  C   LIG d   1       3.707  82.754 110.356  0.00  0.00     0.382 C 
ATOM     23  O   LIG d   1       4.684  82.040 110.688  0.00  0.00    -0.241 OA
ATOM     24  O   LIG d   1       3.835  83.578 109.431  0.00  0.00    -0.241 OA
ENDBRANCH   3  22
TORSDOF 7
ENDMDL
MODEL 8
REMARK VINA RESULT:      -5.5      3.410      5.814
REMARK  7 active torsions:
REMARK  status: ('A' for Active; 'I' for Inactive)
REMARK    1  A    between atoms: C_2  and  C_3 
REMARK    2  A    between atoms: C_3  and  O_6 
REMARK    3  A    between atoms: C_3  and  C_4 
REMARK    4  A    between atoms: C_7  and  O_6 
REMARK    5  A    between atoms: C_9  and  C_10 
REMARK    6  A    between atoms: N_15  and  C_14 
REMARK    7  A    between atoms: N_20  and  C_19 
REMARK       I    between atoms: C_22  and  N_20 
ROOT
ATOM      1  C   LIG d   1       3.556  84.986 112.781  0.00  0.00     0.161 C 
ATOM      2  C   LIG d   1       4.025  86.250 112.384  0.00  0.00     0.016 C 
ATOM      3  C   LIG d   1       4.360  87.278 113.295  0.00  0.00     0.038 C 
ATOM      4  C   LIG d   1       4.393  87.059 114.680  0.00  0.00     0.028 C 
ATOM      5  C   LIG d   1       3.445  85.958 115.142  0.00  0.00    -0.047 C 
ATOM      6  C   LIG d   1       3.692  84.692 114.290  0.00  0.00     0.091 C 
ENDROOT
BRANCH   1   7
ATOM      7  O   LIG d   1       4.208  83.958 112.009  0.00  0.00    -0.368 OA
BRANCH   7   8
ATOM      8  C   LIG d   1       3.361  83.203 111.109  0.00  0.00     0.119 C 
BRANCH   8   9
ATOM      9  C   LIG d   1       4.071  81.867 110.818  0.00  0.00     0.028 C 
ATOM     10  C   LIG d   1       4.539  81.757 109.357  0.00  0.00     0.006 C 
ENDBRANCH   8   9
BRANCH   8  11
ATOM     11  C   LIG d   1       3.231  83.898 109.751  0.00  0.00     0.028 C 
ATOM     12  C   LIG d   1       1.805  84.400 109.473  0.00  0.00     0.006 C 
ENDBRANCH   8  11
ENDBRANCH   7   8
ENDBRANCH   1   7
BRANCH   6  13
ATOM     13  N   LIG d   1       2.748  83.593 114.620  0.00  0.00    -0.311 N 
ATOM     14  C   LIG d   1       3.116  82.469 115.234  0.00  0.00     0.210 C 
ATOM     15  C   LIG d   1       1.989  81.457 115.461  0.00  0.00     0.109 C 
ATOM     16  O   LIG d   1       4.263  82.229 115.639  0.00  0.00    -0.276 OA
ATOM     17  H   LIG d   1       1.791  83.718 114.354  0.00  0.00     0.149 HD
ENDBRANCH   6  13
BRANCH   5  18
ATOM     18  N   LIG d   1       3.681  85.741 116.582  0.00  0.00     0.381 N 
ATOM     19  H   LIG d   1       3.901  84.779 116.748  0.00  0.00    -0.090 HD
ATOM     20  H   LIG d   1       2.842  85.964 117.087  0.00  0.00    -0.090 HD
ATOM     21  H   LIG d   1       4.430  86.319 116.895  0.00  0.00    -0.090 HD
ENDBRANCH   5  18
BRANCH   3  22
ATOM     22  C   LIG d   1       4.628  88.553 112.823  0.00  0.00     0.382 C 
ATOM     23  O   LIG d   1       3.787  89.470 112.982  0.00  0.00    -0.241 OA
ATOM     24  O   LIG d   1       5.682  88.789 112.201  0.00  0.00    -0.241 OA
ENDBRANCH   3  22
TORSDOF 7
ENDMDL
MODEL 9
REMARK VINA RESULT:      -5.4      3.967      6.682
REMARK  7 active torsions:
REMARK  status: ('A' for Active; 'I' for Inactive)
REMARK    1  A    between atoms: C_2  and  C_3 
REMARK    2  A    between atoms: C_3  and  O_6 
REMARK    3  A    between atoms: C_3  and  C_4 
REMARK    4  A    between atoms: C_7  and  O_6 
REMARK    5  A    between atoms: C_9  and  C_10 
REMARK    6  A    between atoms: N_15  and  C_14 
REMARK    7  A    between atoms: N_20  and  C_19 
REMARK       I    between atoms: C_22  and  N_20 
ROOT
ATOM      1  C   LIG d   1       1.505  85.947 113.401  0.00  0.00     0.161 C 
ATOM      2  C   LIG d   1       0.322  85.448 113.971  0.00  0.00     0.016 C 
ATOM      3  C   LIG d   1      -0.107  85.769 115.280  0.00  0.00     0.038 C 
ATOM      4  C   LIG d   1       0.546  86.738 116.057  0.00  0.00     0.028 C 
ATOM      5  C   LIG d   1       2.025  86.891 115.718  0.00  0.00    -0.047 C 
ATOM      6  C   LIG d   1       2.172  87.092 114.193  0.00  0.00     0.091 C 
ENDROOT
BRANCH   1   7
ATOM      7  O   LIG d   1       1.258  86.356 112.042  0.00  0.00    -0.368 OA
BRANCH   7   8
ATOM      8  C   LIG d   1       1.533  85.368 111.018  0.00  0.00     0.119 C 
BRANCH   8   9
ATOM      9  C   LIG d   1       3.010  85.526 110.608  0.00  0.00     0.028 C 
ATOM     10  C   LIG d   1       3.845  84.275 110.930  0.00  0.00     0.006 C 
ENDBRANCH   8   9
BRANCH   8  11
ATOM     11  C   LIG d   1       0.727  85.644 109.746  0.00  0.00     0.028 C 
ATOM     12  C   LIG d   1      -0.754  85.939 110.030  0.00  0.00     0.006 C 
ENDBRANCH   8  11
ENDBRANCH   7   8
ENDBRANCH   1   7
BRANCH   6  13
ATOM     13  N   LIG d   1       3.594  87.165 113.765  0.00  0.00    -0.311 N 
ATOM     14  C   LIG d   1       4.093  88.173 113.052  0.00  0.00     0.210 C 
ATOM     15  C   LIG d   1       5.578  88.042 112.700  0.00  0.00     0.109 C 
ATOM     16  O   LIG d   1       3.455  89.178 112.704  0.00  0.00    -0.276 OA
ATOM     17  H   LIG d   1       4.190  86.406 114.032  0.00  0.00     0.149 HD
ENDBRANCH   6  13
BRANCH   5  18
ATOM     18  N   LIG d   1       2.547  88.024 116.504  0.00  0.00     0.381 N 
ATOM     19  H   LIG d   1       3.194  87.691 117.191  0.00  0.00    -0.090 HD
ATOM     20  H   LIG d   1       1.782  88.470 116.980  0.00  0.00    -0.090 HD
ATOM     21  H   LIG d   1       2.998  88.678 115.902  0.00  0.00    -0.090 HD
ENDBRANCH   5  18
BRANCH   3  22
ATOM     22  C   LIG d   1      -1.178  85.089 115.838  0.00  0.00     0.382 C 
ATOM     23  O   LIG d   1      -1.111  84.677 117.022  0.00  0.00    -0.241 OA
ATOM     24  O   LIG d   1      -2.193  84.842 115.159  0.00  0.00    -0.241 OA
ENDBRANCH   3  22
TORSDOF 7
ENDMDL
