MODEL 1
REMARK VINA RESULT:      -6.3      0.000      0.000
REMARK  7 active torsions:
REMARK  status: ('A' for Active; 'I' for Inactive)
REMARK    1  A    between atoms: C_2  and  C_3 
REMARK    2  A    between atoms: C_3  and  O_6 
REMARK    3  A    between atoms: C_3  and  C_4 
REMARK    4  A    between atoms: C_7  and  O_6 
REMARK    5  A    between atoms: C_9  and  C_10 
REMARK    6  A    between atoms: N_15  and  C_14 
REMARK    7  A    between atoms: N_20  and  C_19 
REMARK       I    between atoms: C_22  and  N_20 
ROOT
ATOM      1  C   LIG d   1      -7.521  77.124 117.780  0.00  0.00     0.161 C 
ATOM      2  C   LIG d   1      -8.653  77.929 117.986  0.00  0.00     0.016 C 
ATOM      3  C   LIG d   1      -8.592  79.334 118.136  0.00  0.00     0.038 C 
ATOM      4  C   LIG d   1      -7.402  80.050 117.938  0.00  0.00     0.028 C 
ATOM      5  C   LIG d   1      -6.148  79.232 118.227  0.00  0.00    -0.047 C 
ATOM      6  C   LIG d   1      -6.228  77.899 117.449  0.00  0.00     0.091 C 
ENDROOT
BRANCH   1   7
ATOM      7  O   LIG d   1      -7.796  76.148 116.755  0.00  0.00    -0.368 OA
BRANCH   7   8
ATOM      8  C   LIG d   1      -8.074  74.803 117.215  0.00  0.00     0.119 C 
BRANCH   8   9
ATOM      9  C   LIG d   1      -7.177  73.843 116.409  0.00  0.00     0.028 C 
ATOM     10  C   LIG d   1      -6.340  74.576 115.347  0.00  0.00     0.006 C 
ENDBRANCH   8   9
BRANCH   8  11
ATOM     11  C   LIG d   1      -9.511  74.388 116.885  0.00  0.00     0.028 C 
ATOM     12  C   LIG d   1      -9.641  72.889 116.570  0.00  0.00     0.006 C 
ENDBRANCH   8  11
ENDBRANCH   7   8
ENDBRANCH   1   7
BRANCH   6  13
ATOM     13  N   LIG d   1      -5.079  77.002 117.742  0.00  0.00    -0.311 N 
ATOM     14  C   LIG d   1      -3.985  76.941 116.985  0.00  0.00     0.210 C 
ATOM     15  C   LIG d   1      -2.929  75.935 117.454  0.00  0.00     0.109 C 
ATOM     16  O   LIG d   1      -3.776  77.647 115.987  0.00  0.00    -0.276 OA
ATOM     17  H   LIG d   1      -5.152  76.417 118.551  0.00  0.00     0.149 HD
ENDBRANCH   6  13
BRANCH   5  18
ATOM     18  N   LIG d   1      -4.983  80.054 117.848  0.00  0.00     0.381 N 
ATOM     19  H   LIG d   1      -5.252  81.016 117.788  0.00  0.00    -0.090 HD
ATOM     20  H   LIG d   1      -4.659  79.760 116.944  0.00  0.00    -0.090 HD
ATOM     21  H   LIG d   1      -4.257  79.946 118.521  0.00  0.00    -0.090 HD
ENDBRANCH   5  18
BRANCH   3  22
ATOM     22  C   LIG d   1      -9.724  80.033 118.528  0.00  0.00     0.382 C 
ATOM     23  O   LIG d   1     -10.332  80.756 117.702  0.00  0.00    -0.241 OA
ATOM     24  O   LIG d   1     -10.119  79.984 119.708  0.00  0.00    -0.241 OA
ENDBRANCH   3  22
TORSDOF 7
ENDMDL
MODEL 2
REMARK VINA RESULT:      -5.9      2.129      5.442
REMARK  7 active torsions:
REMARK  status: ('A' for Active; 'I' for Inactive)
REMARK    1  A    between atoms: C_2  and  C_3 
REMARK    2  A    between atoms: C_3  and  O_6 
REMARK    3  A    between atoms: C_3  and  C_4 
REMARK    4  A    between atoms: C_7  and  O_6 
REMARK    5  A    between atoms: C_9  and  C_10 
REMARK    6  A    between atoms: N_15  and  C_14 
REMARK    7  A    between atoms: N_20  and  C_19 
REMARK       I    between atoms: C_22  and  N_20 
ROOT
ATOM      1  C   LIG d   1      -5.539  75.804 116.529  0.00  0.00     0.161 C 
ATOM      2  C   LIG d   1      -6.190  74.616 116.156  0.00  0.00     0.016 C 
ATOM      3  C   LIG d   1      -7.556  74.362 116.418  0.00  0.00     0.038 C 
ATOM      4  C   LIG d   1      -8.406  75.347 116.940  0.00  0.00     0.028 C 
ATOM      5  C   LIG d   1      -7.682  76.382 117.794  0.00  0.00    -0.047 C 
ATOM      6  C   LIG d   1      -6.478  76.935 116.999  0.00  0.00     0.091 C 
ENDROOT
BRANCH   1   7
ATOM      7  O   LIG d   1      -4.704  76.263 115.448  0.00  0.00    -0.368 OA
BRANCH   7   8
ATOM      8  C   LIG d   1      -3.312  75.865 115.504  0.00  0.00     0.119 C 
BRANCH   8   9
ATOM      9  C   LIG d   1      -2.956  75.636 116.986  0.00  0.00     0.028 C 
ATOM     10  C   LIG d   1      -1.565  75.003 117.165  0.00  0.00     0.006 C 
ENDBRANCH   8   9
BRANCH   8  11
ATOM     11  C   LIG d   1      -2.389  76.994 115.035  0.00  0.00     0.028 C 
ATOM     12  C   LIG d   1      -2.681  78.331 115.734  0.00  0.00     0.006 C 
ENDBRANCH   8  11
ENDBRANCH   7   8
ENDBRANCH   1   7
BRANCH   6  13
ATOM     13  N   LIG d   1      -5.665  77.892 117.794  0.00  0.00    -0.311 N 
ATOM     14  C   LIG d   1      -5.920  79.198 117.852  0.00  0.00     0.210 C 
ATOM     15  C   LIG d   1      -4.947  80.009 118.713  0.00  0.00     0.109 C 
ATOM     16  O   LIG d   1      -6.878  79.757 117.298  0.00  0.00    -0.276 OA
ATOM     17  H   LIG d   1      -4.886  77.519 118.300  0.00  0.00     0.149 HD
ENDBRANCH   6  13
BRANCH   5  18
ATOM     18  N   LIG d   1      -8.662  77.424 118.158  0.00  0.00     0.381 N 
ATOM     19  H   LIG d   1      -8.489  77.740 119.091  0.00  0.00    -0.090 HD
ATOM     20  H   LIG d   1      -9.585  77.028 118.125  0.00  0.00    -0.090 HD
ATOM     21  H   LIG d   1      -8.598  78.189 117.523  0.00  0.00    -0.090 HD
ENDBRANCH   5  18
BRANCH   3  22
ATOM     22  C   LIG d   1      -8.074  73.095 116.195  0.00  0.00     0.382 C 
ATOM     23  O   LIG d   1      -9.288  72.867 116.413  0.00  0.00    -0.241 OA
ATOM     24  O   LIG d   1      -7.333  72.166 115.820  0.00  0.00    -0.241 OA
ENDBRANCH   3  22
TORSDOF 7
ENDMDL
MODEL 3
REMARK VINA RESULT:      -5.9      1.805      4.994
REMARK  7 active torsions:
REMARK  status: ('A' for Active; 'I' for Inactive)
REMARK    1  A    between atoms: C_2  and  C_3 
REMARK    2  A    between atoms: C_3  and  O_6 
REMARK    3  A    between atoms: C_3  and  C_4 
REMARK    4  A    between atoms: C_7  and  O_6 
REMARK    5  A    between atoms: C_9  and  C_10 
REMARK    6  A    between atoms: N_15  and  C_14 
REMARK    7  A    between atoms: N_20  and  C_19 
REMARK       I    between atoms: C_22  and  N_20 
ROOT
ATOM      1  C   LIG d   1      -6.539  76.098 116.739  0.00  0.00     0.161 C 
ATOM      2  C   LIG d   1      -5.305  75.618 116.269  0.00  0.00     0.016 C 
ATOM      3  C   LIG d   1      -4.070  76.251 116.537  0.00  0.00     0.038 C 
ATOM      4  C   LIG d   1      -3.968  77.331 117.427  0.00  0.00     0.028 C 
ATOM      5  C   LIG d   1      -5.246  78.158 117.525  0.00  0.00    -0.047 C 
ATOM      6  C   LIG d   1      -6.436  77.211 117.803  0.00  0.00     0.091 C 
ENDROOT
BRANCH   1   7
ATOM      7  O   LIG d   1      -7.333  75.003 117.236  0.00  0.00    -0.368 OA
BRANCH   7   8
ATOM      8  C   LIG d   1      -7.941  74.151 116.234  0.00  0.00     0.119 C 
BRANCH   8   9
ATOM      9  C   LIG d   1      -9.410  73.930 116.643  0.00  0.00     0.028 C 
ATOM     10  C   LIG d   1     -10.107  75.237 117.057  0.00  0.00     0.006 C 
ENDBRANCH   8   9
BRANCH   8  11
ATOM     11  C   LIG d   1      -7.307  72.756 116.229  0.00  0.00     0.028 C 
ATOM     12  C   LIG d   1      -8.195  71.696 116.898  0.00  0.00     0.006 C 
ENDBRANCH   8  11
ENDBRANCH   7   8
ENDBRANCH   1   7
BRANCH   6  13
ATOM     13  N   LIG d   1      -7.737  77.929 117.830  0.00  0.00    -0.311 N 
ATOM     14  C   LIG d   1      -8.403  78.198 118.952  0.00  0.00     0.210 C 
ATOM     15  C   LIG d   1      -9.734  78.930 118.754  0.00  0.00     0.109 C 
ATOM     16  O   LIG d   1      -8.002  77.929 120.094  0.00  0.00    -0.276 OA
ATOM     17  H   LIG d   1      -8.120  78.212 116.949  0.00  0.00     0.149 HD
ENDBRANCH   6  13
BRANCH   5  18
ATOM     18  N   LIG d   1      -5.046  79.163 118.586  0.00  0.00     0.381 N 
ATOM     19  H   LIG d   1      -4.127  79.071 118.971  0.00  0.00    -0.090 HD
ATOM     20  H   LIG d   1      -5.713  78.999 119.319  0.00  0.00    -0.090 HD
ATOM     21  H   LIG d   1      -5.169  80.079 118.215  0.00  0.00    -0.090 HD
ENDBRANCH   5  18
BRANCH   3  22
ATOM     22  C   LIG d   1      -2.924  75.829 115.881  0.00  0.00     0.382 C 
ATOM     23  O   LIG d   1      -2.844  75.928 114.633  0.00  0.00    -0.241 OA
ATOM     24  O   LIG d   1      -1.987  75.309 116.516  0.00  0.00    -0.241 OA
ENDBRANCH   3  22
TORSDOF 7
ENDMDL
MODEL 4
REMARK VINA RESULT:      -5.3      4.873      6.710
REMARK  7 active torsions:
REMARK  status: ('A' for Active; 'I' for Inactive)
REMARK    1  A    between atoms: C_2  and  C_3 
REMARK    2  A    between atoms: C_3  and  O_6 
REMARK    3  A    between atoms: C_3  and  C_4 
REMARK    4  A    between atoms: C_7  and  O_6 
REMARK    5  A    between atoms: C_9  and  C_10 
REMARK    6  A    between atoms: N_15  and  C_14 
REMARK    7  A    between atoms: N_20  and  C_19 
REMARK       I    between atoms: C_22  and  N_20 
ROOT
ATOM      1  C   LIG d   1      -1.661  79.325 116.071  0.00  0.00     0.161 C 
ATOM      2  C   LIG d   1      -2.065  80.572 115.565  0.00  0.00     0.016 C 
ATOM      3  C   LIG d   1      -2.305  80.814 114.193  0.00  0.00     0.038 C 
ATOM      4  C   LIG d   1      -2.304  79.779 113.246  0.00  0.00     0.028 C 
ATOM      5  C   LIG d   1      -1.410  78.606 113.632  0.00  0.00    -0.047 C 
ATOM      6  C   LIG d   1      -1.763  78.156 115.068  0.00  0.00     0.091 C 
ENDROOT
BRANCH   1   7
ATOM      7  O   LIG d   1      -2.401  79.021 117.270  0.00  0.00    -0.368 OA
BRANCH   7   8
ATOM      8  C   LIG d   1      -3.791  78.658 117.087  0.00  0.00     0.119 C 
BRANCH   8   9
ATOM      9  C   LIG d   1      -4.649  79.799 117.668  0.00  0.00     0.028 C 
ATOM     10  C   LIG d   1      -4.254  80.153 119.111  0.00  0.00     0.006 C 
ENDBRANCH   8   9
BRANCH   8  11
ATOM     11  C   LIG d   1      -4.156  77.418 117.908  0.00  0.00     0.028 C 
ATOM     12  C   LIG d   1      -2.938  76.773 118.587  0.00  0.00     0.006 C 
ENDBRANCH   8  11
ENDBRANCH   7   8
ENDBRANCH   1   7
BRANCH   6  13
ATOM     13  N   LIG d   1      -0.877  77.067 115.556  0.00  0.00    -0.311 N 
ATOM     14  C   LIG d   1      -1.203  75.777 115.500  0.00  0.00     0.210 C 
ATOM     15  C   LIG d   1      -0.154  74.820 116.075  0.00  0.00     0.109 C 
ATOM     16  O   LIG d   1      -2.247  75.332 114.999  0.00  0.00    -0.276 OA
ATOM     17  H   LIG d   1       0.003  77.337 115.949  0.00  0.00     0.149 HD
ENDBRANCH   6  13
BRANCH   5  18
ATOM     18  N   LIG d   1      -1.610  77.544 112.628  0.00  0.00     0.381 N 
ATOM     19  H   LIG d   1      -2.528  77.616 112.237  0.00  0.00    -0.090 HD
ATOM     20  H   LIG d   1      -1.529  76.650 113.080  0.00  0.00    -0.090 HD
ATOM     21  H   LIG d   1      -0.927  77.623 111.907  0.00  0.00    -0.090 HD
ENDBRANCH   5  18
BRANCH   3  22
ATOM     22  C   LIG d   1      -2.510  82.112 113.751  0.00  0.00     0.382 C 
ATOM     23  O   LIG d   1      -1.890  82.537 112.747  0.00  0.00    -0.241 OA
ATOM     24  O   LIG d   1      -3.275  82.877 114.369  0.00  0.00    -0.241 OA
ENDBRANCH   3  22
TORSDOF 7
ENDMDL
MODEL 5
REMARK VINA RESULT:      -5.3      4.148      6.727
REMARK  7 active torsions:
REMARK  status: ('A' for Active; 'I' for Inactive)
REMARK    1  A    between atoms: C_2  and  C_3 
REMARK    2  A    between atoms: C_3  and  O_6 
REMARK    3  A    between atoms: C_3  and  C_4 
REMARK    4  A    between atoms: C_7  and  O_6 
REMARK    5  A    between atoms: C_9  and  C_10 
REMARK    6  A    between atoms: N_15  and  C_14 
REMARK    7  A    between atoms: N_20  and  C_19 
REMARK       I    between atoms: C_22  and  N_20 
ROOT
ATOM      1  C   LIG d   1      -2.335  76.314 115.292  0.00  0.00     0.161 C 
ATOM      2  C   LIG d   1      -2.116  75.393 116.330  0.00  0.00     0.016 C 
ATOM      3  C   LIG d   1      -1.090  75.533 117.292  0.00  0.00     0.038 C 
ATOM      4  C   LIG d   1      -0.303  76.692 117.373  0.00  0.00     0.028 C 
ATOM      5  C   LIG d   1      -0.155  77.418 116.040  0.00  0.00    -0.047 C 
ATOM      6  C   LIG d   1      -1.558  77.640 115.431  0.00  0.00     0.091 C 
ENDROOT
BRANCH   1   7
ATOM      7  O   LIG d   1      -3.746  76.573 115.158  0.00  0.00    -0.368 OA
BRANCH   7   8
ATOM      8  C   LIG d   1      -4.622  75.776 115.993  0.00  0.00     0.119 C 
BRANCH   8   9
ATOM      9  C   LIG d   1      -5.610  75.045 115.063  0.00  0.00     0.028 C 
ATOM     10  C   LIG d   1      -7.077  75.358 115.403  0.00  0.00     0.006 C 
ENDBRANCH   8   9
BRANCH   8  11
ATOM     11  C   LIG d   1      -5.491  76.660 116.892  0.00  0.00     0.028 C 
ATOM     12  C   LIG d   1      -4.707  77.271 118.064  0.00  0.00     0.006 C 
ENDBRANCH   8  11
ENDBRANCH   7   8
ENDBRANCH   1   7
BRANCH   6  13
ATOM     13  N   LIG d   1      -1.498  78.269 114.086  0.00  0.00    -0.311 N 
ATOM     14  C   LIG d   1      -2.192  79.357 113.754  0.00  0.00     0.210 C 
ATOM     15  C   LIG d   1      -2.001  79.830 112.309  0.00  0.00     0.109 C 
ATOM     16  O   LIG d   1      -2.922  79.994 114.528  0.00  0.00    -0.276 OA
ATOM     17  H   LIG d   1      -0.906  77.836 113.405  0.00  0.00     0.149 HD
ENDBRANCH   6  13
BRANCH   5  18
ATOM     18  N   LIG d   1       0.571  78.676 116.296  0.00  0.00     0.381 N 
ATOM     19  H   LIG d   1       0.963  78.660 117.217  0.00  0.00    -0.090 HD
ATOM     20  H   LIG d   1      -0.077  79.442 116.243  0.00  0.00    -0.090 HD
ATOM     21  H   LIG d   1       1.294  78.796 115.622  0.00  0.00    -0.090 HD
ENDBRANCH   5  18
BRANCH   3  22
ATOM     22  C   LIG d   1      -0.817  74.490 118.163  0.00  0.00     0.382 C 
ATOM     23  O   LIG d   1      -0.098  73.532 117.788  0.00  0.00    -0.241 OA
ATOM     24  O   LIG d   1      -1.316  74.471 119.304  0.00  0.00    -0.241 OA
ENDBRANCH   3  22
TORSDOF 7
ENDMDL
MODEL 6
REMARK VINA RESULT:      -5.1     12.366     14.160
REMARK  7 active torsions:
REMARK  status: ('A' for Active; 'I' for Inactive)
REMARK    1  A    between atoms: C_2  and  C_3 
REMARK    2  A    between atoms: C_3  and  O_6 
REMARK    3  A    between atoms: C_3  and  C_4 
REMARK    4  A    between atoms: C_7  and  O_6 
REMARK    5  A    between atoms: C_9  and  C_10 
REMARK    6  A    between atoms: N_15  and  C_14 
REMARK    7  A    between atoms: N_20  and  C_19 
REMARK       I    between atoms: C_22  and  N_20 
ROOT
ATOM      1  C   LIG d   1      -3.446  89.718 117.728  0.00  0.00     0.161 C 
ATOM      2  C   LIG d   1      -4.473  89.334 116.850  0.00  0.00     0.016 C 
ATOM      3  C   LIG d   1      -5.599  90.142 116.569  0.00  0.00     0.038 C 
ATOM      4  C   LIG d   1      -5.700  91.461 117.035  0.00  0.00     0.028 C 
ATOM      5  C   LIG d   1      -4.934  91.706 118.331  0.00  0.00    -0.047 C 
ATOM      6  C   LIG d   1      -3.484  91.199 118.160  0.00  0.00     0.091 C 
ENDROOT
BRANCH   1   7
ATOM      7  O   LIG d   1      -2.164  89.397 117.152  0.00  0.00    -0.368 OA
BRANCH   7   8
ATOM      8  C   LIG d   1      -1.415  88.346 117.811  0.00  0.00     0.119 C 
BRANCH   8   9
ATOM      9  C   LIG d   1      -2.229  87.897 119.040  0.00  0.00     0.028 C 
ATOM     10  C   LIG d   1      -1.436  88.033 120.350  0.00  0.00     0.006 C 
ENDBRANCH   8   9
BRANCH   8  11
ATOM     11  C   LIG d   1      -0.091  88.872 118.371  0.00  0.00     0.028 C 
ATOM     12  C   LIG d   1       0.375  90.165 117.683  0.00  0.00     0.006 C 
ENDBRANCH   8  11
ENDBRANCH   7   8
ENDBRANCH   1   7
BRANCH   6  13
ATOM     13  N   LIG d   1      -2.688  91.324 119.409  0.00  0.00    -0.311 N 
ATOM     14  C   LIG d   1      -1.869  92.344 119.657  0.00  0.00     0.210 C 
ATOM     15  C   LIG d   1      -1.129  92.268 120.996  0.00  0.00     0.109 C 
ATOM     16  O   LIG d   1      -1.708  93.321 118.910  0.00  0.00    -0.276 OA
ATOM     17  H   LIG d   1      -2.782  90.591 120.084  0.00  0.00     0.149 HD
ENDBRANCH   6  13
BRANCH   5  18
ATOM     18  N   LIG d   1      -5.011  93.149 118.628  0.00  0.00     0.381 N 
ATOM     19  H   LIG d   1      -5.545  93.295 119.461  0.00  0.00    -0.090 HD
ATOM     20  H   LIG d   1      -5.477  93.613 117.868  0.00  0.00    -0.090 HD
ATOM     21  H   LIG d   1      -4.094  93.523 118.743  0.00  0.00    -0.090 HD
ENDBRANCH   5  18
BRANCH   3  22
ATOM     22  C   LIG d   1      -6.659  89.616 115.846  0.00  0.00     0.382 C 
ATOM     23  O   LIG d   1      -7.065  90.201 114.814  0.00  0.00    -0.241 OA
ATOM     24  O   LIG d   1      -7.242  88.587 116.238  0.00  0.00    -0.241 OA
ENDBRANCH   3  22
TORSDOF 7
ENDMDL
MODEL 7
REMARK VINA RESULT:      -5.1      2.140      4.818
REMARK  7 active torsions:
REMARK  status: ('A' for Active; 'I' for Inactive)
REMARK    1  A    between atoms: C_2  and  C_3 
REMARK    2  A    between atoms: C_3  and  O_6 
REMARK    3  A    between atoms: C_3  and  C_4 
REMARK    4  A    between atoms: C_7  and  O_6 
REMARK    5  A    between atoms: C_9  and  C_10 
REMARK    6  A    between atoms: N_15  and  C_14 
REMARK    7  A    between atoms: N_20  and  C_19 
REMARK       I    between atoms: C_22  and  N_20 
ROOT
ATOM      1  C   LIG d   1      -6.327  78.411 117.503  0.00  0.00     0.161 C 
ATOM      2  C   LIG d   1      -5.164  77.768 117.959  0.00  0.00     0.016 C 
ATOM      3  C   LIG d   1      -4.701  77.851 119.292  0.00  0.00     0.038 C 
ATOM      4  C   LIG d   1      -5.456  78.464 120.303  0.00  0.00     0.028 C 
ATOM      5  C   LIG d   1      -6.385  79.557 119.786  0.00  0.00    -0.047 C 
ATOM      6  C   LIG d   1      -7.224  78.992 118.617  0.00  0.00     0.091 C 
ENDROOT
BRANCH   1   7
ATOM      7  O   LIG d   1      -7.085  77.514 116.667  0.00  0.00    -0.368 OA
BRANCH   7   8
ATOM      8  C   LIG d   1      -6.830  76.100 116.853  0.00  0.00     0.119 C 
BRANCH   8   9
ATOM      9  C   LIG d   1      -6.903  75.430 115.467  0.00  0.00     0.028 C 
ATOM     10  C   LIG d   1      -5.512  75.106 114.898  0.00  0.00     0.006 C 
ENDBRANCH   8   9
BRANCH   8  11
ATOM     11  C   LIG d   1      -7.935  75.439 117.682  0.00  0.00     0.028 C 
ATOM     12  C   LIG d   1      -9.006  74.760 116.813  0.00  0.00     0.006 C 
ENDBRANCH   8  11
ENDBRANCH   7   8
ENDBRANCH   1   7
BRANCH   6  13
ATOM     13  N   LIG d   1      -8.100  80.021 117.998  0.00  0.00    -0.311 N 
ATOM     14  C   LIG d   1      -9.379  80.189 118.328  0.00  0.00     0.210 C 
ATOM     15  C   LIG d   1     -10.107  81.293 117.554  0.00  0.00     0.109 C 
ATOM     16  O   LIG d   1      -9.972  79.550 119.211  0.00  0.00    -0.276 OA
ATOM     17  H   LIG d   1      -7.691  80.604 117.294  0.00  0.00     0.149 HD
ENDBRANCH   6  13
BRANCH   5  18
ATOM     18  N   LIG d   1      -7.210  80.014 120.920  0.00  0.00     0.381 N 
ATOM     19  H   LIG d   1      -6.995  79.474 121.735  0.00  0.00    -0.090 HD
ATOM     20  H   LIG d   1      -8.179  79.874 120.695  0.00  0.00    -0.090 HD
ATOM     21  H   LIG d   1      -7.040  80.980 121.099  0.00  0.00    -0.090 HD
ENDBRANCH   5  18
BRANCH   3  22
ATOM     22  C   LIG d   1      -3.449  77.352 119.616  0.00  0.00     0.382 C 
ATOM     23  O   LIG d   1      -2.939  77.614 120.733  0.00  0.00    -0.241 OA
ATOM     24  O   LIG d   1      -2.803  76.680 118.790  0.00  0.00    -0.241 OA
ENDBRANCH   3  22
TORSDOF 7
ENDMDL
MODEL 8
REMARK VINA RESULT:      -5.0      3.537      6.157
REMARK  7 active torsions:
REMARK  status: ('A' for Active; 'I' for Inactive)
REMARK    1  A    between atoms: C_2  and  C_3 
REMARK    2  A    between atoms: C_3  and  O_6 
REMARK    3  A    between atoms: C_3  and  C_4 
REMARK    4  A    between atoms: C_7  and  O_6 
REMARK    5  A    between atoms: C_9  and  C_10 
REMARK    6  A    between atoms: N_15  and  C_14 
REMARK    7  A    between atoms: N_20  and  C_19 
REMARK       I    between atoms: C_22  and  N_20 
ROOT
ATOM      1  C   LIG d   1      -3.045  76.922 117.342  0.00  0.00     0.161 C 
ATOM      2  C   LIG d   1      -3.115  77.445 116.040  0.00  0.00     0.016 C 
ATOM      3  C   LIG d   1      -2.216  77.089 115.009  0.00  0.00     0.038 C 
ATOM      4  C   LIG d   1      -1.271  76.065 115.170  0.00  0.00     0.028 C 
ATOM      5  C   LIG d   1      -0.833  75.866 116.617  0.00  0.00    -0.047 C 
ATOM      6  C   LIG d   1      -2.090  75.721 117.506  0.00  0.00     0.091 C 
ENDROOT
BRANCH   1   7
ATOM      7  O   LIG d   1      -4.366  76.578 117.803  0.00  0.00    -0.368 OA
BRANCH   7   8
ATOM      8  C   LIG d   1      -5.439  76.742 116.843  0.00  0.00     0.119 C 
BRANCH   8   9
ATOM      9  C   LIG d   1      -6.591  77.474 117.557  0.00  0.00     0.028 C 
ATOM     10  C   LIG d   1      -6.244  77.839 119.010  0.00  0.00     0.006 C 
ENDBRANCH   8   9
BRANCH   8  11
ATOM     11  C   LIG d   1      -6.019  75.390 116.418  0.00  0.00     0.028 C 
ATOM     12  C   LIG d   1      -5.828  75.104 114.920  0.00  0.00     0.006 C 
ENDBRANCH   8  11
ENDBRANCH   7   8
ENDBRANCH   1   7
BRANCH   6  13
ATOM     13  N   LIG d   1      -1.754  75.607 118.949  0.00  0.00    -0.311 N 
ATOM     14  C   LIG d   1      -1.544  74.444 119.564  0.00  0.00     0.210 C 
ATOM     15  C   LIG d   1      -1.230  74.551 121.059  0.00  0.00     0.109 C 
ATOM     16  O   LIG d   1      -1.557  73.337 119.005  0.00  0.00    -0.276 OA
ATOM     17  H   LIG d   1      -1.692  76.459 119.471  0.00  0.00     0.149 HD
ENDBRANCH   6  13
BRANCH   5  18
ATOM     18  N   LIG d   1       0.045  74.682 116.659  0.00  0.00     0.381 N 
ATOM     19  H   LIG d   1      -0.423  73.898 116.249  0.00  0.00    -0.090 HD
ATOM     20  H   LIG d   1       0.247  74.461 117.618  0.00  0.00    -0.090 HD
ATOM     21  H   LIG d   1       0.891  74.867 116.168  0.00  0.00    -0.090 HD
ENDBRANCH   5  18
BRANCH   3  22
ATOM     22  C   LIG d   1      -2.231  77.789 113.812  0.00  0.00     0.382 C 
ATOM     23  O   LIG d   1      -2.675  78.962 113.777  0.00  0.00    -0.241 OA
ATOM     24  O   LIG d   1      -1.847  77.247 112.758  0.00  0.00    -0.241 OA
ENDBRANCH   3  22
TORSDOF 7
ENDMDL
MODEL 9
REMARK VINA RESULT:      -5.0     12.722     14.825
REMARK  7 active torsions:
REMARK  status: ('A' for Active; 'I' for Inactive)
REMARK    1  A    between atoms: C_2  and  C_3 
REMARK    2  A    between atoms: C_3  and  O_6 
REMARK    3  A    between atoms: C_3  and  C_4 
REMARK    4  A    between atoms: C_7  and  O_6 
REMARK    5  A    between atoms: C_9  and  C_10 
REMARK    6  A    between atoms: N_15  and  C_14 
REMARK    7  A    between atoms: N_20  and  C_19 
REMARK       I    between atoms: C_22  and  N_20 
ROOT
ATOM      1  C   LIG d   1      -4.441  91.639 118.070  0.00  0.00     0.161 C 
ATOM      2  C   LIG d   1      -5.424  91.688 117.067  0.00  0.00     0.016 C 
ATOM      3  C   LIG d   1      -5.624  90.656 116.122  0.00  0.00     0.038 C 
ATOM      4  C   LIG d   1      -4.950  89.429 116.210  0.00  0.00     0.028 C 
ATOM      5  C   LIG d   1      -3.593  89.532 116.898  0.00  0.00    -0.047 C 
ATOM      6  C   LIG d   1      -3.770  90.261 118.250  0.00  0.00     0.091 C 
ENDROOT
BRANCH   1   7
ATOM      7  O   LIG d   1      -4.994  92.094 119.320  0.00  0.00    -0.368 OA
BRANCH   7   8
ATOM      8  C   LIG d   1      -4.411  93.299 119.874  0.00  0.00     0.119 C 
BRANCH   8   9
ATOM      9  C   LIG d   1      -3.945  92.972 121.306  0.00  0.00     0.028 C 
ATOM     10  C   LIG d   1      -4.485  91.621 121.805  0.00  0.00     0.006 C 
ENDBRANCH   8   9
BRANCH   8  11
ATOM     11  C   LIG d   1      -5.461  94.404 120.032  0.00  0.00     0.028 C 
ATOM     12  C   LIG d   1      -6.895  93.898 119.813  0.00  0.00     0.006 C 
ENDBRANCH   8  11
ENDBRANCH   7   8
ENDBRANCH   1   7
BRANCH   6  13
ATOM     13  N   LIG d   1      -2.477  90.478 118.950  0.00  0.00    -0.311 N 
ATOM     14  C   LIG d   1      -1.983  89.635 119.855  0.00  0.00     0.210 C 
ATOM     15  C   LIG d   1      -0.646  90.058 120.471  0.00  0.00     0.109 C 
ATOM     16  O   LIG d   1      -2.509  88.560 120.182  0.00  0.00    -0.276 OA
ATOM     17  H   LIG d   1      -1.969  91.310 118.722  0.00  0.00     0.149 HD
ENDBRANCH   6  13
BRANCH   5  18
ATOM     18  N   LIG d   1      -3.063  88.163 117.044  0.00  0.00     0.381 N 
ATOM     19  H   LIG d   1      -2.845  87.985 118.004  0.00  0.00    -0.090 HD
ATOM     20  H   LIG d   1      -2.216  88.083 116.509  0.00  0.00    -0.090 HD
ATOM     21  H   LIG d   1      -3.733  87.501 116.720  0.00  0.00    -0.090 HD
ENDBRANCH   5  18
BRANCH   3  22
ATOM     22  C   LIG d   1      -6.480  90.863 115.050  0.00  0.00     0.382 C 
ATOM     23  O   LIG d   1      -6.278  91.818 114.262  0.00  0.00    -0.241 OA
ATOM     24  O   LIG d   1      -7.476  90.133 114.888  0.00  0.00    -0.241 OA
ENDBRANCH   3  22
TORSDOF 7
ENDMDL
