MODEL 1
REMARK VINA RESULT:      -6.7      0.000      0.000
REMARK  7 active torsions:
REMARK  status: ('A' for Active; 'I' for Inactive)
REMARK    1  A    between atoms: C_2  and  C_3 
REMARK    2  A    between atoms: C_3  and  O_6 
REMARK    3  A    between atoms: C_3  and  C_4 
REMARK    4  A    between atoms: C_7  and  O_6 
REMARK    5  A    between atoms: C_9  and  C_10 
REMARK    6  A    between atoms: N_15  and  C_14 
REMARK    7  A    between atoms: N_20  and  C_19 
REMARK       I    between atoms: C_22  and  N_20 
ROOT
ATOM      1  C   LIG d   1       0.958  83.891 109.543  0.00  0.00     0.161 C 
ATOM      2  C   LIG d   1       0.651  85.178 110.014  0.00  0.00     0.016 C 
ATOM      3  C   LIG d   1      -0.190  85.420 111.125  0.00  0.00     0.038 C 
ATOM      4  C   LIG d   1      -0.663  84.378 111.937  0.00  0.00     0.028 C 
ATOM      5  C   LIG d   1      -0.792  83.048 111.202  0.00  0.00    -0.047 C 
ATOM      6  C   LIG d   1       0.541  82.741 110.483  0.00  0.00     0.091 C 
ENDROOT
BRANCH   1   7
ATOM      7  O   LIG d   1       2.365  83.805 109.239  0.00  0.00    -0.368 OA
BRANCH   7   8
ATOM      8  C   LIG d   1       3.243  83.533 110.358  0.00  0.00     0.119 C 
BRANCH   8   9
ATOM      9  C   LIG d   1       3.851  84.876 110.806  0.00  0.00     0.028 C 
ATOM     10  C   LIG d   1       3.633  85.148 112.304  0.00  0.00     0.006 C 
ENDBRANCH   8   9
BRANCH   8  11
ATOM     11  C   LIG d   1       4.435  82.670 109.935  0.00  0.00     0.028 C 
ATOM     12  C   LIG d   1       4.210  81.963 108.588  0.00  0.00     0.006 C 
ENDBRANCH   8  11
ENDBRANCH   7   8
ENDBRANCH   1   7
BRANCH   6  13
ATOM     13  N   LIG d   1       0.474  81.498 109.671  0.00  0.00    -0.311 N 
ATOM     14  C   LIG d   1       1.142  80.387 109.975  0.00  0.00     0.210 C 
ATOM     15  C   LIG d   1       0.947  79.227 108.993  0.00  0.00     0.109 C 
ATOM     16  O   LIG d   1       1.851  80.241 110.981  0.00  0.00    -0.276 OA
ATOM     17  H   LIG d   1      -0.104  81.518 108.853  0.00  0.00     0.149 HD
ENDBRANCH   6  13
BRANCH   5  18
ATOM     18  N   LIG d   1      -1.162  82.024 112.197  0.00  0.00     0.381 N 
ATOM     19  H   LIG d   1      -0.936  81.114 111.847  0.00  0.00    -0.090 HD
ATOM     20  H   LIG d   1      -2.154  82.064 112.352  0.00  0.00    -0.090 HD
ATOM     21  H   LIG d   1      -0.677  82.188 113.052  0.00  0.00    -0.090 HD
ENDBRANCH   5  18
BRANCH   3  22
ATOM     22  C   LIG d   1      -0.598  86.714 111.409  0.00  0.00     0.382 C 
ATOM     23  O   LIG d   1       0.220  87.541 111.879  0.00  0.00    -0.241 OA
ATOM     24  O   LIG d   1      -1.785  87.053 111.242  0.00  0.00    -0.241 OA
ENDBRANCH   3  22
TORSDOF 7
ENDMDL
MODEL 2
REMARK VINA RESULT:      -6.4      2.517      4.127
REMARK  7 active torsions:
REMARK  status: ('A' for Active; 'I' for Inactive)
REMARK    1  A    between atoms: C_2  and  C_3 
REMARK    2  A    between atoms: C_3  and  O_6 
REMARK    3  A    between atoms: C_3  and  C_4 
REMARK    4  A    between atoms: C_7  and  O_6 
REMARK    5  A    between atoms: C_9  and  C_10 
REMARK    6  A    between atoms: N_15  and  C_14 
REMARK    7  A    between atoms: N_20  and  C_19 
REMARK       I    between atoms: C_22  and  N_20 
ROOT
ATOM      1  C   LIG d   1       0.407  82.113 111.131  0.00  0.00     0.161 C 
ATOM      2  C   LIG d   1      -0.770  82.046 111.894  0.00  0.00     0.016 C 
ATOM      3  C   LIG d   1      -1.517  80.859 112.069  0.00  0.00     0.038 C 
ATOM      4  C   LIG d   1      -1.052  79.616 111.613  0.00  0.00     0.028 C 
ATOM      5  C   LIG d   1      -0.126  79.722 110.406  0.00  0.00    -0.047 C 
ATOM      6  C   LIG d   1       0.990  80.745 110.718  0.00  0.00     0.091 C 
ENDROOT
BRANCH   1   7
ATOM      7  O   LIG d   1       1.400  82.890 111.831  0.00  0.00    -0.368 OA
BRANCH   7   8
ATOM      8  C   LIG d   1       1.673  84.208 111.294  0.00  0.00     0.119 C 
BRANCH   8   9
ATOM      9  C   LIG d   1       1.021  84.284 109.900  0.00  0.00     0.028 C 
ATOM     10  C   LIG d   1       0.369  85.651 109.631  0.00  0.00     0.006 C 
ENDBRANCH   8   9
BRANCH   8  11
ATOM     11  C   LIG d   1       3.171  84.412 111.053  0.00  0.00     0.028 C 
ATOM     12  C   LIG d   1       3.655  85.813 111.458  0.00  0.00     0.006 C 
ENDBRANCH   8  11
ENDBRANCH   7   8
ENDBRANCH   1   7
BRANCH   6  13
ATOM     13  N   LIG d   1       1.892  80.972 109.559  0.00  0.00    -0.311 N 
ATOM     14  C   LIG d   1       3.218  81.029 109.662  0.00  0.00     0.210 C 
ATOM     15  C   LIG d   1       3.959  81.291 108.347  0.00  0.00     0.109 C 
ATOM     16  O   LIG d   1       3.854  80.856 110.713  0.00  0.00    -0.276 OA
ATOM     17  H   LIG d   1       1.461  81.091 108.663  0.00  0.00     0.149 HD
ENDBRANCH   6  13
BRANCH   5  18
ATOM     18  N   LIG d   1       0.393  78.370 110.123  0.00  0.00     0.381 N 
ATOM     19  H   LIG d   1       1.365  78.422 109.891  0.00  0.00    -0.090 HD
ATOM     20  H   LIG d   1      -0.100  77.992 109.333  0.00  0.00    -0.090 HD
ATOM     21  H   LIG d   1       0.264  77.782 110.916  0.00  0.00    -0.090 HD
ENDBRANCH   5  18
BRANCH   3  22
ATOM     22  C   LIG d   1      -2.764  80.914 112.672  0.00  0.00     0.382 C 
ATOM     23  O   LIG d   1      -3.168  79.950 113.367  0.00  0.00    -0.241 OA
ATOM     24  O   LIG d   1      -3.509  81.896 112.494  0.00  0.00    -0.241 OA
ENDBRANCH   3  22
TORSDOF 7
ENDMDL
MODEL 3
REMARK VINA RESULT:      -6.3      2.593      4.766
REMARK  7 active torsions:
REMARK  status: ('A' for Active; 'I' for Inactive)
REMARK    1  A    between atoms: C_2  and  C_3 
REMARK    2  A    between atoms: C_3  and  O_6 
REMARK    3  A    between atoms: C_3  and  C_4 
REMARK    4  A    between atoms: C_7  and  O_6 
REMARK    5  A    between atoms: C_9  and  C_10 
REMARK    6  A    between atoms: N_15  and  C_14 
REMARK    7  A    between atoms: N_20  and  C_19 
REMARK       I    between atoms: C_22  and  N_20 
ROOT
ATOM      1  C   LIG d   1       1.962  83.346 111.711  0.00  0.00     0.161 C 
ATOM      2  C   LIG d   1       0.886  82.451 111.593  0.00  0.00     0.016 C 
ATOM      3  C   LIG d   1      -0.455  82.805 111.870  0.00  0.00     0.038 C 
ATOM      4  C   LIG d   1      -0.831  84.129 112.139  0.00  0.00     0.028 C 
ATOM      5  C   LIG d   1       0.284  84.961 112.763  0.00  0.00    -0.047 C 
ATOM      6  C   LIG d   1       1.557  84.823 111.896  0.00  0.00     0.091 C 
ENDROOT
BRANCH   1   7
ATOM      7  O   LIG d   1       2.841  83.206 110.577  0.00  0.00    -0.368 OA
BRANCH   7   8
ATOM      8  C   LIG d   1       2.254  82.634 109.383  0.00  0.00     0.119 C 
BRANCH   8   9
ATOM      9  C   LIG d   1       3.394  81.994 108.567  0.00  0.00     0.028 C 
ATOM     10  C   LIG d   1       3.891  80.677 109.187  0.00  0.00     0.006 C 
ENDBRANCH   8   9
BRANCH   8  11
ATOM     11  C   LIG d   1       1.666  83.720 108.476  0.00  0.00     0.028 C 
ATOM     12  C   LIG d   1       1.597  83.292 107.002  0.00  0.00     0.006 C 
ENDBRANCH   8  11
ENDBRANCH   7   8
ENDBRANCH   1   7
BRANCH   6  13
ATOM     13  N   LIG d   1       2.721  85.539 112.481  0.00  0.00    -0.311 N 
ATOM     14  C   LIG d   1       3.026  86.802 112.190  0.00  0.00     0.210 C 
ATOM     15  C   LIG d   1       4.279  87.342 112.888  0.00  0.00     0.109 C 
ATOM     16  O   LIG d   1       2.361  87.538 111.446  0.00  0.00    -0.276 OA
ATOM     17  H   LIG d   1       3.297  85.027 113.120  0.00  0.00     0.149 HD
ENDBRANCH   6  13
BRANCH   5  18
ATOM     18  N   LIG d   1      -0.199  86.351 112.863  0.00  0.00     0.381 N 
ATOM     19  H   LIG d   1       0.577  86.973 112.964  0.00  0.00    -0.090 HD
ATOM     20  H   LIG d   1      -0.779  86.435 113.680  0.00  0.00    -0.090 HD
ATOM     21  H   LIG d   1      -0.722  86.590 112.049  0.00  0.00    -0.090 HD
ENDBRANCH   5  18
BRANCH   3  22
ATOM     22  C   LIG d   1      -1.429  81.820 111.917  0.00  0.00     0.382 C 
ATOM     23  O   LIG d   1      -1.183  80.672 111.474  0.00  0.00    -0.241 OA
ATOM     24  O   LIG d   1      -2.566  82.077 112.357  0.00  0.00    -0.241 OA
ENDBRANCH   3  22
TORSDOF 7
ENDMDL
MODEL 4
REMARK VINA RESULT:      -6.2      1.529      2.255
REMARK  7 active torsions:
REMARK  status: ('A' for Active; 'I' for Inactive)
REMARK    1  A    between atoms: C_2  and  C_3 
REMARK    2  A    between atoms: C_3  and  O_6 
REMARK    3  A    between atoms: C_3  and  C_4 
REMARK    4  A    between atoms: C_7  and  O_6 
REMARK    5  A    between atoms: C_9  and  C_10 
REMARK    6  A    between atoms: N_15  and  C_14 
REMARK    7  A    between atoms: N_20  and  C_19 
REMARK       I    between atoms: C_22  and  N_20 
ROOT
ATOM      1  C   LIG d   1       1.371  83.116 109.893  0.00  0.00     0.161 C 
ATOM      2  C   LIG d   1       1.616  84.462 110.214  0.00  0.00     0.016 C 
ATOM      3  C   LIG d   1       0.845  85.191 111.148  0.00  0.00     0.038 C 
ATOM      4  C   LIG d   1      -0.136  84.577 111.941  0.00  0.00     0.028 C 
ATOM      5  C   LIG d   1      -0.755  83.344 111.291  0.00  0.00    -0.047 C 
ATOM      6  C   LIG d   1       0.377  82.398 110.829  0.00  0.00     0.091 C 
ENDROOT
BRANCH   1   7
ATOM      7  O   LIG d   1       2.617  82.393 109.836  0.00  0.00    -0.368 OA
BRANCH   7   8
ATOM      8  C   LIG d   1       2.933  81.767 108.568  0.00  0.00     0.119 C 
BRANCH   8   9
ATOM      9  C   LIG d   1       3.063  80.252 108.819  0.00  0.00     0.028 C 
ATOM     10  C   LIG d   1       3.270  79.920 110.306  0.00  0.00     0.006 C 
ENDBRANCH   8   9
BRANCH   8  11
ATOM     11  C   LIG d   1       4.306  82.212 108.054  0.00  0.00     0.028 C 
ATOM     12  C   LIG d   1       5.123  82.966 109.115  0.00  0.00     0.006 C 
ENDBRANCH   8  11
ENDBRANCH   7   8
ENDBRANCH   1   7
BRANCH   6  13
ATOM     13  N   LIG d   1      -0.140  81.206 110.107  0.00  0.00    -0.311 N 
ATOM     14  C   LIG d   1      -0.395  80.042 110.703  0.00  0.00     0.210 C 
ATOM     15  C   LIG d   1      -0.903  78.937 109.771  0.00  0.00     0.109 C 
ATOM     16  O   LIG d   1      -0.279  79.830 111.919  0.00  0.00    -0.276 OA
ATOM     17  H   LIG d   1      -0.292  81.300 109.122  0.00  0.00     0.149 HD
ENDBRANCH   6  13
BRANCH   5  18
ATOM     18  N   LIG d   1      -1.658  82.725 112.280  0.00  0.00     0.381 N 
ATOM     19  H   LIG d   1      -2.480  82.386 111.822  0.00  0.00    -0.090 HD
ATOM     20  H   LIG d   1      -1.934  83.423 112.949  0.00  0.00    -0.090 HD
ATOM     21  H   LIG d   1      -1.194  81.976 112.744  0.00  0.00    -0.090 HD
ENDBRANCH   5  18
BRANCH   3  22
ATOM     22  C   LIG d   1       1.025  86.561 111.267  0.00  0.00     0.382 C 
ATOM     23  O   LIG d   1       2.123  87.079 110.949  0.00  0.00    -0.241 OA
ATOM     24  O   LIG d   1       0.120  87.279 111.731  0.00  0.00    -0.241 OA
ENDBRANCH   3  22
TORSDOF 7
ENDMDL
MODEL 5
REMARK VINA RESULT:      -6.0      2.483      4.659
REMARK  7 active torsions:
REMARK  status: ('A' for Active; 'I' for Inactive)
REMARK    1  A    between atoms: C_2  and  C_3 
REMARK    2  A    between atoms: C_3  and  O_6 
REMARK    3  A    between atoms: C_3  and  C_4 
REMARK    4  A    between atoms: C_7  and  O_6 
REMARK    5  A    between atoms: C_9  and  C_10 
REMARK    6  A    between atoms: N_15  and  C_14 
REMARK    7  A    between atoms: N_20  and  C_19 
REMARK       I    between atoms: C_22  and  N_20 
ROOT
ATOM      1  C   LIG d   1       1.224  81.392 111.780  0.00  0.00     0.161 C 
ATOM      2  C   LIG d   1       2.306  82.044 111.165  0.00  0.00     0.016 C 
ATOM      3  C   LIG d   1       2.487  82.096 109.764  0.00  0.00     0.038 C 
ATOM      4  C   LIG d   1       1.512  81.626 108.871  0.00  0.00     0.028 C 
ATOM      5  C   LIG d   1       0.647  80.513 109.451  0.00  0.00    -0.047 C 
ATOM      6  C   LIG d   1       0.092  80.969 110.820  0.00  0.00     0.091 C 
ENDROOT
BRANCH   1   7
ATOM      7  O   LIG d   1       0.699  82.212 112.843  0.00  0.00    -0.368 OA
BRANCH   7   8
ATOM      8  C   LIG d   1       0.904  83.640 112.706  0.00  0.00     0.119 C 
BRANCH   8   9
ATOM      9  C   LIG d   1       1.311  84.184 114.089  0.00  0.00     0.028 C 
ATOM     10  C   LIG d   1       2.774  83.864 114.438  0.00  0.00     0.006 C 
ENDBRANCH   8   9
BRANCH   8  11
ATOM     11  C   LIG d   1      -0.402  84.359 112.356  0.00  0.00     0.028 C 
ATOM     12  C   LIG d   1      -0.531  84.663 110.855  0.00  0.00     0.006 C 
ENDBRANCH   8  11
ENDBRANCH   7   8
ENDBRANCH   1   7
BRANCH   6  13
ATOM     13  N   LIG d   1      -0.697  79.906 111.495  0.00  0.00    -0.311 N 
ATOM     14  C   LIG d   1      -1.815  80.145 112.179  0.00  0.00     0.210 C 
ATOM     15  C   LIG d   1      -2.461  78.910 112.813  0.00  0.00     0.109 C 
ATOM     16  O   LIG d   1      -2.350  81.258 112.293  0.00  0.00    -0.276 OA
ATOM     17  H   LIG d   1      -0.351  78.969 111.427  0.00  0.00     0.149 HD
ENDBRANCH   6  13
BRANCH   5  18
ATOM     18  N   LIG d   1      -0.412  80.214 108.469  0.00  0.00     0.381 N 
ATOM     19  H   LIG d   1      -0.676  79.251 108.537  0.00  0.00    -0.090 HD
ATOM     20  H   LIG d   1      -0.054  80.378 107.545  0.00  0.00    -0.090 HD
ATOM     21  H   LIG d   1      -1.204  80.795 108.634  0.00  0.00    -0.090 HD
ENDBRANCH   5  18
BRANCH   3  22
ATOM     22  C   LIG d   1       3.675  82.588 109.243  0.00  0.00     0.382 C 
ATOM     23  O   LIG d   1       4.179  83.637 109.713  0.00  0.00    -0.241 OA
ATOM     24  O   LIG d   1       4.224  82.022 108.279  0.00  0.00    -0.241 OA
ENDBRANCH   3  22
TORSDOF 7
ENDMDL
MODEL 6
REMARK VINA RESULT:      -5.8      2.264      4.936
REMARK  7 active torsions:
REMARK  status: ('A' for Active; 'I' for Inactive)
REMARK    1  A    between atoms: C_2  and  C_3 
REMARK    2  A    between atoms: C_3  and  O_6 
REMARK    3  A    between atoms: C_3  and  C_4 
REMARK    4  A    between atoms: C_7  and  O_6 
REMARK    5  A    between atoms: C_9  and  C_10 
REMARK    6  A    between atoms: N_15  and  C_14 
REMARK    7  A    between atoms: N_20  and  C_19 
REMARK       I    between atoms: C_22  and  N_20 
ROOT
ATOM      1  C   LIG d   1       0.689  82.231 110.779  0.00  0.00     0.161 C 
ATOM      2  C   LIG d   1       1.896  82.595 110.159  0.00  0.00     0.016 C 
ATOM      3  C   LIG d   1       2.742  81.672 109.502  0.00  0.00     0.038 C 
ATOM      4  C   LIG d   1       2.361  80.339 109.289  0.00  0.00     0.028 C 
ATOM      5  C   LIG d   1       1.384  79.813 110.335  0.00  0.00    -0.047 C 
ATOM      6  C   LIG d   1       0.203  80.802 110.460  0.00  0.00     0.091 C 
ENDROOT
BRANCH   1   7
ATOM      7  O   LIG d   1      -0.335  83.193 110.456  0.00  0.00    -0.368 OA
BRANCH   7   8
ATOM      8  C   LIG d   1      -0.679  84.133 111.503  0.00  0.00     0.119 C 
BRANCH   8   9
ATOM      9  C   LIG d   1      -0.786  85.528 110.856  0.00  0.00     0.028 C 
ATOM     10  C   LIG d   1       0.189  85.705 109.680  0.00  0.00     0.006 C 
ENDBRANCH   8   9
BRANCH   8  11
ATOM     11  C   LIG d   1       0.444  84.251 112.538  0.00  0.00     0.028 C 
ATOM     12  C   LIG d   1       0.418  85.588 113.296  0.00  0.00     0.006 C 
ENDBRANCH   8  11
ENDBRANCH   7   8
ENDBRANCH   1   7
BRANCH   6  13
ATOM     13  N   LIG d   1      -0.757  80.406 111.523  0.00  0.00    -0.311 N 
ATOM     14  C   LIG d   1      -1.711  79.494 111.346  0.00  0.00     0.210 C 
ATOM     15  C   LIG d   1      -2.606  79.250 112.565  0.00  0.00     0.109 C 
ATOM     16  O   LIG d   1      -1.881  78.840 110.306  0.00  0.00    -0.276 OA
ATOM     17  H   LIG d   1      -0.672  80.865 112.409  0.00  0.00     0.149 HD
ENDBRANCH   6  13
BRANCH   5  18
ATOM     18  N   LIG d   1       0.965  78.463 109.915  0.00  0.00     0.381 N 
ATOM     19  H   LIG d   1       0.021  78.488 109.585  0.00  0.00    -0.090 HD
ATOM     20  H   LIG d   1       1.005  77.848 110.709  0.00  0.00    -0.090 HD
ATOM     21  H   LIG d   1       1.567  78.127 109.195  0.00  0.00    -0.090 HD
ENDBRANCH   5  18
BRANCH   3  22
ATOM     22  C   LIG d   1       4.003  82.071 109.086  0.00  0.00     0.382 C 
ATOM     23  O   LIG d   1       4.429  83.214 109.382  0.00  0.00    -0.241 OA
ATOM     24  O   LIG d   1       4.703  81.320 108.380  0.00  0.00    -0.241 OA
ENDBRANCH   3  22
TORSDOF 7
ENDMDL
MODEL 7
REMARK VINA RESULT:      -5.8      2.095      5.249
REMARK  7 active torsions:
REMARK  status: ('A' for Active; 'I' for Inactive)
REMARK    1  A    between atoms: C_2  and  C_3 
REMARK    2  A    between atoms: C_3  and  O_6 
REMARK    3  A    between atoms: C_3  and  C_4 
REMARK    4  A    between atoms: C_7  and  O_6 
REMARK    5  A    between atoms: C_9  and  C_10 
REMARK    6  A    between atoms: N_15  and  C_14 
REMARK    7  A    between atoms: N_20  and  C_19 
REMARK       I    between atoms: C_22  and  N_20 
ROOT
ATOM      1  C   LIG d   1       2.505  81.737 111.970  0.00  0.00     0.161 C 
ATOM      2  C   LIG d   1       2.381  80.634 111.108  0.00  0.00     0.016 C 
ATOM      3  C   LIG d   1       1.143  80.183 110.596  0.00  0.00     0.038 C 
ATOM      4  C   LIG d   1      -0.046  80.901 110.791  0.00  0.00     0.028 C 
ATOM      5  C   LIG d   1      -0.048  81.734 112.068  0.00  0.00    -0.047 C 
ATOM      6  C   LIG d   1       1.232  82.599 112.105  0.00  0.00     0.091 C 
ENDROOT
BRANCH   1   7
ATOM      7  O   LIG d   1       3.622  82.552 111.563  0.00  0.00    -0.368 OA
BRANCH   7   8
ATOM      8  C   LIG d   1       3.471  83.257 110.306  0.00  0.00     0.119 C 
BRANCH   8   9
ATOM      9  C   LIG d   1       4.707  82.936 109.444  0.00  0.00     0.028 C 
ATOM     10  C   LIG d   1       4.458  81.769 108.473  0.00  0.00     0.006 C 
ENDBRANCH   8   9
BRANCH   8  11
ATOM     11  C   LIG d   1       3.503  84.775 110.512  0.00  0.00     0.028 C 
ATOM     12  C   LIG d   1       4.060  85.178 111.886  0.00  0.00     0.006 C 
ENDBRANCH   8  11
ENDBRANCH   7   8
ENDBRANCH   1   7
BRANCH   6  13
ATOM     13  N   LIG d   1       1.351  83.383 113.362  0.00  0.00    -0.311 N 
ATOM     14  C   LIG d   1       0.962  84.651 113.474  0.00  0.00     0.210 C 
ATOM     15  C   LIG d   1       1.192  85.279 114.852  0.00  0.00     0.109 C 
ATOM     16  O   LIG d   1       0.419  85.307 112.572  0.00  0.00    -0.276 OA
ATOM     17  H   LIG d   1       1.752  82.918 114.153  0.00  0.00     0.149 HD
ENDBRANCH   6  13
BRANCH   5  18
ATOM     18  N   LIG d   1      -1.287  82.535 112.075  0.00  0.00     0.381 N 
ATOM     19  H   LIG d   1      -1.949  82.129 112.707  0.00  0.00    -0.090 HD
ATOM     20  H   LIG d   1      -1.685  82.526 111.153  0.00  0.00    -0.090 HD
ATOM     21  H   LIG d   1      -1.086  83.471 112.350  0.00  0.00    -0.090 HD
ENDBRANCH   5  18
BRANCH   3  22
ATOM     22  C   LIG d   1       1.081  78.978 109.911  0.00  0.00     0.382 C 
ATOM     23  O   LIG d   1       0.041  78.279 109.966  0.00  0.00    -0.241 OA
ATOM     24  O   LIG d   1       2.068  78.561 109.276  0.00  0.00    -0.241 OA
ENDBRANCH   3  22
TORSDOF 7
ENDMDL
MODEL 8
REMARK VINA RESULT:      -5.7      1.628      2.551
REMARK  7 active torsions:
REMARK  status: ('A' for Active; 'I' for Inactive)
REMARK    1  A    between atoms: C_2  and  C_3 
REMARK    2  A    between atoms: C_3  and  O_6 
REMARK    3  A    between atoms: C_3  and  C_4 
REMARK    4  A    between atoms: C_7  and  O_6 
REMARK    5  A    between atoms: C_9  and  C_10 
REMARK    6  A    between atoms: N_15  and  C_14 
REMARK    7  A    between atoms: N_20  and  C_19 
REMARK       I    between atoms: C_22  and  N_20 
ROOT
ATOM      1  C   LIG d   1       2.376  84.796 110.152  0.00  0.00     0.161 C 
ATOM      2  C   LIG d   1       1.446  85.773 110.545  0.00  0.00     0.016 C 
ATOM      3  C   LIG d   1       0.097  85.483 110.853  0.00  0.00     0.038 C 
ATOM      4  C   LIG d   1      -0.379  84.166 110.934  0.00  0.00     0.028 C 
ATOM      5  C   LIG d   1       0.393  83.188 110.055  0.00  0.00    -0.047 C 
ATOM      6  C   LIG d   1       1.904  83.340 110.343  0.00  0.00     0.091 C 
ENDROOT
BRANCH   1   7
ATOM      7  O   LIG d   1       3.628  85.011 110.833  0.00  0.00    -0.368 OA
BRANCH   7   8
ATOM      8  C   LIG d   1       3.538  85.536 112.181  0.00  0.00     0.119 C 
BRANCH   8   9
ATOM      9  C   LIG d   1       4.477  86.754 112.267  0.00  0.00     0.028 C 
ATOM     10  C   LIG d   1       3.960  87.825 113.243  0.00  0.00     0.006 C 
ENDBRANCH   8   9
BRANCH   8  11
ATOM     11  C   LIG d   1       4.078  84.534 113.206  0.00  0.00     0.028 C 
ATOM     12  C   LIG d   1       3.007  84.066 114.204  0.00  0.00     0.006 C 
ENDBRANCH   8  11
ENDBRANCH   7   8
ENDBRANCH   1   7
BRANCH   6  13
ATOM     13  N   LIG d   1       2.738  82.478 109.464  0.00  0.00    -0.311 N 
ATOM     14  C   LIG d   1       3.658  81.633 109.926  0.00  0.00     0.210 C 
ATOM     15  C   LIG d   1       4.419  80.854 108.848  0.00  0.00     0.109 C 
ATOM     16  O   LIG d   1       3.893  81.430 111.126  0.00  0.00    -0.276 OA
ATOM     17  H   LIG d   1       2.591  82.556 108.477  0.00  0.00     0.149 HD
ENDBRANCH   6  13
BRANCH   5  18
ATOM     18  N   LIG d   1      -0.116  81.833 110.341  0.00  0.00     0.381 N 
ATOM     19  H   LIG d   1       0.306  81.482 111.177  0.00  0.00    -0.090 HD
ATOM     20  H   LIG d   1       0.134  81.225 109.582  0.00  0.00    -0.090 HD
ATOM     21  H   LIG d   1      -1.107  81.856 110.445  0.00  0.00    -0.090 HD
ENDBRANCH   5  18
BRANCH   3  22
ATOM     22  C   LIG d   1      -0.803  86.521 111.044  0.00  0.00     0.382 C 
ATOM     23  O   LIG d   1      -0.492  87.493 111.773  0.00  0.00    -0.241 OA
ATOM     24  O   LIG d   1      -1.938  86.476 110.532  0.00  0.00    -0.241 OA
ENDBRANCH   3  22
TORSDOF 7
ENDMDL
MODEL 9
REMARK VINA RESULT:      -5.7      2.182      3.104
REMARK  7 active torsions:
REMARK  status: ('A' for Active; 'I' for Inactive)
REMARK    1  A    between atoms: C_2  and  C_3 
REMARK    2  A    between atoms: C_3  and  O_6 
REMARK    3  A    between atoms: C_3  and  C_4 
REMARK    4  A    between atoms: C_7  and  O_6 
REMARK    5  A    between atoms: C_9  and  C_10 
REMARK    6  A    between atoms: N_15  and  C_14 
REMARK    7  A    between atoms: N_20  and  C_19 
REMARK       I    between atoms: C_22  and  N_20 
ROOT
ATOM      1  C   LIG d   1       0.835  83.611 110.812  0.00  0.00     0.161 C 
ATOM      2  C   LIG d   1       1.645  84.755 110.719  0.00  0.00     0.016 C 
ATOM      3  C   LIG d   1       2.337  85.310 111.820  0.00  0.00     0.038 C 
ATOM      4  C   LIG d   1       2.387  84.667 113.066  0.00  0.00     0.028 C 
ATOM      5  C   LIG d   1       1.176  83.782 113.339  0.00  0.00    -0.047 C 
ATOM      6  C   LIG d   1       0.967  82.832 112.138  0.00  0.00     0.091 C 
ENDROOT
BRANCH   1   7
ATOM      7  O   LIG d   1       1.089  82.740 109.692  0.00  0.00    -0.368 OA
BRANCH   7   8
ATOM      8  C   LIG d   1       2.331  82.963 108.980  0.00  0.00     0.119 C 
BRANCH   8   9
ATOM      9  C   LIG d   1       2.097  82.573 107.508  0.00  0.00     0.028 C 
ATOM     10  C   LIG d   1       1.496  83.725 106.684  0.00  0.00     0.006 C 
ENDBRANCH   8   9
BRANCH   8  11
ATOM     11  C   LIG d   1       3.434  82.024 109.477  0.00  0.00     0.028 C 
ATOM     12  C   LIG d   1       4.839  82.636 109.351  0.00  0.00     0.006 C 
ENDBRANCH   8  11
ENDBRANCH   7   8
ENDBRANCH   1   7
BRANCH   6  13
ATOM     13  N   LIG d   1      -0.248  81.989 112.286  0.00  0.00    -0.311 N 
ATOM     14  C   LIG d   1      -0.278  80.689 111.998  0.00  0.00     0.210 C 
ATOM     15  C   LIG d   1      -1.637  80.012 112.203  0.00  0.00     0.109 C 
ATOM     16  O   LIG d   1       0.700  80.025 111.623  0.00  0.00    -0.276 OA
ATOM     17  H   LIG d   1      -1.079  82.440 112.615  0.00  0.00     0.149 HD
ENDBRANCH   6  13
BRANCH   5  18
ATOM     18  N   LIG d   1       1.423  83.067 114.606  0.00  0.00     0.381 N 
ATOM     19  H   LIG d   1       1.520  83.725 115.353  0.00  0.00    -0.090 HD
ATOM     20  H   LIG d   1       2.282  82.551 114.526  0.00  0.00    -0.090 HD
ATOM     21  H   LIG d   1       0.670  82.444 114.798  0.00  0.00    -0.090 HD
ENDBRANCH   5  18
BRANCH   3  22
ATOM     22  C   LIG d   1       2.956  86.544 111.691  0.00  0.00     0.382 C 
ATOM     23  O   LIG d   1       4.208  86.615 111.640  0.00  0.00    -0.241 OA
ATOM     24  O   LIG d   1       2.281  87.591 111.669  0.00  0.00    -0.241 OA
ENDBRANCH   3  22
TORSDOF 7
ENDMDL
