MODEL 1
REMARK VINA RESULT:      -5.3      0.000      0.000
REMARK  7 active torsions:
REMARK  status: ('A' for Active; 'I' for Inactive)
REMARK    1  A    between atoms: C_2  and  C_3 
REMARK    2  A    between atoms: C_3  and  O_6 
REMARK    3  A    between atoms: C_3  and  C_4 
REMARK    4  A    between atoms: C_7  and  O_6 
REMARK    5  A    between atoms: C_9  and  C_10 
REMARK    6  A    between atoms: N_15  and  C_14 
REMARK    7  A    between atoms: N_20  and  C_19 
REMARK       I    between atoms: C_22  and  N_20 
ROOT
ATOM      1  C   LIG d   1       3.431  89.439 116.006  0.00  0.00     0.161 C 
ATOM      2  C   LIG d   1       2.480  88.797 115.196  0.00  0.00     0.016 C 
ATOM      3  C   LIG d   1       2.680  88.532 113.822  0.00  0.00     0.038 C 
ATOM      4  C   LIG d   1       3.914  88.757 113.195  0.00  0.00     0.028 C 
ATOM      5  C   LIG d   1       4.731  89.867 113.848  0.00  0.00    -0.047 C 
ATOM      6  C   LIG d   1       4.827  89.593 115.366  0.00  0.00     0.091 C 
ENDROOT
BRANCH   1   7
ATOM      7  O   LIG d   1       3.533  88.760 117.273  0.00  0.00    -0.368 OA
BRANCH   7   8
ATOM      8  C   LIG d   1       2.996  89.465 118.419  0.00  0.00     0.119 C 
BRANCH   8   9
ATOM      9  C   LIG d   1       1.637  88.826 118.761  0.00  0.00     0.028 C 
ATOM     10  C   LIG d   1       0.455  89.766 118.468  0.00  0.00     0.006 C 
ENDBRANCH   8   9
BRANCH   8  11
ATOM     11  C   LIG d   1       2.683  90.925 118.079  0.00  0.00     0.028 C 
ATOM     12  C   LIG d   1       3.521  91.921 118.898  0.00  0.00     0.006 C 
ENDBRANCH   8  11
ENDBRANCH   7   8
ENDBRANCH   1   7
BRANCH   6  13
ATOM     13  N   LIG d   1       5.539  90.675 116.094  0.00  0.00    -0.311 N 
ATOM     14  C   LIG d   1       6.496  90.449 116.993  0.00  0.00     0.210 C 
ATOM     15  C   LIG d   1       7.085  91.705 117.641  0.00  0.00     0.109 C 
ATOM     16  O   LIG d   1       6.935  89.328 117.291  0.00  0.00    -0.276 OA
ATOM     17  H   LIG d   1       5.267  91.617 115.890  0.00  0.00     0.149 HD
ENDBRANCH   6  13
BRANCH   5  18
ATOM     18  N   LIG d   1       6.047  89.903 113.183  0.00  0.00     0.381 N 
ATOM     19  H   LIG d   1       6.332  88.973 112.946  0.00  0.00    -0.090 HD
ATOM     20  H   LIG d   1       6.723  90.288 113.819  0.00  0.00    -0.090 HD
ATOM     21  H   LIG d   1       5.998  90.462 112.360  0.00  0.00    -0.090 HD
ENDBRANCH   5  18
BRANCH   3  22
ATOM     22  C   LIG d   1       1.624  88.071 113.050  0.00  0.00     0.382 C 
ATOM     23  O   LIG d   1       1.648  86.906 112.586  0.00  0.00    -0.241 OA
ATOM     24  O   LIG d   1       0.668  88.821 112.776  0.00  0.00    -0.241 OA
ENDBRANCH   3  22
TORSDOF 7
ENDMDL
MODEL 2
REMARK VINA RESULT:      -5.2      1.439      2.300
REMARK  7 active torsions:
REMARK  status: ('A' for Active; 'I' for Inactive)
REMARK    1  A    between atoms: C_2  and  C_3 
REMARK    2  A    between atoms: C_3  and  O_6 
REMARK    3  A    between atoms: C_3  and  C_4 
REMARK    4  A    between atoms: C_7  and  O_6 
REMARK    5  A    between atoms: C_9  and  C_10 
REMARK    6  A    between atoms: N_15  and  C_14 
REMARK    7  A    between atoms: N_20  and  C_19 
REMARK       I    between atoms: C_22  and  N_20 
ROOT
ATOM      1  C   LIG d   1       3.487  89.357 116.016  0.00  0.00     0.161 C 
ATOM      2  C   LIG d   1       2.538  88.725 115.195  0.00  0.00     0.016 C 
ATOM      3  C   LIG d   1       2.736  88.493 113.814  0.00  0.00     0.038 C 
ATOM      4  C   LIG d   1       3.967  88.743 113.189  0.00  0.00     0.028 C 
ATOM      5  C   LIG d   1       4.776  89.845 113.865  0.00  0.00    -0.047 C 
ATOM      6  C   LIG d   1       4.879  89.537 115.376  0.00  0.00     0.091 C 
ENDROOT
BRANCH   1   7
ATOM      7  O   LIG d   1       3.598  88.650 117.267  0.00  0.00    -0.368 OA
BRANCH   7   8
ATOM      8  C   LIG d   1       3.277  87.238 117.232  0.00  0.00     0.119 C 
BRANCH   8   9
ATOM      9  C   LIG d   1       2.741  86.850 118.624  0.00  0.00     0.028 C 
ATOM     10  C   LIG d   1       1.859  87.949 119.240  0.00  0.00     0.006 C 
ENDBRANCH   8   9
BRANCH   8  11
ATOM     11  C   LIG d   1       4.533  86.385 117.030  0.00  0.00     0.028 C 
ATOM     12  C   LIG d   1       4.295  85.186 116.099  0.00  0.00     0.006 C 
ENDBRANCH   8  11
ENDBRANCH   7   8
ENDBRANCH   1   7
BRANCH   6  13
ATOM     13  N   LIG d   1       5.584  90.609 116.126  0.00  0.00    -0.311 N 
ATOM     14  C   LIG d   1       6.537  90.369 117.025  0.00  0.00     0.210 C 
ATOM     15  C   LIG d   1       7.120  91.616 117.698  0.00  0.00     0.109 C 
ATOM     16  O   LIG d   1       6.978  89.244 117.306  0.00  0.00    -0.276 OA
ATOM     17  H   LIG d   1       5.311  91.553 115.937  0.00  0.00     0.149 HD
ENDBRANCH   6  13
BRANCH   5  18
ATOM     18  N   LIG d   1       6.090  89.906 113.196  0.00  0.00     0.381 N 
ATOM     19  H   LIG d   1       6.463  90.831 113.268  0.00  0.00    -0.090 HD
ATOM     20  H   LIG d   1       5.969  89.690 112.223  0.00  0.00    -0.090 HD
ATOM     21  H   LIG d   1       6.716  89.254 113.614  0.00  0.00    -0.090 HD
ENDBRANCH   5  18
BRANCH   3  22
ATOM     22  C   LIG d   1       1.681  88.041 113.036  0.00  0.00     0.382 C 
ATOM     23  O   LIG d   1       0.664  88.759 112.881  0.00  0.00    -0.241 OA
ATOM     24  O   LIG d   1       1.716  86.907 112.522  0.00  0.00    -0.241 OA
ENDBRANCH   3  22
TORSDOF 7
ENDMDL
MODEL 3
REMARK VINA RESULT:      -5.1     10.819     12.858
REMARK  7 active torsions:
REMARK  status: ('A' for Active; 'I' for Inactive)
REMARK    1  A    between atoms: C_2  and  C_3 
REMARK    2  A    between atoms: C_3  and  O_6 
REMARK    3  A    between atoms: C_3  and  C_4 
REMARK    4  A    between atoms: C_7  and  O_6 
REMARK    5  A    between atoms: C_9  and  C_10 
REMARK    6  A    between atoms: N_15  and  C_14 
REMARK    7  A    between atoms: N_20  and  C_19 
REMARK       I    between atoms: C_22  and  N_20 
ROOT
ATOM      1  C   LIG d   1      -2.753  79.600 115.065  0.00  0.00     0.161 C 
ATOM      2  C   LIG d   1      -2.311  80.780 114.444  0.00  0.00     0.016 C 
ATOM      3  C   LIG d   1      -1.710  80.807 113.164  0.00  0.00     0.038 C 
ATOM      4  C   LIG d   1      -1.649  79.667 112.349  0.00  0.00     0.028 C 
ATOM      5  C   LIG d   1      -1.625  78.361 113.136  0.00  0.00    -0.047 C 
ATOM      6  C   LIG d   1      -2.796  78.362 114.146  0.00  0.00     0.091 C 
ENDROOT
BRANCH   1   7
ATOM      7  O   LIG d   1      -4.043  79.821 115.669  0.00  0.00    -0.368 OA
BRANCH   7   8
ATOM      8  C   LIG d   1      -4.078  79.821 117.117  0.00  0.00     0.119 C 
BRANCH   8   9
ATOM      9  C   LIG d   1      -4.964  78.640 117.559  0.00  0.00     0.028 C 
ATOM     10  C   LIG d   1      -6.455  79.014 117.616  0.00  0.00     0.006 C 
ENDBRANCH   8   9
BRANCH   8  11
ATOM     11  C   LIG d   1      -4.773  81.074 117.658  0.00  0.00     0.028 C 
ATOM     12  C   LIG d   1      -4.840  82.210 116.626  0.00  0.00     0.006 C 
ENDBRANCH   8  11
ENDBRANCH   7   8
ENDBRANCH   1   7
BRANCH   6  13
ATOM     13  N   LIG d   1      -2.796  77.156 115.015  0.00  0.00    -0.311 N 
ATOM     14  C   LIG d   1      -3.561  76.090 114.789  0.00  0.00     0.210 C 
ATOM     15  C   LIG d   1      -3.421  74.964 115.818  0.00  0.00     0.109 C 
ATOM     16  O   LIG d   1      -4.318  75.955 113.815  0.00  0.00    -0.276 OA
ATOM     17  H   LIG d   1      -2.188  77.167 115.810  0.00  0.00     0.149 HD
ENDBRANCH   6  13
BRANCH   5  18
ATOM     18  N   LIG d   1      -1.700  77.254 112.165  0.00  0.00     0.381 N 
ATOM     19  H   LIG d   1      -2.339  77.489 111.432  0.00  0.00    -0.090 HD
ATOM     20  H   LIG d   1      -2.044  76.433 112.632  0.00  0.00    -0.090 HD
ATOM     21  H   LIG d   1      -0.798  77.073 111.783  0.00  0.00    -0.090 HD
ENDBRANCH   5  18
BRANCH   3  22
ATOM     22  C   LIG d   1      -1.127  81.978 112.704  0.00  0.00     0.382 C 
ATOM     23  O   LIG d   1       0.017  82.307 113.101  0.00  0.00    -0.241 OA
ATOM     24  O   LIG d   1      -1.748  82.731 111.930  0.00  0.00    -0.241 OA
ENDBRANCH   3  22
TORSDOF 7
ENDMDL
MODEL 4
REMARK VINA RESULT:      -5.0     16.436     18.329
REMARK  7 active torsions:
REMARK  status: ('A' for Active; 'I' for Inactive)
REMARK    1  A    between atoms: C_2  and  C_3 
REMARK    2  A    between atoms: C_3  and  O_6 
REMARK    3  A    between atoms: C_3  and  C_4 
REMARK    4  A    between atoms: C_7  and  O_6 
REMARK    5  A    between atoms: C_9  and  C_10 
REMARK    6  A    between atoms: N_15  and  C_14 
REMARK    7  A    between atoms: N_20  and  C_19 
REMARK       I    between atoms: C_22  and  N_20 
ROOT
ATOM      1  C   LIG d   1      -7.712  75.480 118.096  0.00  0.00     0.161 C 
ATOM      2  C   LIG d   1      -9.092  75.616 118.320  0.00  0.00     0.016 C 
ATOM      3  C   LIG d   1      -9.734  76.864 118.490  0.00  0.00     0.038 C 
ATOM      4  C   LIG d   1      -9.058  78.078 118.294  0.00  0.00     0.028 C 
ATOM      5  C   LIG d   1      -7.560  77.988 118.565  0.00  0.00    -0.047 C 
ATOM      6  C   LIG d   1      -6.977  76.798 117.769  0.00  0.00     0.091 C 
ENDROOT
BRANCH   1   7
ATOM      7  O   LIG d   1      -7.478  74.506 117.059  0.00  0.00    -0.368 OA
BRANCH   7   8
ATOM      8  C   LIG d   1      -6.985  73.216 117.496  0.00  0.00     0.119 C 
BRANCH   8   9
ATOM      9  C   LIG d   1      -5.641  72.969 116.784  0.00  0.00     0.028 C 
ATOM     10  C   LIG d   1      -5.447  73.884 115.563  0.00  0.00     0.006 C 
ENDBRANCH   8   9
BRANCH   8  11
ATOM     11  C   LIG d   1      -7.904  72.082 117.033  0.00  0.00     0.028 C 
ATOM     12  C   LIG d   1      -7.451  70.704 117.541  0.00  0.00     0.006 C 
ENDBRANCH   8  11
ENDBRANCH   7   8
ENDBRANCH   1   7
BRANCH   6  13
ATOM     13  N   LIG d   1      -5.532  76.586 118.043  0.00  0.00    -0.311 N 
ATOM     14  C   LIG d   1      -4.561  77.092 117.285  0.00  0.00     0.210 C 
ATOM     15  C   LIG d   1      -3.139  76.737 117.732  0.00  0.00     0.109 C 
ATOM     16  O   LIG d   1      -4.741  77.828 116.303  0.00  0.00    -0.276 OA
ATOM     17  H   LIG d   1      -5.295  76.027 118.839  0.00  0.00     0.149 HD
ENDBRANCH   6  13
BRANCH   5  18
ATOM     18  N   LIG d   1      -6.961  79.282 118.191  0.00  0.00     0.381 N 
ATOM     19  H   LIG d   1      -5.974  79.258 118.352  0.00  0.00    -0.090 HD
ATOM     20  H   LIG d   1      -7.357  80.003 118.769  0.00  0.00    -0.090 HD
ATOM     21  H   LIG d   1      -7.144  79.478 117.231  0.00  0.00    -0.090 HD
ENDBRANCH   5  18
BRANCH   3  22
ATOM     22  C   LIG d   1     -11.059  76.906 118.898  0.00  0.00     0.382 C 
ATOM     23  O   LIG d   1     -11.852  76.000 118.545  0.00  0.00    -0.241 OA
ATOM     24  O   LIG d   1     -11.481  77.861 119.577  0.00  0.00    -0.241 OA
ENDBRANCH   3  22
TORSDOF 7
ENDMDL
MODEL 5
REMARK VINA RESULT:      -5.0      1.668      2.468
REMARK  7 active torsions:
REMARK  status: ('A' for Active; 'I' for Inactive)
REMARK    1  A    between atoms: C_2  and  C_3 
REMARK    2  A    between atoms: C_3  and  O_6 
REMARK    3  A    between atoms: C_3  and  C_4 
REMARK    4  A    between atoms: C_7  and  O_6 
REMARK    5  A    between atoms: C_9  and  C_10 
REMARK    6  A    between atoms: N_15  and  C_14 
REMARK    7  A    between atoms: N_20  and  C_19 
REMARK       I    between atoms: C_22  and  N_20 
ROOT
ATOM      1  C   LIG d   1       2.072  90.232 116.027  0.00  0.00     0.161 C 
ATOM      2  C   LIG d   1       1.620  89.383 115.005  0.00  0.00     0.016 C 
ATOM      3  C   LIG d   1       2.483  88.737 114.090  0.00  0.00     0.038 C 
ATOM      4  C   LIG d   1       3.878  88.778 114.232  0.00  0.00     0.028 C 
ATOM      5  C   LIG d   1       4.378  90.030 114.944  0.00  0.00    -0.047 C 
ATOM      6  C   LIG d   1       3.596  90.201 116.267  0.00  0.00     0.091 C 
ENDROOT
BRANCH   1   7
ATOM      7  O   LIG d   1       1.367  89.943 117.251  0.00  0.00    -0.368 OA
BRANCH   7   8
ATOM      8  C   LIG d   1       0.183  90.738 117.507  0.00  0.00     0.119 C 
BRANCH   8   9
ATOM      9  C   LIG d   1       0.638  92.038 118.197  0.00  0.00     0.028 C 
ATOM     10  C   LIG d   1       1.377  91.773 119.519  0.00  0.00     0.006 C 
ENDBRANCH   8   9
BRANCH   8  11
ATOM     11  C   LIG d   1      -0.744  90.049 118.512  0.00  0.00     0.028 C 
ATOM     12  C   LIG d   1      -2.231  90.208 118.157  0.00  0.00     0.006 C 
ENDBRANCH   8  11
ENDBRANCH   7   8
ENDBRANCH   1   7
BRANCH   6  13
ATOM     13  N   LIG d   1       3.964  91.449 116.986  0.00  0.00    -0.311 N 
ATOM     14  C   LIG d   1       4.874  91.493 117.958  0.00  0.00     0.210 C 
ATOM     15  C   LIG d   1       5.087  92.877 118.580  0.00  0.00     0.109 C 
ATOM     16  O   LIG d   1       5.546  90.525 118.343  0.00  0.00    -0.276 OA
ATOM     17  H   LIG d   1       3.489  92.288 116.716  0.00  0.00     0.149 HD
ENDBRANCH   6  13
BRANCH   5  18
ATOM     18  N   LIG d   1       5.831  89.878 115.146  0.00  0.00     0.381 N 
ATOM     19  H   LIG d   1       6.197  89.220 114.488  0.00  0.00    -0.090 HD
ATOM     20  H   LIG d   1       5.995  89.523 116.072  0.00  0.00    -0.090 HD
ATOM     21  H   LIG d   1       6.285  90.758 115.035  0.00  0.00    -0.090 HD
ENDBRANCH   5  18
BRANCH   3  22
ATOM     22  C   LIG d   1       1.952  88.072 112.995  0.00  0.00     0.382 C 
ATOM     23  O   LIG d   1       0.835  87.507 113.086  0.00  0.00    -0.241 OA
ATOM     24  O   LIG d   1       2.595  87.993 111.931  0.00  0.00    -0.241 OA
ENDBRANCH   3  22
TORSDOF 7
ENDMDL
MODEL 6
REMARK VINA RESULT:      -4.9     30.863     32.900
REMARK  7 active torsions:
REMARK  status: ('A' for Active; 'I' for Inactive)
REMARK    1  A    between atoms: C_2  and  C_3 
REMARK    2  A    between atoms: C_3  and  O_6 
REMARK    3  A    between atoms: C_3  and  C_4 
REMARK    4  A    between atoms: C_7  and  O_6 
REMARK    5  A    between atoms: C_9  and  C_10 
REMARK    6  A    between atoms: N_15  and  C_14 
REMARK    7  A    between atoms: N_20  and  C_19 
REMARK       I    between atoms: C_22  and  N_20 
ROOT
ATOM      1  C   LIG d   1     -16.790  64.352 115.000  0.00  0.00     0.161 C 
ATOM      2  C   LIG d   1     -17.750  64.716 114.040  0.00  0.00     0.016 C 
ATOM      3  C   LIG d   1     -19.092  64.272 114.075  0.00  0.00     0.038 C 
ATOM      4  C   LIG d   1     -19.607  63.552 115.163  0.00  0.00     0.028 C 
ATOM      5  C   LIG d   1     -18.552  62.736 115.903  0.00  0.00    -0.047 C 
ATOM      6  C   LIG d   1     -17.361  63.657 116.254  0.00  0.00     0.091 C 
ENDROOT
BRANCH   1   7
ATOM      7  O   LIG d   1     -16.013  65.506 115.376  0.00  0.00    -0.368 OA
BRANCH   7   8
ATOM      8  C   LIG d   1     -16.745  66.592 115.996  0.00  0.00     0.119 C 
BRANCH   8   9
ATOM      9  C   LIG d   1     -16.224  67.908 115.387  0.00  0.00     0.028 C 
ATOM     10  C   LIG d   1     -15.438  67.682 114.085  0.00  0.00     0.006 C 
ENDBRANCH   8   9
BRANCH   8  11
ATOM     11  C   LIG d   1     -16.437  66.688 117.493  0.00  0.00     0.028 C 
ATOM     12  C   LIG d   1     -14.999  66.265 117.834  0.00  0.00     0.006 C 
ENDBRANCH   8  11
ENDBRANCH   7   8
ENDBRANCH   1   7
BRANCH   6  13
ATOM     13  N   LIG d   1     -16.247  62.920 116.905  0.00  0.00    -0.311 N 
ATOM     14  C   LIG d   1     -16.101  62.830 118.226  0.00  0.00     0.210 C 
ATOM     15  C   LIG d   1     -14.872  62.040 118.689  0.00  0.00     0.109 C 
ATOM     16  O   LIG d   1     -16.890  63.301 119.059  0.00  0.00    -0.276 OA
ATOM     17  H   LIG d   1     -15.577  62.480 116.304  0.00  0.00     0.149 HD
ENDBRANCH   6  13
BRANCH   5  18
ATOM     18  N   LIG d   1     -19.197  62.147 117.092  0.00  0.00     0.381 N 
ATOM     19  H   LIG d   1     -20.189  62.133 116.967  0.00  0.00    -0.090 HD
ATOM     20  H   LIG d   1     -18.988  62.719 117.892  0.00  0.00    -0.090 HD
ATOM     21  H   LIG d   1     -18.859  61.222 117.240  0.00  0.00    -0.090 HD
ENDBRANCH   5  18
BRANCH   3  22
ATOM     22  C   LIG d   1     -19.924  64.516 112.994  0.00  0.00     0.382 C 
ATOM     23  O   LIG d   1     -20.860  65.345 113.097  0.00  0.00    -0.241 OA
ATOM     24  O   LIG d   1     -19.779  63.884 111.930  0.00  0.00    -0.241 OA
ENDBRANCH   3  22
TORSDOF 7
ENDMDL
MODEL 7
REMARK VINA RESULT:      -4.8     13.817     15.679
REMARK  7 active torsions:
REMARK  status: ('A' for Active; 'I' for Inactive)
REMARK    1  A    between atoms: C_2  and  C_3 
REMARK    2  A    between atoms: C_3  and  O_6 
REMARK    3  A    between atoms: C_3  and  C_4 
REMARK    4  A    between atoms: C_7  and  O_6 
REMARK    5  A    between atoms: C_9  and  C_10 
REMARK    6  A    between atoms: N_15  and  C_14 
REMARK    7  A    between atoms: N_20  and  C_19 
REMARK       I    between atoms: C_22  and  N_20 
ROOT
ATOM      1  C   LIG d   1      -6.928  78.892 118.055  0.00  0.00     0.161 C 
ATOM      2  C   LIG d   1      -8.292  79.177 118.235  0.00  0.00     0.016 C 
ATOM      3  C   LIG d   1      -8.874  80.426 117.918  0.00  0.00     0.038 C 
ATOM      4  C   LIG d   1      -8.156  81.432 117.256  0.00  0.00     0.028 C 
ATOM      5  C   LIG d   1      -6.654  81.374 117.513  0.00  0.00    -0.047 C 
ATOM      6  C   LIG d   1      -6.152  79.940 117.230  0.00  0.00     0.091 C 
ENDROOT
BRANCH   1   7
ATOM      7  O   LIG d   1      -6.775  77.582 117.474  0.00  0.00    -0.368 OA
BRANCH   7   8
ATOM      8  C   LIG d   1      -7.681  76.560 117.957  0.00  0.00     0.119 C 
BRANCH   8   9
ATOM      9  C   LIG d   1      -6.919  75.723 119.002  0.00  0.00     0.028 C 
ATOM     10  C   LIG d   1      -7.585  75.768 120.388  0.00  0.00     0.006 C 
ENDBRANCH   8   9
BRANCH   8  11
ATOM     11  C   LIG d   1      -8.055  75.577 116.844  0.00  0.00     0.028 C 
ATOM     12  C   LIG d   1      -9.305  74.746 117.179  0.00  0.00     0.006 C 
ENDBRANCH   8  11
ENDBRANCH   7   8
ENDBRANCH   1   7
BRANCH   6  13
ATOM     13  N   LIG d   1      -4.707  79.774 117.538  0.00  0.00    -0.311 N 
ATOM     14  C   LIG d   1      -3.747  79.869 116.620  0.00  0.00     0.210 C 
ATOM     15  C   LIG d   1      -2.325  79.644 117.146  0.00  0.00     0.109 C 
ATOM     16  O   LIG d   1      -3.934  80.149 115.427  0.00  0.00    -0.276 OA
ATOM     17  H   LIG d   1      -4.463  79.576 118.488  0.00  0.00     0.149 HD
ENDBRANCH   6  13
BRANCH   5  18
ATOM     18  N   LIG d   1      -6.015  82.390 116.655  0.00  0.00     0.381 N 
ATOM     19  H   LIG d   1      -6.706  83.030 116.316  0.00  0.00    -0.090 HD
ATOM     20  H   LIG d   1      -5.596  81.932 115.865  0.00  0.00    -0.090 HD
ATOM     21  H   LIG d   1      -5.319  82.883 117.170  0.00  0.00    -0.090 HD
ENDBRANCH   5  18
BRANCH   3  22
ATOM     22  C   LIG d   1     -10.180  80.692 118.302  0.00  0.00     0.382 C 
ATOM     23  O   LIG d   1     -10.885  81.477 117.623  0.00  0.00    -0.241 OA
ATOM     24  O   LIG d   1     -10.646  80.193 119.344  0.00  0.00    -0.241 OA
ENDBRANCH   3  22
TORSDOF 7
ENDMDL
MODEL 8
REMARK VINA RESULT:      -4.6     26.119     28.369
REMARK  7 active torsions:
REMARK  status: ('A' for Active; 'I' for Inactive)
REMARK    1  A    between atoms: C_2  and  C_3 
REMARK    2  A    between atoms: C_3  and  O_6 
REMARK    3  A    between atoms: C_3  and  C_4 
REMARK    4  A    between atoms: C_7  and  O_6 
REMARK    5  A    between atoms: C_9  and  C_10 
REMARK    6  A    between atoms: N_15  and  C_14 
REMARK    7  A    between atoms: N_20  and  C_19 
REMARK       I    between atoms: C_22  and  N_20 
ROOT
ATOM      1  C   LIG d   1     -23.164  83.030 115.682  0.00  0.00     0.161 C 
ATOM      2  C   LIG d   1     -22.587  84.288 115.446  0.00  0.00     0.016 C 
ATOM      3  C   LIG d   1     -22.749  85.004 114.237  0.00  0.00     0.038 C 
ATOM      4  C   LIG d   1     -23.630  84.575 113.234  0.00  0.00     0.028 C 
ATOM      5  C   LIG d   1     -23.841  83.064 113.218  0.00  0.00    -0.047 C 
ATOM      6  C   LIG d   1     -24.218  82.596 114.642  0.00  0.00     0.091 C 
ENDROOT
BRANCH   1   7
ATOM      7  O   LIG d   1     -23.725  82.991 117.010  0.00  0.00    -0.368 OA
BRANCH   7   8
ATOM      8  C   LIG d   1     -23.104  82.066 117.936  0.00  0.00     0.119 C 
BRANCH   8   9
ATOM      9  C   LIG d   1     -24.220  81.483 118.826  0.00  0.00     0.028 C 
ATOM     10  C   LIG d   1     -24.783  80.164 118.272  0.00  0.00     0.006 C 
ENDBRANCH   8   9
BRANCH   8  11
ATOM     11  C   LIG d   1     -22.157  82.791 118.897  0.00  0.00     0.028 C 
ATOM     12  C   LIG d   1     -20.734  82.209 118.883  0.00  0.00     0.006 C 
ENDBRANCH   8  11
ENDBRANCH   7   8
ENDBRANCH   1   7
BRANCH   6  13
ATOM     13  N   LIG d   1     -24.360  81.120 114.734  0.00  0.00    -0.311 N 
ATOM     14  C   LIG d   1     -25.525  80.486 114.606  0.00  0.00     0.210 C 
ATOM     15  C   LIG d   1     -25.451  78.963 114.755  0.00  0.00     0.109 C 
ATOM     16  O   LIG d   1     -26.606  81.037 114.351  0.00  0.00    -0.276 OA
ATOM     17  H   LIG d   1     -23.528  80.591 114.909  0.00  0.00     0.149 HD
ENDBRANCH   6  13
BRANCH   5  18
ATOM     18  N   LIG d   1     -24.883  82.770 112.217  0.00  0.00     0.381 N 
ATOM     19  H   LIG d   1     -25.316  83.621 111.919  0.00  0.00    -0.090 HD
ATOM     20  H   LIG d   1     -25.586  82.190 112.641  0.00  0.00    -0.090 HD
ATOM     21  H   LIG d   1     -24.482  82.301 111.435  0.00  0.00    -0.090 HD
ENDBRANCH   5  18
BRANCH   3  22
ATOM     22  C   LIG d   1     -21.994  86.144 114.007  0.00  0.00     0.382 C 
ATOM     23  O   LIG d   1     -22.180  87.171 114.705  0.00  0.00    -0.241 OA
ATOM     24  O   LIG d   1     -21.161  86.174 113.082  0.00  0.00    -0.241 OA
ENDBRANCH   3  22
TORSDOF 7
ENDMDL
MODEL 9
REMARK VINA RESULT:      -4.5     25.928     27.848
REMARK  7 active torsions:
REMARK  status: ('A' for Active; 'I' for Inactive)
REMARK    1  A    between atoms: C_2  and  C_3 
REMARK    2  A    between atoms: C_3  and  O_6 
REMARK    3  A    between atoms: C_3  and  C_4 
REMARK    4  A    between atoms: C_7  and  O_6 
REMARK    5  A    between atoms: C_9  and  C_10 
REMARK    6  A    between atoms: N_15  and  C_14 
REMARK    7  A    between atoms: N_20  and  C_19 
REMARK       I    between atoms: C_22  and  N_20 
ROOT
ATOM      1  C   LIG d   1     -23.233  82.986 115.773  0.00  0.00     0.161 C 
ATOM      2  C   LIG d   1     -23.882  81.744 115.675  0.00  0.00     0.016 C 
ATOM      3  C   LIG d   1     -24.563  81.312 114.513  0.00  0.00     0.038 C 
ATOM      4  C   LIG d   1     -24.511  82.034 113.312  0.00  0.00     0.028 C 
ATOM      5  C   LIG d   1     -24.293  83.530 113.513  0.00  0.00    -0.047 C 
ATOM      6  C   LIG d   1     -23.071  83.739 114.436  0.00  0.00     0.091 C 
ENDROOT
BRANCH   1   7
ATOM      7  O   LIG d   1     -21.952  82.818 116.412  0.00  0.00    -0.368 OA
BRANCH   7   8
ATOM      8  C   LIG d   1     -21.784  83.483 117.688  0.00  0.00     0.119 C 
BRANCH   8   9
ATOM      9  C   LIG d   1     -21.441  82.403 118.732  0.00  0.00     0.028 C 
ATOM     10  C   LIG d   1     -22.692  81.847 119.433  0.00  0.00     0.006 C 
ENDBRANCH   8   9
BRANCH   8  11
ATOM     11  C   LIG d   1     -23.096  84.110 118.167  0.00  0.00     0.028 C 
ATOM     12  C   LIG d   1     -22.995  85.631 118.361  0.00  0.00     0.006 C 
ENDBRANCH   8  11
ENDBRANCH   7   8
ENDBRANCH   1   7
BRANCH   6  13
ATOM     13  N   LIG d   1     -22.839  85.172 114.753  0.00  0.00    -0.311 N 
ATOM     14  C   LIG d   1     -21.996  85.946 114.071  0.00  0.00     0.210 C 
ATOM     15  C   LIG d   1     -21.891  87.389 114.576  0.00  0.00     0.109 C 
ATOM     16  O   LIG d   1     -21.349  85.584 113.077  0.00  0.00    -0.276 OA
ATOM     17  H   LIG d   1     -23.346  85.557 115.526  0.00  0.00     0.149 HD
ENDBRANCH   6  13
BRANCH   5  18
ATOM     18  N   LIG d   1     -24.121  84.138 112.180  0.00  0.00     0.381 N 
ATOM     19  H   LIG d   1     -23.347  83.712 111.711  0.00  0.00    -0.090 HD
ATOM     20  H   LIG d   1     -23.922  85.117 112.293  0.00  0.00    -0.090 HD
ATOM     21  H   LIG d   1     -24.952  84.020 111.642  0.00  0.00    -0.090 HD
ENDBRANCH   5  18
BRANCH   3  22
ATOM     22  C   LIG d   1     -25.339  80.163 114.559  0.00  0.00     0.382 C 
ATOM     23  O   LIG d   1     -26.097  79.881 113.600  0.00  0.00    -0.241 OA
ATOM     24  O   LIG d   1     -25.324  79.430 115.565  0.00  0.00    -0.241 OA
ENDBRANCH   3  22
TORSDOF 7
ENDMDL
