MODEL 1
REMARK VINA RESULT:      -5.8      0.000      0.000
REMARK  7 active torsions:
REMARK  status: ('A' for Active; 'I' for Inactive)
REMARK    1  A    between atoms: C_2  and  C_3 
REMARK    2  A    between atoms: C_3  and  O_6 
REMARK    3  A    between atoms: C_3  and  C_4 
REMARK    4  A    between atoms: C_7  and  O_6 
REMARK    5  A    between atoms: C_9  and  C_10 
REMARK    6  A    between atoms: N_15  and  C_14 
REMARK    7  A    between atoms: N_20  and  C_19 
REMARK       I    between atoms: C_22  and  N_20 
ROOT
ATOM      1  C   LIG d   1      -5.747  92.907 117.396  0.00  0.00     0.161 C 
ATOM      2  C   LIG d   1      -6.814  92.039 117.112  0.00  0.00     0.016 C 
ATOM      3  C   LIG d   1      -6.640  90.684 116.750  0.00  0.00     0.038 C 
ATOM      4  C   LIG d   1      -5.384  90.060 116.795  0.00  0.00     0.028 C 
ATOM      5  C   LIG d   1      -4.221  91.024 116.586  0.00  0.00    -0.047 C 
ATOM      6  C   LIG d   1      -4.377  92.216 117.559  0.00  0.00     0.091 C 
ENDROOT
BRANCH   1   7
ATOM      7  O   LIG d   1      -6.053  93.693 118.566  0.00  0.00    -0.368 OA
BRANCH   7   8
ATOM      8  C   LIG d   1      -6.615  95.005 118.322  0.00  0.00     0.119 C 
BRANCH   8   9
ATOM      9  C   LIG d   1      -5.904  95.996 119.264  0.00  0.00     0.028 C 
ATOM     10  C   LIG d   1      -4.723  95.351 120.010  0.00  0.00     0.006 C 
ENDBRANCH   8   9
BRANCH   8  11
ATOM     11  C   LIG d   1      -8.094  95.060 118.718  0.00  0.00     0.028 C 
ATOM     12  C   LIG d   1      -8.377  94.373 120.063  0.00  0.00     0.006 C 
ENDBRANCH   8  11
ENDBRANCH   7   8
ENDBRANCH   1   7
BRANCH   6  13
ATOM     13  N   LIG d   1      -3.326  93.248 117.362  0.00  0.00    -0.311 N 
ATOM     14  C   LIG d   1      -2.208  93.303 118.085  0.00  0.00     0.210 C 
ATOM     15  C   LIG d   1      -1.267  94.460 117.733  0.00  0.00     0.109 C 
ATOM     16  O   LIG d   1      -1.892  92.485 118.961  0.00  0.00    -0.276 OA
ATOM     17  H   LIG d   1      -3.487  93.933 116.650  0.00  0.00     0.149 HD
ENDBRANCH   6  13
BRANCH   5  18
ATOM     18  N   LIG d   1      -2.972  90.268 116.795  0.00  0.00     0.381 N 
ATOM     19  H   LIG d   1      -3.154  89.461 117.357  0.00  0.00    -0.090 HD
ATOM     20  H   LIG d   1      -2.316  90.851 117.283  0.00  0.00    -0.090 HD
ATOM     21  H   LIG d   1      -2.591  89.990 115.917  0.00  0.00    -0.090 HD
ENDBRANCH   5  18
BRANCH   3  22
ATOM     22  C   LIG d   1      -7.725  89.948 116.299  0.00  0.00     0.382 C 
ATOM     23  O   LIG d   1      -7.982  88.832 116.812  0.00  0.00    -0.241 OA
ATOM     24  O   LIG d   1      -8.424  90.366 115.357  0.00  0.00    -0.241 OA
ENDBRANCH   3  22
TORSDOF 7
ENDMDL
MODEL 2
REMARK VINA RESULT:      -5.6     15.988     17.860
REMARK  7 active torsions:
REMARK  status: ('A' for Active; 'I' for Inactive)
REMARK    1  A    between atoms: C_2  and  C_3 
REMARK    2  A    between atoms: C_3  and  O_6 
REMARK    3  A    between atoms: C_3  and  C_4 
REMARK    4  A    between atoms: C_7  and  O_6 
REMARK    5  A    between atoms: C_9  and  C_10 
REMARK    6  A    between atoms: N_15  and  C_14 
REMARK    7  A    between atoms: N_20  and  C_19 
REMARK       I    between atoms: C_22  and  N_20 
ROOT
ATOM      1  C   LIG d   1      -3.429  75.546 115.918  0.00  0.00     0.161 C 
ATOM      2  C   LIG d   1      -3.910  76.257 114.806  0.00  0.00     0.016 C 
ATOM      3  C   LIG d   1      -3.068  76.897 113.868  0.00  0.00     0.038 C 
ATOM      4  C   LIG d   1      -1.674  76.739 113.894  0.00  0.00     0.028 C 
ATOM      5  C   LIG d   1      -1.124  76.449 115.287  0.00  0.00    -0.047 C 
ATOM      6  C   LIG d   1      -1.911  75.269 115.901  0.00  0.00     0.091 C 
ENDROOT
BRANCH   1   7
ATOM      7  O   LIG d   1      -4.162  74.313 116.063  0.00  0.00    -0.368 OA
BRANCH   7   8
ATOM      8  C   LIG d   1      -5.605  74.415 115.980  0.00  0.00     0.119 C 
BRANCH   8   9
ATOM      9  C   LIG d   1      -6.090  75.148 117.246  0.00  0.00     0.028 C 
ATOM     10  C   LIG d   1      -6.982  76.357 116.918  0.00  0.00     0.006 C 
ENDBRANCH   8   9
BRANCH   8  11
ATOM     11  C   LIG d   1      -6.265  73.034 116.033  0.00  0.00     0.028 C 
ATOM     12  C   LIG d   1      -6.634  72.605 117.462  0.00  0.00     0.006 C 
ENDBRANCH   8  11
ENDBRANCH   7   8
ENDBRANCH   1   7
BRANCH   6  13
ATOM     13  N   LIG d   1      -1.493  74.974 117.297  0.00  0.00    -0.311 N 
ATOM     14  C   LIG d   1      -1.051  73.782 117.693  0.00  0.00     0.210 C 
ATOM     15  C   LIG d   1      -0.691  73.687 119.179  0.00  0.00     0.109 C 
ATOM     16  O   LIG d   1      -0.892  72.803 116.948  0.00  0.00    -0.276 OA
ATOM     17  H   LIG d   1      -1.560  75.721 117.960  0.00  0.00     0.149 HD
ENDBRANCH   6  13
BRANCH   5  18
ATOM     18  N   LIG d   1       0.318  76.171 115.147  0.00  0.00     0.381 N 
ATOM     19  H   LIG d   1       0.460  75.451 114.467  0.00  0.00    -0.090 HD
ATOM     20  H   LIG d   1       0.674  75.846 116.029  0.00  0.00    -0.090 HD
ATOM     21  H   LIG d   1       0.800  76.998 114.871  0.00  0.00    -0.090 HD
ENDBRANCH   5  18
BRANCH   3  22
ATOM     22  C   LIG d   1      -3.617  77.737 112.911  0.00  0.00     0.382 C 
ATOM     23  O   LIG d   1      -3.122  78.874 112.717  0.00  0.00    -0.241 OA
ATOM     24  O   LIG d   1      -4.629  77.392 112.273  0.00  0.00    -0.241 OA
ENDBRANCH   3  22
TORSDOF 7
ENDMDL
MODEL 3
REMARK VINA RESULT:      -5.3     14.131     17.180
REMARK  7 active torsions:
REMARK  status: ('A' for Active; 'I' for Inactive)
REMARK    1  A    between atoms: C_2  and  C_3 
REMARK    2  A    between atoms: C_3  and  O_6 
REMARK    3  A    between atoms: C_3  and  C_4 
REMARK    4  A    between atoms: C_7  and  O_6 
REMARK    5  A    between atoms: C_9  and  C_10 
REMARK    6  A    between atoms: N_15  and  C_14 
REMARK    7  A    between atoms: N_20  and  C_19 
REMARK       I    between atoms: C_22  and  N_20 
ROOT
ATOM      1  C   LIG d   1      -4.755  75.835 118.254  0.00  0.00     0.161 C 
ATOM      2  C   LIG d   1      -5.785  76.789 118.200  0.00  0.00     0.016 C 
ATOM      3  C   LIG d   1      -5.594  78.117 117.754  0.00  0.00     0.038 C 
ATOM      4  C   LIG d   1      -4.384  78.541 117.185  0.00  0.00     0.028 C 
ATOM      5  C   LIG d   1      -3.173  77.760 117.685  0.00  0.00    -0.047 C 
ATOM      6  C   LIG d   1      -3.455  76.247 117.533  0.00  0.00     0.091 C 
ENDROOT
BRANCH   1   7
ATOM      7  O   LIG d   1      -5.231  74.573 117.746  0.00  0.00    -0.368 OA
BRANCH   7   8
ATOM      8  C   LIG d   1      -6.300  74.641 116.770  0.00  0.00     0.119 C 
BRANCH   8   9
ATOM      9  C   LIG d   1      -7.321  73.542 117.125  0.00  0.00     0.028 C 
ATOM     10  C   LIG d   1      -7.017  72.209 116.421  0.00  0.00     0.006 C 
ENDBRANCH   8   9
BRANCH   8  11
ATOM     11  C   LIG d   1      -5.797  74.289 115.367  0.00  0.00     0.028 C 
ATOM     12  C   LIG d   1      -5.513  75.530 114.507  0.00  0.00     0.006 C 
ENDBRANCH   8  11
ENDBRANCH   7   8
ENDBRANCH   1   7
BRANCH   6  13
ATOM     13  N   LIG d   1      -2.354  75.409 118.076  0.00  0.00    -0.311 N 
ATOM     14  C   LIG d   1      -1.859  74.348 117.441  0.00  0.00     0.210 C 
ATOM     15  C   LIG d   1      -0.742  73.611 118.186  0.00  0.00     0.109 C 
ATOM     16  O   LIG d   1      -2.218  73.965 116.317  0.00  0.00    -0.276 OA
ATOM     17  H   LIG d   1      -1.983  75.666 118.969  0.00  0.00     0.149 HD
ENDBRANCH   6  13
BRANCH   5  18
ATOM     18  N   LIG d   1      -2.002  78.210 116.910  0.00  0.00     0.381 N 
ATOM     19  H   LIG d   1      -1.261  78.465 117.533  0.00  0.00    -0.090 HD
ATOM     20  H   LIG d   1      -2.258  79.022 116.376  0.00  0.00    -0.090 HD
ATOM     21  H   LIG d   1      -1.697  77.485 116.299  0.00  0.00    -0.090 HD
ENDBRANCH   5  18
BRANCH   3  22
ATOM     22  C   LIG d   1      -6.609  79.048 117.913  0.00  0.00     0.382 C 
ATOM     23  O   LIG d   1      -6.520  80.173 117.364  0.00  0.00    -0.241 OA
ATOM     24  O   LIG d   1      -7.593  78.794 118.634  0.00  0.00    -0.241 OA
ENDBRANCH   3  22
TORSDOF 7
ENDMDL
MODEL 4
REMARK VINA RESULT:      -5.2      1.963      4.819
REMARK  7 active torsions:
REMARK  status: ('A' for Active; 'I' for Inactive)
REMARK    1  A    between atoms: C_2  and  C_3 
REMARK    2  A    between atoms: C_3  and  O_6 
REMARK    3  A    between atoms: C_3  and  C_4 
REMARK    4  A    between atoms: C_7  and  O_6 
REMARK    5  A    between atoms: C_9  and  C_10 
REMARK    6  A    between atoms: N_15  and  C_14 
REMARK    7  A    between atoms: N_20  and  C_19 
REMARK       I    between atoms: C_22  and  N_20 
ROOT
ATOM      1  C   LIG d   1      -5.889  92.697 118.686  0.00  0.00     0.161 C 
ATOM      2  C   LIG d   1      -7.150  93.312 118.751  0.00  0.00     0.016 C 
ATOM      3  C   LIG d   1      -7.331  94.696 118.978  0.00  0.00     0.038 C 
ATOM      4  C   LIG d   1      -6.250  95.590 119.003  0.00  0.00     0.028 C 
ATOM      5  C   LIG d   1      -4.941  94.945 119.446  0.00  0.00    -0.047 C 
ATOM      6  C   LIG d   1      -4.697  93.673 118.601  0.00  0.00     0.091 C 
ENDROOT
BRANCH   1   7
ATOM      7  O   LIG d   1      -5.855  91.768 117.584  0.00  0.00    -0.368 OA
BRANCH   7   8
ATOM      8  C   LIG d   1      -7.141  91.346 117.066  0.00  0.00     0.119 C 
BRANCH   8   9
ATOM      9  C   LIG d   1      -7.041  89.841 116.750  0.00  0.00     0.028 C 
ATOM     10  C   LIG d   1      -8.408  89.138 116.808  0.00  0.00     0.006 C 
ENDBRANCH   8   9
BRANCH   8  11
ATOM     11  C   LIG d   1      -7.451  92.022 115.727  0.00  0.00     0.028 C 
ATOM     12  C   LIG d   1      -6.306  91.886 114.712  0.00  0.00     0.006 C 
ENDBRANCH   8  11
ENDBRANCH   7   8
ENDBRANCH   1   7
BRANCH   6  13
ATOM     13  N   LIG d   1      -3.480  92.935 119.026  0.00  0.00    -0.311 N 
ATOM     14  C   LIG d   1      -2.269  93.164 118.519  0.00  0.00     0.210 C 
ATOM     15  C   LIG d   1      -1.154  92.277 119.083  0.00  0.00     0.109 C 
ATOM     16  O   LIG d   1      -2.007  94.039 117.680  0.00  0.00    -0.276 OA
ATOM     17  H   LIG d   1      -3.596  92.228 119.726  0.00  0.00     0.149 HD
ENDBRANCH   6  13
BRANCH   5  18
ATOM     18  N   LIG d   1      -3.874  95.952 119.295  0.00  0.00     0.381 N 
ATOM     19  H   LIG d   1      -4.254  96.869 119.419  0.00  0.00    -0.090 HD
ATOM     20  H   LIG d   1      -3.498  95.891 118.365  0.00  0.00    -0.090 HD
ATOM     21  H   LIG d   1      -3.154  95.790 119.964  0.00  0.00    -0.090 HD
ENDBRANCH   5  18
BRANCH   3  22
ATOM     22  C   LIG d   1      -8.602  95.192 119.221  0.00  0.00     0.382 C 
ATOM     23  O   LIG d   1      -8.754  96.394 119.548  0.00  0.00    -0.241 OA
ATOM     24  O   LIG d   1      -9.595  94.443 119.160  0.00  0.00    -0.241 OA
ENDBRANCH   3  22
TORSDOF 7
ENDMDL
MODEL 5
REMARK VINA RESULT:      -5.2      2.037      4.356
REMARK  7 active torsions:
REMARK  status: ('A' for Active; 'I' for Inactive)
REMARK    1  A    between atoms: C_2  and  C_3 
REMARK    2  A    between atoms: C_3  and  O_6 
REMARK    3  A    between atoms: C_3  and  C_4 
REMARK    4  A    between atoms: C_7  and  O_6 
REMARK    5  A    between atoms: C_9  and  C_10 
REMARK    6  A    between atoms: N_15  and  C_14 
REMARK    7  A    between atoms: N_20  and  C_19 
REMARK       I    between atoms: C_22  and  N_20 
ROOT
ATOM      1  C   LIG d   1      -4.316  92.436 117.903  0.00  0.00     0.161 C 
ATOM      2  C   LIG d   1      -4.448  91.429 116.931  0.00  0.00     0.016 C 
ATOM      3  C   LIG d   1      -5.650  91.177 116.230  0.00  0.00     0.038 C 
ATOM      4  C   LIG d   1      -6.766  92.018 116.346  0.00  0.00     0.028 C 
ATOM      5  C   LIG d   1      -6.844  92.741 117.687  0.00  0.00    -0.047 C 
ATOM      6  C   LIG d   1      -5.491  93.435 117.962  0.00  0.00     0.091 C 
ENDROOT
BRANCH   1   7
ATOM      7  O   LIG d   1      -3.071  93.137 117.714  0.00  0.00    -0.368 OA
BRANCH   7   8
ATOM      8  C   LIG d   1      -1.904  92.539 118.331  0.00  0.00     0.119 C 
BRANCH   8   9
ATOM      9  C   LIG d   1      -2.183  92.432 119.843  0.00  0.00     0.028 C 
ATOM     10  C   LIG d   1      -2.104  93.795 120.552  0.00  0.00     0.006 C 
ENDBRANCH   8   9
BRANCH   8  11
ATOM     11  C   LIG d   1      -0.680  93.452 118.208  0.00  0.00     0.028 C 
ATOM     12  C   LIG d   1      -0.900  94.614 117.226  0.00  0.00     0.006 C 
ENDBRANCH   8  11
ENDBRANCH   7   8
ENDBRANCH   1   7
BRANCH   6  13
ATOM     13  N   LIG d   1      -5.453  94.095 119.293  0.00  0.00    -0.311 N 
ATOM     14  C   LIG d   1      -5.767  95.375 119.486  0.00  0.00     0.210 C 
ATOM     15  C   LIG d   1      -5.642  95.861 120.933  0.00  0.00     0.109 C 
ATOM     16  O   LIG d   1      -6.169  96.146 118.601  0.00  0.00    -0.276 OA
ATOM     17  H   LIG d   1      -5.168  93.535 120.072  0.00  0.00     0.149 HD
ENDBRANCH   6  13
BRANCH   5  18
ATOM     18  N   LIG d   1      -7.975  93.685 117.619  0.00  0.00     0.381 N 
ATOM     19  H   LIG d   1      -8.816  93.191 117.393  0.00  0.00    -0.090 HD
ATOM     20  H   LIG d   1      -7.797  94.354 116.891  0.00  0.00    -0.090 HD
ATOM     21  H   LIG d   1      -8.081  94.153 118.492  0.00  0.00    -0.090 HD
ENDBRANCH   5  18
BRANCH   3  22
ATOM     22  C   LIG d   1      -5.755  90.048 115.432  0.00  0.00     0.382 C 
ATOM     23  O   LIG d   1      -6.864  89.731 114.939  0.00  0.00    -0.241 OA
ATOM     24  O   LIG d   1      -4.765  89.318 115.235  0.00  0.00    -0.241 OA
ENDBRANCH   3  22
TORSDOF 7
ENDMDL
MODEL 6
REMARK VINA RESULT:      -5.1      1.571      4.885
REMARK  7 active torsions:
REMARK  status: ('A' for Active; 'I' for Inactive)
REMARK    1  A    between atoms: C_2  and  C_3 
REMARK    2  A    between atoms: C_3  and  O_6 
REMARK    3  A    between atoms: C_3  and  C_4 
REMARK    4  A    between atoms: C_7  and  O_6 
REMARK    5  A    between atoms: C_9  and  C_10 
REMARK    6  A    between atoms: N_15  and  C_14 
REMARK    7  A    between atoms: N_20  and  C_19 
REMARK       I    between atoms: C_22  and  N_20 
ROOT
ATOM      1  C   LIG d   1      -6.198  92.011 118.719  0.00  0.00     0.161 C 
ATOM      2  C   LIG d   1      -4.990  92.625 119.089  0.00  0.00     0.016 C 
ATOM      3  C   LIG d   1      -3.739  92.287 118.524  0.00  0.00     0.038 C 
ATOM      4  C   LIG d   1      -3.631  91.411 117.434  0.00  0.00     0.028 C 
ATOM      5  C   LIG d   1      -4.761  90.390 117.363  0.00  0.00    -0.047 C 
ATOM      6  C   LIG d   1      -6.114  91.132 117.453  0.00  0.00     0.091 C 
ENDROOT
BRANCH   1   7
ATOM      7  O   LIG d   1      -7.228  93.008 118.569  0.00  0.00    -0.368 OA
BRANCH   7   8
ATOM      8  C   LIG d   1      -7.148  94.145 119.463  0.00  0.00     0.119 C 
BRANCH   8   9
ATOM      9  C   LIG d   1      -8.444  94.170 120.296  0.00  0.00     0.028 C 
ATOM     10  C   LIG d   1      -9.475  95.173 119.750  0.00  0.00     0.006 C 
ENDBRANCH   8   9
BRANCH   8  11
ATOM     11  C   LIG d   1      -7.141  95.465 118.686  0.00  0.00     0.028 C 
ATOM     12  C   LIG d   1      -5.936  96.354 119.034  0.00  0.00     0.006 C 
ENDBRANCH   8  11
ENDBRANCH   7   8
ENDBRANCH   1   7
BRANCH   6  13
ATOM     13  N   LIG d   1      -7.272  90.200 117.476  0.00  0.00    -0.311 N 
ATOM     14  C   LIG d   1      -7.865  89.741 116.375  0.00  0.00     0.210 C 
ATOM     15  C   LIG d   1      -9.053  88.806 116.623  0.00  0.00     0.109 C 
ATOM     16  O   LIG d   1      -7.500  89.993 115.217  0.00  0.00    -0.276 OA
ATOM     17  H   LIG d   1      -7.613  89.918 118.374  0.00  0.00     0.149 HD
ENDBRANCH   6  13
BRANCH   5  18
ATOM     18  N   LIG d   1      -4.600  89.632 116.108  0.00  0.00     0.381 N 
ATOM     19  H   LIG d   1      -3.808  89.978 115.603  0.00  0.00    -0.090 HD
ATOM     20  H   LIG d   1      -5.418  89.765 115.540  0.00  0.00    -0.090 HD
ATOM     21  H   LIG d   1      -4.478  88.664 116.307  0.00  0.00    -0.090 HD
ENDBRANCH   5  18
BRANCH   3  22
ATOM     22  C   LIG d   1      -2.575  92.798 119.077  0.00  0.00     0.382 C 
ATOM     23  O   LIG d   1      -1.678  93.261 118.331  0.00  0.00    -0.241 OA
ATOM     24  O   LIG d   1      -2.391  92.761 120.308  0.00  0.00    -0.241 OA
ENDBRANCH   3  22
TORSDOF 7
ENDMDL
MODEL 7
REMARK VINA RESULT:      -5.0      7.560     10.291
REMARK  7 active torsions:
REMARK  status: ('A' for Active; 'I' for Inactive)
REMARK    1  A    between atoms: C_2  and  C_3 
REMARK    2  A    between atoms: C_3  and  O_6 
REMARK    3  A    between atoms: C_3  and  C_4 
REMARK    4  A    between atoms: C_7  and  O_6 
REMARK    5  A    between atoms: C_9  and  C_10 
REMARK    6  A    between atoms: N_15  and  C_14 
REMARK    7  A    between atoms: N_20  and  C_19 
REMARK       I    between atoms: C_22  and  N_20 
ROOT
ATOM      1  C   LIG d   1       1.589  87.144 115.222  0.00  0.00     0.161 C 
ATOM      2  C   LIG d   1       0.512  87.085 116.121  0.00  0.00     0.016 C 
ATOM      3  C   LIG d   1       0.194  88.125 117.025  0.00  0.00     0.038 C 
ATOM      4  C   LIG d   1       0.846  89.366 116.985  0.00  0.00     0.028 C 
ATOM      5  C   LIG d   1       2.267  89.287 116.438  0.00  0.00    -0.047 C 
ATOM      6  C   LIG d   1       2.243  88.536 115.087  0.00  0.00     0.091 C 
ENDROOT
BRANCH   1   7
ATOM      7  O   LIG d   1       1.175  86.659 113.930  0.00  0.00    -0.368 OA
BRANCH   7   8
ATOM      8  C   LIG d   1       1.799  85.431 113.480  0.00  0.00     0.119 C 
BRANCH   8   9
ATOM      9  C   LIG d   1       2.540  85.743 112.166  0.00  0.00     0.028 C 
ATOM     10  C   LIG d   1       4.031  85.370 112.230  0.00  0.00     0.006 C 
ENDBRANCH   8   9
BRANCH   8  11
ATOM     11  C   LIG d   1       0.751  84.375 113.113  0.00  0.00     0.028 C 
ATOM     12  C   LIG d   1      -0.320  84.908 112.148  0.00  0.00     0.006 C 
ENDBRANCH   8  11
ENDBRANCH   7   8
ENDBRANCH   1   7
BRANCH   6  13
ATOM     13  N   LIG d   1       3.604  88.340 114.523  0.00  0.00    -0.311 N 
ATOM     14  C   LIG d   1       4.158  89.169 113.640  0.00  0.00     0.210 C 
ATOM     15  C   LIG d   1       5.561  88.772 113.172  0.00  0.00     0.109 C 
ATOM     16  O   LIG d   1       3.633  90.212 113.223  0.00  0.00    -0.276 OA
ATOM     17  H   LIG d   1       4.114  87.535 114.831  0.00  0.00     0.149 HD
ENDBRANCH   6  13
BRANCH   5  18
ATOM     18  N   LIG d   1       2.778  90.666 116.323  0.00  0.00     0.381 N 
ATOM     19  H   LIG d   1       3.696  90.655 115.926  0.00  0.00    -0.090 HD
ATOM     20  H   LIG d   1       2.837  91.068 117.242  0.00  0.00    -0.090 HD
ATOM     21  H   LIG d   1       2.168  91.210 115.753  0.00  0.00    -0.090 HD
ENDBRANCH   5  18
BRANCH   3  22
ATOM     22  C   LIG d   1      -0.760  87.913 118.008  0.00  0.00     0.382 C 
ATOM     23  O   LIG d   1      -0.415  87.474 119.132  0.00  0.00    -0.241 OA
ATOM     24  O   LIG d   1      -1.967  88.113 117.772  0.00  0.00    -0.241 OA
ENDBRANCH   3  22
TORSDOF 7
ENDMDL
MODEL 8
REMARK VINA RESULT:      -5.0      2.253      4.659
REMARK  7 active torsions:
REMARK  status: ('A' for Active; 'I' for Inactive)
REMARK    1  A    between atoms: C_2  and  C_3 
REMARK    2  A    between atoms: C_3  and  O_6 
REMARK    3  A    between atoms: C_3  and  C_4 
REMARK    4  A    between atoms: C_7  and  O_6 
REMARK    5  A    between atoms: C_9  and  C_10 
REMARK    6  A    between atoms: N_15  and  C_14 
REMARK    7  A    between atoms: N_20  and  C_19 
REMARK       I    between atoms: C_22  and  N_20 
ROOT
ATOM      1  C   LIG d   1      -4.241  90.792 117.762  0.00  0.00     0.161 C 
ATOM      2  C   LIG d   1      -5.308  90.173 117.091  0.00  0.00     0.016 C 
ATOM      3  C   LIG d   1      -6.498  90.848 116.733  0.00  0.00     0.038 C 
ATOM      4  C   LIG d   1      -6.639  92.235 116.889  0.00  0.00     0.028 C 
ATOM      5  C   LIG d   1      -5.790  92.807 118.019  0.00  0.00    -0.047 C 
ATOM      6  C   LIG d   1      -4.331  92.330 117.841  0.00  0.00     0.091 C 
ENDROOT
BRANCH   1   7
ATOM      7  O   LIG d   1      -2.991  90.394 117.164  0.00  0.00    -0.368 OA
BRANCH   7   8
ATOM      8  C   LIG d   1      -2.392  89.183 117.686  0.00  0.00     0.119 C 
BRANCH   8   9
ATOM      9  C   LIG d   1      -2.724  89.113 119.190  0.00  0.00     0.028 C 
ATOM     10  C   LIG d   1      -2.363  87.752 119.808  0.00  0.00     0.006 C 
ENDBRANCH   8   9
BRANCH   8  11
ATOM     11  C   LIG d   1      -0.863  89.240 117.611  0.00  0.00     0.028 C 
ATOM     12  C   LIG d   1      -0.329  90.668 117.420  0.00  0.00     0.006 C 
ENDBRANCH   8  11
ENDBRANCH   7   8
ENDBRANCH   1   7
BRANCH   6  13
ATOM     13  N   LIG d   1      -3.450  92.776 118.952  0.00  0.00    -0.311 N 
ATOM     14  C   LIG d   1      -2.342  93.493 118.767  0.00  0.00     0.210 C 
ATOM     15  C   LIG d   1      -1.569  93.830 120.045  0.00  0.00     0.109 C 
ATOM     16  O   LIG d   1      -1.945  93.909 117.668  0.00  0.00    -0.276 OA
ATOM     17  H   LIG d   1      -3.714  92.509 119.880  0.00  0.00     0.149 HD
ENDBRANCH   6  13
BRANCH   5  18
ATOM     18  N   LIG d   1      -5.928  94.275 117.981  0.00  0.00     0.381 N 
ATOM     19  H   LIG d   1      -6.882  94.531 118.141  0.00  0.00    -0.090 HD
ATOM     20  H   LIG d   1      -5.662  94.603 117.068  0.00  0.00    -0.090 HD
ATOM     21  H   LIG d   1      -5.345  94.691 118.673  0.00  0.00    -0.090 HD
ENDBRANCH   5  18
BRANCH   3  22
ATOM     22  C   LIG d   1      -7.578  90.127 116.248  0.00  0.00     0.382 C 
ATOM     23  O   LIG d   1      -7.852  89.004 116.736  0.00  0.00    -0.241 OA
ATOM     24  O   LIG d   1      -8.256  90.565 115.300  0.00  0.00    -0.241 OA
ENDBRANCH   3  22
TORSDOF 7
ENDMDL
MODEL 9
REMARK VINA RESULT:      -4.7     14.811     17.060
REMARK  7 active torsions:
REMARK  status: ('A' for Active; 'I' for Inactive)
REMARK    1  A    between atoms: C_2  and  C_3 
REMARK    2  A    between atoms: C_3  and  O_6 
REMARK    3  A    between atoms: C_3  and  C_4 
REMARK    4  A    between atoms: C_7  and  O_6 
REMARK    5  A    between atoms: C_9  and  C_10 
REMARK    6  A    between atoms: N_15  and  C_14 
REMARK    7  A    between atoms: N_20  and  C_19 
REMARK       I    between atoms: C_22  and  N_20 
ROOT
ATOM      1  C   LIG d   1      -1.459  76.720 116.366  0.00  0.00     0.161 C 
ATOM      2  C   LIG d   1      -2.679  76.644 115.673  0.00  0.00     0.016 C 
ATOM      3  C   LIG d   1      -3.379  75.434 115.459  0.00  0.00     0.038 C 
ATOM      4  C   LIG d   1      -2.979  74.230 116.059  0.00  0.00     0.028 C 
ATOM      5  C   LIG d   1      -1.483  74.165 116.346  0.00  0.00    -0.047 C 
ATOM      6  C   LIG d   1      -1.064  75.434 117.122  0.00  0.00     0.091 C 
ENDROOT
BRANCH   1   7
ATOM      7  O   LIG d   1      -1.478  77.845 117.266  0.00  0.00    -0.368 OA
BRANCH   7   8
ATOM      8  C   LIG d   1      -2.293  77.698 118.454  0.00  0.00     0.119 C 
BRANCH   8   9
ATOM      9  C   LIG d   1      -3.181  78.953 118.565  0.00  0.00     0.028 C 
ATOM     10  C   LIG d   1      -4.574  78.743 117.949  0.00  0.00     0.006 C 
ENDBRANCH   8   9
BRANCH   8  11
ATOM     11  C   LIG d   1      -1.435  77.694 119.722  0.00  0.00     0.028 C 
ATOM     12  C   LIG d   1      -0.090  78.414 119.534  0.00  0.00     0.006 C 
ENDBRANCH   8  11
ENDBRANCH   7   8
ENDBRANCH   1   7
BRANCH   6  13
ATOM     13  N   LIG d   1       0.400  75.490 117.370  0.00  0.00    -0.311 N 
ATOM     14  C   LIG d   1       0.974  75.032 118.481  0.00  0.00     0.210 C 
ATOM     15  C   LIG d   1       2.494  75.206 118.543  0.00  0.00     0.109 C 
ATOM     16  O   LIG d   1       0.371  74.470 119.408  0.00  0.00    -0.276 OA
ATOM     17  H   LIG d   1       0.968  75.903 116.656  0.00  0.00     0.149 HD
ENDBRANCH   6  13
BRANCH   5  18
ATOM     18  N   LIG d   1      -1.226  72.919 117.093  0.00  0.00     0.381 N 
ATOM     19  H   LIG d   1      -1.421  73.061 118.065  0.00  0.00    -0.090 HD
ATOM     20  H   LIG d   1      -0.256  72.677 116.999  0.00  0.00    -0.090 HD
ATOM     21  H   LIG d   1      -1.796  72.184 116.737  0.00  0.00    -0.090 HD
ENDBRANCH   5  18
BRANCH   3  22
ATOM     22  C   LIG d   1      -4.471  75.413 114.605  0.00  0.00     0.382 C 
ATOM     23  O   LIG d   1      -4.715  76.404 113.875  0.00  0.00    -0.241 OA
ATOM     24  O   LIG d   1      -5.241  74.434 114.587  0.00  0.00    -0.241 OA
ENDBRANCH   3  22
TORSDOF 7
ENDMDL
