MODEL 1
REMARK VINA RESULT:      -6.4      0.000      0.000
REMARK  7 active torsions:
REMARK  status: ('A' for Active; 'I' for Inactive)
REMARK    1  A    between atoms: C_2  and  C_3 
REMARK    2  A    between atoms: C_3  and  O_6 
REMARK    3  A    between atoms: C_3  and  C_4 
REMARK    4  A    between atoms: C_7  and  O_6 
REMARK    5  A    between atoms: C_9  and  C_10 
REMARK    6  A    between atoms: N_15  and  C_14 
REMARK    7  A    between atoms: N_20  and  C_19 
REMARK       I    between atoms: C_22  and  N_20 
ROOT
ATOM      1  C   LIG d   1       1.693  82.808 110.943  0.00  0.00     0.161 C 
ATOM      2  C   LIG d   1       2.562  81.716 110.784  0.00  0.00     0.016 C 
ATOM      3  C   LIG d   1       3.111  81.334 109.538  0.00  0.00     0.038 C 
ATOM      4  C   LIG d   1       2.947  82.114 108.384  0.00  0.00     0.028 C 
ATOM      5  C   LIG d   1       1.667  82.944 108.391  0.00  0.00    -0.047 C 
ATOM      6  C   LIG d   1       1.591  83.738 109.715  0.00  0.00     0.091 C 
ENDROOT
BRANCH   1   7
ATOM      7  O   LIG d   1       2.066  83.563 112.113  0.00  0.00    -0.368 OA
BRANCH   7   8
ATOM      8  C   LIG d   1       3.463  83.932 112.215  0.00  0.00     0.119 C 
BRANCH   8   9
ATOM      9  C   LIG d   1       4.015  83.302 113.509  0.00  0.00     0.028 C 
ATOM     10  C   LIG d   1       5.109  82.257 113.232  0.00  0.00     0.006 C 
ENDBRANCH   8   9
BRANCH   8  11
ATOM     11  C   LIG d   1       3.629  85.444 112.397  0.00  0.00     0.028 C 
ATOM     12  C   LIG d   1       4.502  86.083 111.306  0.00  0.00     0.006 C 
ENDBRANCH   8  11
ENDBRANCH   7   8
ENDBRANCH   1   7
BRANCH   6  13
ATOM     13  N   LIG d   1       0.328  84.511 109.840  0.00  0.00    -0.311 N 
ATOM     14  C   LIG d   1       0.292  85.829 110.031  0.00  0.00     0.210 C 
ATOM     15  C   LIG d   1      -1.114  86.426 110.153  0.00  0.00     0.109 C 
ATOM     16  O   LIG d   1       1.289  86.565 110.078  0.00  0.00    -0.276 OA
ATOM     17  H   LIG d   1      -0.529  83.997 109.782  0.00  0.00     0.149 HD
ENDBRANCH   6  13
BRANCH   5  18
ATOM     18  N   LIG d   1       1.692  83.810 107.198  0.00  0.00     0.381 N 
ATOM     19  H   LIG d   1       0.756  84.003 106.900  0.00  0.00    -0.090 HD
ATOM     20  H   LIG d   1       2.165  83.327 106.455  0.00  0.00    -0.090 HD
ATOM     21  H   LIG d   1       2.165  84.662 107.404  0.00  0.00    -0.090 HD
ENDBRANCH   5  18
BRANCH   3  22
ATOM     22  C   LIG d   1       3.802  80.136 109.430  0.00  0.00     0.382 C 
ATOM     23  O   LIG d   1       5.055  80.128 109.478  0.00  0.00    -0.241 OA
ATOM     24  O   LIG d   1       3.189  79.068 109.241  0.00  0.00    -0.241 OA
ENDBRANCH   3  22
TORSDOF 7
ENDMDL
MODEL 2
REMARK VINA RESULT:      -6.4      2.059      5.127
REMARK  7 active torsions:
REMARK  status: ('A' for Active; 'I' for Inactive)
REMARK    1  A    between atoms: C_2  and  C_3 
REMARK    2  A    between atoms: C_3  and  O_6 
REMARK    3  A    between atoms: C_3  and  C_4 
REMARK    4  A    between atoms: C_7  and  O_6 
REMARK    5  A    between atoms: C_9  and  C_10 
REMARK    6  A    between atoms: N_15  and  C_14 
REMARK    7  A    between atoms: N_20  and  C_19 
REMARK       I    between atoms: C_22  and  N_20 
ROOT
ATOM      1  C   LIG d   1       2.440  84.346 109.927  0.00  0.00     0.161 C 
ATOM      2  C   LIG d   1       1.460  85.326 110.158  0.00  0.00     0.016 C 
ATOM      3  C   LIG d   1       0.146  85.026 110.586  0.00  0.00     0.038 C 
ATOM      4  C   LIG d   1      -0.235  83.729 110.959  0.00  0.00     0.028 C 
ATOM      5  C   LIG d   1       0.570  82.637 110.262  0.00  0.00    -0.047 C 
ATOM      6  C   LIG d   1       2.077  82.935 110.435  0.00  0.00     0.091 C 
ENDROOT
BRANCH   1   7
ATOM      7  O   LIG d   1       3.698  84.772 110.486  0.00  0.00    -0.368 OA
BRANCH   7   8
ATOM      8  C   LIG d   1       3.620  85.591 111.679  0.00  0.00     0.119 C 
BRANCH   8   9
ATOM      9  C   LIG d   1       4.768  86.617 111.612  0.00  0.00     0.028 C 
ATOM     10  C   LIG d   1       4.811  87.531 112.848  0.00  0.00     0.006 C 
ENDBRANCH   8   9
BRANCH   8  11
ATOM     11  C   LIG d   1       3.888  84.765 112.941  0.00  0.00     0.028 C 
ATOM     12  C   LIG d   1       2.620  84.520 113.773  0.00  0.00     0.006 C 
ENDBRANCH   8  11
ENDBRANCH   7   8
ENDBRANCH   1   7
BRANCH   6  13
ATOM     13  N   LIG d   1       2.934  81.962 109.711  0.00  0.00    -0.311 N 
ATOM     14  C   LIG d   1       4.047  81.441 110.225  0.00  0.00     0.210 C 
ATOM     15  C   LIG d   1       4.794  80.471 109.303  0.00  0.00     0.109 C 
ATOM     16  O   LIG d   1       4.470  81.665 111.370  0.00  0.00    -0.276 OA
ATOM     17  H   LIG d   1       2.649  81.700 108.788  0.00  0.00     0.149 HD
ENDBRANCH   6  13
BRANCH   5  18
ATOM     18  N   LIG d   1       0.165  81.344 110.844  0.00  0.00     0.381 N 
ATOM     19  H   LIG d   1       0.506  80.595 110.276  0.00  0.00    -0.090 HD
ATOM     20  H   LIG d   1      -0.838  81.295 110.863  0.00  0.00    -0.090 HD
ATOM     21  H   LIG d   1       0.526  81.259 111.769  0.00  0.00    -0.090 HD
ENDBRANCH   5  18
BRANCH   3  22
ATOM     22  C   LIG d   1      -0.815  86.026 110.605  0.00  0.00     0.382 C 
ATOM     23  O   LIG d   1      -1.222  86.483 111.700  0.00  0.00    -0.241 OA
ATOM     24  O   LIG d   1      -1.313  86.444 109.543  0.00  0.00    -0.241 OA
ENDBRANCH   3  22
TORSDOF 7
ENDMDL
MODEL 3
REMARK VINA RESULT:      -6.4      2.602      4.498
REMARK  7 active torsions:
REMARK  status: ('A' for Active; 'I' for Inactive)
REMARK    1  A    between atoms: C_2  and  C_3 
REMARK    2  A    between atoms: C_3  and  O_6 
REMARK    3  A    between atoms: C_3  and  C_4 
REMARK    4  A    between atoms: C_7  and  O_6 
REMARK    5  A    between atoms: C_9  and  C_10 
REMARK    6  A    between atoms: N_15  and  C_14 
REMARK    7  A    between atoms: N_20  and  C_19 
REMARK       I    between atoms: C_22  and  N_20 
ROOT
ATOM      1  C   LIG d   1       2.094  83.500 111.140  0.00  0.00     0.161 C 
ATOM      2  C   LIG d   1       1.028  82.589 111.067  0.00  0.00     0.016 C 
ATOM      3  C   LIG d   1      -0.251  82.842 111.613  0.00  0.00     0.038 C 
ATOM      4  C   LIG d   1      -0.597  84.095 112.141  0.00  0.00     0.028 C 
ATOM      5  C   LIG d   1       0.596  84.871 112.691  0.00  0.00    -0.047 C 
ATOM      6  C   LIG d   1       1.704  84.916 111.614  0.00  0.00     0.091 C 
ENDROOT
BRANCH   1   7
ATOM      7  O   LIG d   1       2.769  83.566 109.868  0.00  0.00    -0.368 OA
BRANCH   7   8
ATOM      8  C   LIG d   1       4.116  83.034 109.833  0.00  0.00     0.119 C 
BRANCH   8   9
ATOM      9  C   LIG d   1       4.253  82.206 108.540  0.00  0.00     0.028 C 
ATOM     10  C   LIG d   1       3.587  80.825 108.654  0.00  0.00     0.006 C 
ENDBRANCH   8   9
BRANCH   8  11
ATOM     11  C   LIG d   1       4.354  82.042 110.976  0.00  0.00     0.028 C 
ATOM     12  C   LIG d   1       5.244  82.618 112.089  0.00  0.00     0.006 C 
ENDBRANCH   8  11
ENDBRANCH   7   8
ENDBRANCH   1   7
BRANCH   6  13
ATOM     13  N   LIG d   1       2.939  85.584 112.100  0.00  0.00    -0.311 N 
ATOM     14  C   LIG d   1       3.222  86.863 111.864  0.00  0.00     0.210 C 
ATOM     15  C   LIG d   1       4.557  87.347 112.438  0.00  0.00     0.109 C 
ATOM     16  O   LIG d   1       2.480  87.652 111.260  0.00  0.00    -0.276 OA
ATOM     17  H   LIG d   1       3.583  85.025 112.626  0.00  0.00     0.149 HD
ENDBRANCH   6  13
BRANCH   5  18
ATOM     18  N   LIG d   1       0.115  86.209 113.082  0.00  0.00     0.381 N 
ATOM     19  H   LIG d   1       0.653  86.912 112.615  0.00  0.00    -0.090 HD
ATOM     20  H   LIG d   1       0.239  86.323 114.072  0.00  0.00    -0.090 HD
ATOM     21  H   LIG d   1      -0.848  86.308 112.847  0.00  0.00    -0.090 HD
ENDBRANCH   5  18
BRANCH   3  22
ATOM     22  C   LIG d   1      -1.189  81.822 111.670  0.00  0.00     0.382 C 
ATOM     23  O   LIG d   1      -2.355  82.064 112.065  0.00  0.00    -0.241 OA
ATOM     24  O   LIG d   1      -0.871  80.655 111.374  0.00  0.00    -0.241 OA
ENDBRANCH   3  22
TORSDOF 7
ENDMDL
MODEL 4
REMARK VINA RESULT:      -6.3      2.999      3.967
REMARK  7 active torsions:
REMARK  status: ('A' for Active; 'I' for Inactive)
REMARK    1  A    between atoms: C_2  and  C_3 
REMARK    2  A    between atoms: C_3  and  O_6 
REMARK    3  A    between atoms: C_3  and  C_4 
REMARK    4  A    between atoms: C_7  and  O_6 
REMARK    5  A    between atoms: C_9  and  C_10 
REMARK    6  A    between atoms: N_15  and  C_14 
REMARK    7  A    between atoms: N_20  and  C_19 
REMARK       I    between atoms: C_22  and  N_20 
ROOT
ATOM      1  C   LIG d   1       1.453  81.569 111.677  0.00  0.00     0.161 C 
ATOM      2  C   LIG d   1       2.552  82.266 111.149  0.00  0.00     0.016 C 
ATOM      3  C   LIG d   1       2.814  82.372 109.763  0.00  0.00     0.038 C 
ATOM      4  C   LIG d   1       1.904  81.911 108.800  0.00  0.00     0.028 C 
ATOM      5  C   LIG d   1       1.035  80.758 109.291  0.00  0.00    -0.047 C 
ATOM      6  C   LIG d   1       0.390  81.154 110.639  0.00  0.00     0.091 C 
ENDROOT
BRANCH   1   7
ATOM      7  O   LIG d   1       0.848  82.340 112.734  0.00  0.00    -0.368 OA
BRANCH   7   8
ATOM      8  C   LIG d   1       0.944  83.780 112.608  0.00  0.00     0.119 C 
BRANCH   8   9
ATOM      9  C   LIG d   1       1.443  84.330 113.958  0.00  0.00     0.028 C 
ATOM     10  C   LIG d   1       2.926  84.737 113.913  0.00  0.00     0.006 C 
ENDBRANCH   8   9
BRANCH   8  11
ATOM     11  C   LIG d   1      -0.434  84.414 112.396  0.00  0.00     0.028 C 
ATOM     12  C   LIG d   1      -0.548  85.814 113.019  0.00  0.00     0.006 C 
ENDBRANCH   8  11
ENDBRANCH   7   8
ENDBRANCH   1   7
BRANCH   6  13
ATOM     13  N   LIG d   1      -0.410  80.051 111.230  0.00  0.00    -0.311 N 
ATOM     14  C   LIG d   1      -1.594  80.234 111.813  0.00  0.00     0.210 C 
ATOM     15  C   LIG d   1      -2.241  78.965 112.376  0.00  0.00     0.109 C 
ATOM     16  O   LIG d   1      -2.183  81.323 111.890  0.00  0.00    -0.276 OA
ATOM     17  H   LIG d   1      -0.021  79.129 111.184  0.00  0.00     0.149 HD
ENDBRANCH   6  13
BRANCH   5  18
ATOM     18  N   LIG d   1       0.042  80.469 108.238  0.00  0.00     0.381 N 
ATOM     19  H   LIG d   1      -0.450  81.307 107.997  0.00  0.00    -0.090 HD
ATOM     20  H   LIG d   1      -0.622  79.804 108.592  0.00  0.00    -0.090 HD
ATOM     21  H   LIG d   1       0.497  80.100 107.432  0.00  0.00    -0.090 HD
ENDBRANCH   5  18
BRANCH   3  22
ATOM     22  C   LIG d   1       4.017  82.909 109.330  0.00  0.00     0.382 C 
ATOM     23  O   LIG d   1       4.726  82.277 108.510  0.00  0.00    -0.241 OA
ATOM     24  O   LIG d   1       4.423  83.996 109.782  0.00  0.00    -0.241 OA
ENDBRANCH   3  22
TORSDOF 7
ENDMDL
MODEL 5
REMARK VINA RESULT:      -6.2      2.208      4.875
REMARK  7 active torsions:
REMARK  status: ('A' for Active; 'I' for Inactive)
REMARK    1  A    between atoms: C_2  and  C_3 
REMARK    2  A    between atoms: C_3  and  O_6 
REMARK    3  A    between atoms: C_3  and  C_4 
REMARK    4  A    between atoms: C_7  and  O_6 
REMARK    5  A    between atoms: C_9  and  C_10 
REMARK    6  A    between atoms: N_15  and  C_14 
REMARK    7  A    between atoms: N_20  and  C_19 
REMARK       I    between atoms: C_22  and  N_20 
ROOT
ATOM      1  C   LIG d   1       3.230  84.185 111.247  0.00  0.00     0.161 C 
ATOM      2  C   LIG d   1       3.668  85.360 111.880  0.00  0.00     0.016 C 
ATOM      3  C   LIG d   1       3.072  86.625 111.672  0.00  0.00     0.038 C 
ATOM      4  C   LIG d   1       1.894  86.776 110.927  0.00  0.00     0.028 C 
ATOM      5  C   LIG d   1       1.709  85.701 109.861  0.00  0.00    -0.047 C 
ATOM      6  C   LIG d   1       1.877  84.311 110.516  0.00  0.00     0.091 C 
ENDROOT
BRANCH   1   7
ATOM      7  O   LIG d   1       3.187  83.103 112.198  0.00  0.00    -0.368 OA
BRANCH   7   8
ATOM      8  C   LIG d   1       4.133  82.027 111.983  0.00  0.00     0.119 C 
BRANCH   8   9
ATOM      9  C   LIG d   1       5.189  82.108 113.102  0.00  0.00     0.028 C 
ATOM     10  C   LIG d   1       4.557  82.198 114.501  0.00  0.00     0.006 C 
ENDBRANCH   8   9
BRANCH   8  11
ATOM     11  C   LIG d   1       4.910  82.221 110.677  0.00  0.00     0.028 C 
ATOM     12  C   LIG d   1       4.757  81.036 109.711  0.00  0.00     0.006 C 
ENDBRANCH   8  11
ENDBRANCH   7   8
ENDBRANCH   1   7
BRANCH   6  13
ATOM     13  N   LIG d   1       1.795  83.204 109.528  0.00  0.00    -0.311 N 
ATOM     14  C   LIG d   1       0.998  82.147 109.674  0.00  0.00     0.210 C 
ATOM     15  C   LIG d   1       1.082  81.113 108.548  0.00  0.00     0.109 C 
ATOM     16  O   LIG d   1       0.205  81.984 110.614  0.00  0.00    -0.276 OA
ATOM     17  H   LIG d   1       2.381  83.271 108.719  0.00  0.00     0.149 HD
ENDBRANCH   6  13
BRANCH   5  18
ATOM     18  N   LIG d   1       0.379  85.898 109.255  0.00  0.00     0.381 N 
ATOM     19  H   LIG d   1       0.066  85.043 108.840  0.00  0.00    -0.090 HD
ATOM     20  H   LIG d   1       0.451  86.591 108.531  0.00  0.00    -0.090 HD
ATOM     21  H   LIG d   1      -0.271  86.196 109.948  0.00  0.00    -0.090 HD
ENDBRANCH   5  18
BRANCH   3  22
ATOM     22  C   LIG d   1       3.680  87.763 112.181  0.00  0.00     0.382 C 
ATOM     23  O   LIG d   1       2.980  88.739 112.541  0.00  0.00    -0.241 OA
ATOM     24  O   LIG d   1       4.922  87.842 112.243  0.00  0.00    -0.241 OA
ENDBRANCH   3  22
TORSDOF 7
ENDMDL
MODEL 6
REMARK VINA RESULT:      -6.2      2.168      5.050
REMARK  7 active torsions:
REMARK  status: ('A' for Active; 'I' for Inactive)
REMARK    1  A    between atoms: C_2  and  C_3 
REMARK    2  A    between atoms: C_3  and  O_6 
REMARK    3  A    between atoms: C_3  and  C_4 
REMARK    4  A    between atoms: C_7  and  O_6 
REMARK    5  A    between atoms: C_9  and  C_10 
REMARK    6  A    between atoms: N_15  and  C_14 
REMARK    7  A    between atoms: N_20  and  C_19 
REMARK       I    between atoms: C_22  and  N_20 
ROOT
ATOM      1  C   LIG d   1       2.504  83.966 109.692  0.00  0.00     0.161 C 
ATOM      2  C   LIG d   1       2.672  85.167 110.400  0.00  0.00     0.016 C 
ATOM      3  C   LIG d   1       1.775  85.614 111.398  0.00  0.00     0.038 C 
ATOM      4  C   LIG d   1       0.724  84.810 111.864  0.00  0.00     0.028 C 
ATOM      5  C   LIG d   1       0.220  83.811 110.828  0.00  0.00    -0.047 C 
ATOM      6  C   LIG d   1       1.425  83.023 110.264  0.00  0.00     0.091 C 
ENDROOT
BRANCH   1   7
ATOM      7  O   LIG d   1       3.767  83.278 109.590  0.00  0.00    -0.368 OA
BRANCH   7   8
ATOM      8  C   LIG d   1       3.986  82.204 110.537  0.00  0.00     0.119 C 
BRANCH   8   9
ATOM      9  C   LIG d   1       5.058  82.679 111.536  0.00  0.00     0.028 C 
ATOM     10  C   LIG d   1       4.481  82.935 112.939  0.00  0.00     0.006 C 
ENDBRANCH   8   9
BRANCH   8  11
ATOM     11  C   LIG d   1       4.586  80.972 109.853  0.00  0.00     0.028 C 
ATOM     12  C   LIG d   1       4.297  80.927 108.344  0.00  0.00     0.006 C 
ENDBRANCH   8  11
ENDBRANCH   7   8
ENDBRANCH   1   7
BRANCH   6  13
ATOM     13  N   LIG d   1       1.031  82.082 109.183  0.00  0.00    -0.311 N 
ATOM     14  C   LIG d   1       0.706  80.809 109.401  0.00  0.00     0.210 C 
ATOM     15  C   LIG d   1       0.350  80.008 108.145  0.00  0.00     0.109 C 
ATOM     16  O   LIG d   1       0.649  80.275 110.520  0.00  0.00    -0.276 OA
ATOM     17  H   LIG d   1       1.020  82.440 108.248  0.00  0.00     0.149 HD
ENDBRANCH   6  13
BRANCH   5  18
ATOM     18  N   LIG d   1      -0.777  82.948 111.489  0.00  0.00     0.381 N 
ATOM     19  H   LIG d   1      -0.564  81.987 111.311  0.00  0.00    -0.090 HD
ATOM     20  H   LIG d   1      -1.684  83.147 111.105  0.00  0.00    -0.090 HD
ATOM     21  H   LIG d   1      -0.779  83.119 112.470  0.00  0.00    -0.090 HD
ENDBRANCH   5  18
BRANCH   3  22
ATOM     22  C   LIG d   1       1.903  86.895 111.912  0.00  0.00     0.382 C 
ATOM     23  O   LIG d   1       2.400  87.807 111.208  0.00  0.00    -0.241 OA
ATOM     24  O   LIG d   1       1.568  87.141 113.087  0.00  0.00    -0.241 OA
ENDBRANCH   3  22
TORSDOF 7
ENDMDL
MODEL 7
REMARK VINA RESULT:      -5.9      1.292      2.270
REMARK  7 active torsions:
REMARK  status: ('A' for Active; 'I' for Inactive)
REMARK    1  A    between atoms: C_2  and  C_3 
REMARK    2  A    between atoms: C_3  and  O_6 
REMARK    3  A    between atoms: C_3  and  C_4 
REMARK    4  A    between atoms: C_7  and  O_6 
REMARK    5  A    between atoms: C_9  and  C_10 
REMARK    6  A    between atoms: N_15  and  C_14 
REMARK    7  A    between atoms: N_20  and  C_19 
REMARK       I    between atoms: C_22  and  N_20 
ROOT
ATOM      1  C   LIG d   1       2.128  83.144 110.813  0.00  0.00     0.161 C 
ATOM      2  C   LIG d   1       3.023  82.067 110.706  0.00  0.00     0.016 C 
ATOM      3  C   LIG d   1       3.431  81.513 109.470  0.00  0.00     0.038 C 
ATOM      4  C   LIG d   1       3.086  82.102 108.245  0.00  0.00     0.028 C 
ATOM      5  C   LIG d   1       1.778  82.884 108.295  0.00  0.00    -0.047 C 
ATOM      6  C   LIG d   1       1.828  83.870 109.484  0.00  0.00     0.091 C 
ENDROOT
BRANCH   1   7
ATOM      7  O   LIG d   1       2.605  84.080 111.799  0.00  0.00    -0.368 OA
BRANCH   7   8
ATOM      8  C   LIG d   1       1.935  84.052 113.083  0.00  0.00     0.119 C 
BRANCH   8   9
ATOM      9  C   LIG d   1       1.646  85.510 113.487  0.00  0.00     0.028 C 
ATOM     10  C   LIG d   1       0.141  85.800 113.607  0.00  0.00     0.006 C 
ENDBRANCH   8   9
BRANCH   8  11
ATOM     11  C   LIG d   1       2.852  83.501 114.179  0.00  0.00     0.028 C 
ATOM     12  C   LIG d   1       2.185  82.396 115.014  0.00  0.00     0.006 C 
ENDBRANCH   8  11
ENDBRANCH   7   8
ENDBRANCH   1   7
BRANCH   6  13
ATOM     13  N   LIG d   1       0.554  84.616 109.657  0.00  0.00    -0.311 N 
ATOM     14  C   LIG d   1       0.498  85.909 109.971  0.00  0.00     0.210 C 
ATOM     15  C   LIG d   1      -0.916  86.477 110.120  0.00  0.00     0.109 C 
ATOM     16  O   LIG d   1       1.486  86.646 110.109  0.00  0.00    -0.276 OA
ATOM     17  H   LIG d   1      -0.296  84.101 109.532  0.00  0.00     0.149 HD
ENDBRANCH   6  13
BRANCH   5  18
ATOM     18  N   LIG d   1       1.611  83.557 106.993  0.00  0.00     0.381 N 
ATOM     19  H   LIG d   1       1.287  82.901 106.311  0.00  0.00    -0.090 HD
ATOM     20  H   LIG d   1       2.503  83.910 106.692  0.00  0.00    -0.090 HD
ATOM     21  H   LIG d   1       0.961  84.307 107.078  0.00  0.00    -0.090 HD
ENDBRANCH   5  18
BRANCH   3  22
ATOM     22  C   LIG d   1       4.161  80.335 109.453  0.00  0.00     0.382 C 
ATOM     23  O   LIG d   1       3.572  79.235 109.316  0.00  0.00    -0.241 OA
ATOM     24  O   LIG d   1       5.395  80.353 109.616  0.00  0.00    -0.241 OA
ENDBRANCH   3  22
TORSDOF 7
ENDMDL
MODEL 8
REMARK VINA RESULT:      -5.9      2.088      4.001
REMARK  7 active torsions:
REMARK  status: ('A' for Active; 'I' for Inactive)
REMARK    1  A    between atoms: C_2  and  C_3 
REMARK    2  A    between atoms: C_3  and  O_6 
REMARK    3  A    between atoms: C_3  and  C_4 
REMARK    4  A    between atoms: C_7  and  O_6 
REMARK    5  A    between atoms: C_9  and  C_10 
REMARK    6  A    between atoms: N_15  and  C_14 
REMARK    7  A    between atoms: N_20  and  C_19 
REMARK       I    between atoms: C_22  and  N_20 
ROOT
ATOM      1  C   LIG d   1       2.947  83.922 109.608  0.00  0.00     0.161 C 
ATOM      2  C   LIG d   1       2.601  82.638 109.153  0.00  0.00     0.016 C 
ATOM      3  C   LIG d   1       2.905  81.453 109.862  0.00  0.00     0.038 C 
ATOM      4  C   LIG d   1       3.447  81.482 111.156  0.00  0.00     0.028 C 
ATOM      5  C   LIG d   1       4.273  82.732 111.439  0.00  0.00    -0.047 C 
ATOM      6  C   LIG d   1       3.439  83.979 111.069  0.00  0.00     0.091 C 
ENDROOT
BRANCH   1   7
ATOM      7  O   LIG d   1       1.838  84.823 109.417  0.00  0.00    -0.368 OA
BRANCH   7   8
ATOM      8  C   LIG d   1       0.968  85.015 110.559  0.00  0.00     0.119 C 
BRANCH   8   9
ATOM      9  C   LIG d   1      -0.197  84.016 110.427  0.00  0.00     0.028 C 
ATOM     10  C   LIG d   1      -0.289  83.060 111.628  0.00  0.00     0.006 C 
ENDBRANCH   8   9
BRANCH   8  11
ATOM     11  C   LIG d   1       0.318  86.402 110.538  0.00  0.00     0.028 C 
ATOM     12  C   LIG d   1      -1.122  86.376 110.002  0.00  0.00     0.006 C 
ENDBRANCH   8  11
ENDBRANCH   7   8
ENDBRANCH   1   7
BRANCH   6  13
ATOM     13  N   LIG d   1       4.203  85.243 111.237  0.00  0.00    -0.311 N 
ATOM     14  C   LIG d   1       4.180  85.971 112.351  0.00  0.00     0.210 C 
ATOM     15  C   LIG d   1       5.024  87.249 112.306  0.00  0.00     0.109 C 
ATOM     16  O   LIG d   1       3.566  85.665 113.384  0.00  0.00    -0.276 OA
ATOM     17  H   LIG d   1       4.754  85.549 110.458  0.00  0.00     0.149 HD
ENDBRANCH   6  13
BRANCH   5  18
ATOM     18  N   LIG d   1       4.661  82.696 112.862  0.00  0.00     0.381 N 
ATOM     19  H   LIG d   1       3.857  82.855 113.436  0.00  0.00    -0.090 HD
ATOM     20  H   LIG d   1       5.323  83.432 113.036  0.00  0.00    -0.090 HD
ATOM     21  H   LIG d   1       5.068  81.814 113.083  0.00  0.00    -0.090 HD
ENDBRANCH   5  18
BRANCH   3  22
ATOM     22  C   LIG d   1       2.704  80.221 109.259  0.00  0.00     0.382 C 
ATOM     23  O   LIG d   1       1.588  79.943 108.757  0.00  0.00    -0.241 OA
ATOM     24  O   LIG d   1       3.611  79.367 109.249  0.00  0.00    -0.241 OA
ENDBRANCH   3  22
TORSDOF 7
ENDMDL
MODEL 9
REMARK VINA RESULT:      -5.7      2.167      4.635
REMARK  7 active torsions:
REMARK  status: ('A' for Active; 'I' for Inactive)
REMARK    1  A    between atoms: C_2  and  C_3 
REMARK    2  A    between atoms: C_3  and  O_6 
REMARK    3  A    between atoms: C_3  and  C_4 
REMARK    4  A    between atoms: C_7  and  O_6 
REMARK    5  A    between atoms: C_9  and  C_10 
REMARK    6  A    between atoms: N_15  and  C_14 
REMARK    7  A    between atoms: N_20  and  C_19 
REMARK       I    between atoms: C_22  and  N_20 
ROOT
ATOM      1  C   LIG d   1       3.950  82.930 111.207  0.00  0.00     0.161 C 
ATOM      2  C   LIG d   1       4.243  84.239 111.623  0.00  0.00     0.016 C 
ATOM      3  C   LIG d   1       3.516  85.374 111.193  0.00  0.00     0.038 C 
ATOM      4  C   LIG d   1       2.344  85.258 110.431  0.00  0.00     0.028 C 
ATOM      5  C   LIG d   1       2.301  83.998 109.573  0.00  0.00    -0.047 C 
ATOM      6  C   LIG d   1       2.606  82.773 110.465  0.00  0.00     0.091 C 
ENDROOT
BRANCH   1   7
ATOM      7  O   LIG d   1       4.006  82.035 112.335  0.00  0.00    -0.368 OA
BRANCH   7   8
ATOM      8  C   LIG d   1       3.958  82.655 113.644  0.00  0.00     0.119 C 
BRANCH   8   9
ATOM      9  C   LIG d   1       4.903  81.862 114.567  0.00  0.00     0.028 C 
ATOM     10  C   LIG d   1       4.646  82.148 116.056  0.00  0.00     0.006 C 
ENDBRANCH   8   9
BRANCH   8  11
ATOM     11  C   LIG d   1       2.569  82.520 114.274  0.00  0.00     0.028 C 
ATOM     12  C   LIG d   1       1.766  83.831 114.232  0.00  0.00     0.006 C 
ENDBRANCH   8  11
ENDBRANCH   7   8
ENDBRANCH   1   7
BRANCH   6  13
ATOM     13  N   LIG d   1       2.667  81.508 109.688  0.00  0.00    -0.311 N 
ATOM     14  C   LIG d   1       1.611  80.722 109.482  0.00  0.00     0.210 C 
ATOM     15  C   LIG d   1       1.896  79.454 108.671  0.00  0.00     0.109 C 
ATOM     16  O   LIG d   1       0.458  80.971 109.866  0.00  0.00    -0.276 OA
ATOM     17  H   LIG d   1       3.557  81.245 109.312  0.00  0.00     0.149 HD
ENDBRANCH   6  13
BRANCH   5  18
ATOM     18  N   LIG d   1       0.970  83.936 108.940  0.00  0.00     0.381 N 
ATOM     19  H   LIG d   1       0.715  84.840 108.596  0.00  0.00    -0.090 HD
ATOM     20  H   LIG d   1       0.294  83.659 109.630  0.00  0.00    -0.090 HD
ATOM     21  H   LIG d   1       0.979  83.279 108.191  0.00  0.00    -0.090 HD
ENDBRANCH   5  18
BRANCH   3  22
ATOM     22  C   LIG d   1       3.985  86.644 111.493  0.00  0.00     0.382 C 
ATOM     23  O   LIG d   1       3.181  87.602 111.587  0.00  0.00    -0.241 OA
ATOM     24  O   LIG d   1       5.206  86.852 111.626  0.00  0.00    -0.241 OA
ENDBRANCH   3  22
TORSDOF 7
ENDMDL
