MODEL 1
REMARK VINA RESULT:      -5.6      0.000      0.000
REMARK  7 active torsions:
REMARK  status: ('A' for Active; 'I' for Inactive)
REMARK    1  A    between atoms: C_2  and  C_3 
REMARK    2  A    between atoms: C_3  and  O_6 
REMARK    3  A    between atoms: C_3  and  C_4 
REMARK    4  A    between atoms: C_7  and  O_6 
REMARK    5  A    between atoms: C_9  and  C_10 
REMARK    6  A    between atoms: N_15  and  C_14 
REMARK    7  A    between atoms: N_20  and  C_19 
REMARK       I    between atoms: C_22  and  N_20 
ROOT
ATOM      1  C   LIG d   1      -8.176  75.388 117.498  0.00  0.00     0.161 C 
ATOM      2  C   LIG d   1      -9.431  75.771 118.001  0.00  0.00     0.016 C 
ATOM      3  C   LIG d   1      -9.764  77.106 118.327  0.00  0.00     0.038 C 
ATOM      4  C   LIG d   1      -8.910  78.178 118.027  0.00  0.00     0.028 C 
ATOM      5  C   LIG d   1      -7.437  77.785 117.985  0.00  0.00    -0.047 C 
ATOM      6  C   LIG d   1      -7.271  76.558 117.060  0.00  0.00     0.091 C 
ENDROOT
BRANCH   1   7
ATOM      7  O   LIG d   1      -8.349  74.455 116.413  0.00  0.00    -0.368 OA
BRANCH   7   8
ATOM      8  C   LIG d   1      -8.403  73.055 116.779  0.00  0.00     0.119 C 
BRANCH   8   9
ATOM      9  C   LIG d   1      -7.583  72.271 115.735  0.00  0.00     0.028 C 
ATOM     10  C   LIG d   1      -6.358  73.058 115.240  0.00  0.00     0.006 C 
ENDBRANCH   8   9
BRANCH   8  11
ATOM     11  C   LIG d   1      -9.828  72.505 116.671  0.00  0.00     0.028 C 
ATOM     12  C   LIG d   1      -9.880  70.969 116.719  0.00  0.00     0.006 C 
ENDBRANCH   8  11
ENDBRANCH   7   8
ENDBRANCH   1   7
BRANCH   6  13
ATOM     13  N   LIG d   1      -5.872  76.057 117.029  0.00  0.00    -0.311 N 
ATOM     14  C   LIG d   1      -4.982  76.422 116.107  0.00  0.00     0.210 C 
ATOM     15  C   LIG d   1      -3.602  75.772 116.247  0.00  0.00     0.109 C 
ATOM     16  O   LIG d   1      -5.196  77.247 115.206  0.00  0.00    -0.276 OA
ATOM     17  H   LIG d   1      -5.604  75.408 117.742  0.00  0.00     0.149 HD
ENDBRANCH   6  13
BRANCH   5  18
ATOM     18  N   LIG d   1      -6.675  78.962 117.528  0.00  0.00     0.381 N 
ATOM     19  H   LIG d   1      -6.020  79.236 118.233  0.00  0.00    -0.090 HD
ATOM     20  H   LIG d   1      -7.313  79.724 117.377  0.00  0.00    -0.090 HD
ATOM     21  H   LIG d   1      -6.194  78.749 116.682  0.00  0.00    -0.090 HD
ENDBRANCH   5  18
BRANCH   3  22
ATOM     22  C   LIG d   1     -10.948  77.374 118.996  0.00  0.00     0.382 C 
ATOM     23  O   LIG d   1     -10.983  78.272 119.872  0.00  0.00    -0.241 OA
ATOM     24  O   LIG d   1     -11.971  76.701 118.766  0.00  0.00    -0.241 OA
ENDBRANCH   3  22
TORSDOF 7
ENDMDL
MODEL 2
REMARK VINA RESULT:      -5.4      2.280      4.646
REMARK  7 active torsions:
REMARK  status: ('A' for Active; 'I' for Inactive)
REMARK    1  A    between atoms: C_2  and  C_3 
REMARK    2  A    between atoms: C_3  and  O_6 
REMARK    3  A    between atoms: C_3  and  C_4 
REMARK    4  A    between atoms: C_7  and  O_6 
REMARK    5  A    between atoms: C_9  and  C_10 
REMARK    6  A    between atoms: N_15  and  C_14 
REMARK    7  A    between atoms: N_20  and  C_19 
REMARK       I    between atoms: C_22  and  N_20 
ROOT
ATOM      1  C   LIG d   1      -7.148  75.742 116.559  0.00  0.00     0.161 C 
ATOM      2  C   LIG d   1      -8.511  75.756 116.897  0.00  0.00     0.016 C 
ATOM      3  C   LIG d   1      -9.326  74.601 116.895  0.00  0.00     0.038 C 
ATOM      4  C   LIG d   1      -8.792  73.318 116.701  0.00  0.00     0.028 C 
ATOM      5  C   LIG d   1      -7.520  73.312 115.861  0.00  0.00    -0.047 C 
ATOM      6  C   LIG d   1      -6.523  74.335 116.453  0.00  0.00     0.091 C 
ENDROOT
BRANCH   1   7
ATOM      7  O   LIG d   1      -6.404  76.550 117.493  0.00  0.00    -0.368 OA
BRANCH   7   8
ATOM      8  C   LIG d   1      -5.962  77.841 117.007  0.00  0.00     0.119 C 
BRANCH   8   9
ATOM      9  C   LIG d   1      -4.421  77.835 117.012  0.00  0.00     0.028 C 
ATOM     10  C   LIG d   1      -3.828  78.058 115.611  0.00  0.00     0.006 C 
ENDBRANCH   8   9
BRANCH   8  11
ATOM     11  C   LIG d   1      -6.367  78.966 117.964  0.00  0.00     0.028 C 
ATOM     12  C   LIG d   1      -7.856  79.332 117.858  0.00  0.00     0.006 C 
ENDBRANCH   8  11
ENDBRANCH   7   8
ENDBRANCH   1   7
BRANCH   6  13
ATOM     13  N   LIG d   1      -5.284  74.453 115.641  0.00  0.00    -0.311 N 
ATOM     14  C   LIG d   1      -4.068  74.190 116.117  0.00  0.00     0.210 C 
ATOM     15  C   LIG d   1      -2.924  74.396 115.118  0.00  0.00     0.109 C 
ATOM     16  O   LIG d   1      -3.831  73.776 117.261  0.00  0.00    -0.276 OA
ATOM     17  H   LIG d   1      -5.387  74.754 114.692  0.00  0.00     0.149 HD
ENDBRANCH   6  13
BRANCH   5  18
ATOM     18  N   LIG d   1      -6.997  71.933 115.853  0.00  0.00     0.381 N 
ATOM     19  H   LIG d   1      -6.039  71.932 116.144  0.00  0.00    -0.090 HD
ATOM     20  H   LIG d   1      -7.042  71.573 114.916  0.00  0.00    -0.090 HD
ATOM     21  H   LIG d   1      -7.537  71.360 116.464  0.00  0.00    -0.090 HD
ENDBRANCH   5  18
BRANCH   3  22
ATOM     22  C   LIG d   1     -10.698  74.727 117.051  0.00  0.00     0.382 C 
ATOM     23  O   LIG d   1     -11.176  75.752 117.595  0.00  0.00    -0.241 OA
ATOM     24  O   LIG d   1     -11.461  73.809 116.695  0.00  0.00    -0.241 OA
ENDBRANCH   3  22
TORSDOF 7
ENDMDL
MODEL 3
REMARK VINA RESULT:      -5.4     15.312     17.264
REMARK  7 active torsions:
REMARK  status: ('A' for Active; 'I' for Inactive)
REMARK    1  A    between atoms: C_2  and  C_3 
REMARK    2  A    between atoms: C_3  and  O_6 
REMARK    3  A    between atoms: C_3  and  C_4 
REMARK    4  A    between atoms: C_7  and  O_6 
REMARK    5  A    between atoms: C_9  and  C_10 
REMARK    6  A    between atoms: N_15  and  C_14 
REMARK    7  A    between atoms: N_20  and  C_19 
REMARK       I    between atoms: C_22  and  N_20 
ROOT
ATOM      1  C   LIG d   1      -4.204  91.586 118.318  0.00  0.00     0.161 C 
ATOM      2  C   LIG d   1      -4.827  91.030 117.189  0.00  0.00     0.016 C 
ATOM      3  C   LIG d   1      -6.151  91.338 116.800  0.00  0.00     0.038 C 
ATOM      4  C   LIG d   1      -6.895  92.344 117.433  0.00  0.00     0.028 C 
ATOM      5  C   LIG d   1      -6.492  92.572 118.886  0.00  0.00    -0.047 C 
ATOM      6  C   LIG d   1      -4.960  92.769 118.957  0.00  0.00     0.091 C 
ENDROOT
BRANCH   1   7
ATOM      7  O   LIG d   1      -2.854  91.972 117.991  0.00  0.00    -0.368 OA
BRANCH   7   8
ATOM      8  C   LIG d   1      -1.815  91.032 118.361  0.00  0.00     0.119 C 
BRANCH   8   9
ATOM      9  C   LIG d   1      -0.962  91.694 119.460  0.00  0.00     0.028 C 
ATOM     10  C   LIG d   1      -1.208  91.077 120.847  0.00  0.00     0.006 C 
ENDBRANCH   8   9
BRANCH   8  11
ATOM     11  C   LIG d   1      -0.853  90.779 117.197  0.00  0.00     0.028 C 
ATOM     12  C   LIG d   1      -0.847  89.312 116.737  0.00  0.00     0.006 C 
ENDBRANCH   8  11
ENDBRANCH   7   8
ENDBRANCH   1   7
BRANCH   6  13
ATOM     13  N   LIG d   1      -4.472  92.914 120.353  0.00  0.00    -0.311 N 
ATOM     14  C   LIG d   1      -3.695  93.918 120.757  0.00  0.00     0.210 C 
ATOM     15  C   LIG d   1      -3.288  93.867 122.233  0.00  0.00     0.109 C 
ATOM     16  O   LIG d   1      -3.330  94.862 120.041  0.00  0.00    -0.276 OA
ATOM     17  H   LIG d   1      -4.746  92.208 121.008  0.00  0.00     0.149 HD
ENDBRANCH   6  13
BRANCH   5  18
ATOM     18  N   LIG d   1      -7.249  93.737 119.381  0.00  0.00     0.381 N 
ATOM     19  H   LIG d   1      -8.227  93.527 119.390  0.00  0.00    -0.090 HD
ATOM     20  H   LIG d   1      -7.098  94.511 118.758  0.00  0.00    -0.090 HD
ATOM     21  H   LIG d   1      -6.944  93.977 120.299  0.00  0.00    -0.090 HD
ENDBRANCH   5  18
BRANCH   3  22
ATOM     22  C   LIG d   1      -6.759  90.606 115.791  0.00  0.00     0.382 C 
ATOM     23  O   LIG d   1      -7.359  91.198 114.861  0.00  0.00    -0.241 OA
ATOM     24  O   LIG d   1      -6.752  89.361 115.821  0.00  0.00    -0.241 OA
ENDBRANCH   3  22
TORSDOF 7
ENDMDL
MODEL 4
REMARK VINA RESULT:      -5.2      1.932      4.759
REMARK  7 active torsions:
REMARK  status: ('A' for Active; 'I' for Inactive)
REMARK    1  A    between atoms: C_2  and  C_3 
REMARK    2  A    between atoms: C_3  and  O_6 
REMARK    3  A    between atoms: C_3  and  C_4 
REMARK    4  A    between atoms: C_7  and  O_6 
REMARK    5  A    between atoms: C_9  and  C_10 
REMARK    6  A    between atoms: N_15  and  C_14 
REMARK    7  A    between atoms: N_20  and  C_19 
REMARK       I    between atoms: C_22  and  N_20 
ROOT
ATOM      1  C   LIG d   1      -8.090  76.206 116.926  0.00  0.00     0.161 C 
ATOM      2  C   LIG d   1      -9.214  75.368 117.012  0.00  0.00     0.016 C 
ATOM      3  C   LIG d   1      -9.167  73.975 116.772  0.00  0.00     0.038 C 
ATOM      4  C   LIG d   1      -7.955  73.297 116.577  0.00  0.00     0.028 C 
ATOM      5  C   LIG d   1      -6.858  74.175 115.983  0.00  0.00    -0.047 C 
ATOM      6  C   LIG d   1      -6.739  75.467 116.824  0.00  0.00     0.091 C 
ENDROOT
BRANCH   1   7
ATOM      7  O   LIG d   1      -8.077  77.121 118.039  0.00  0.00    -0.368 OA
BRANCH   7   8
ATOM      8  C   LIG d   1      -9.219  78.007 118.149  0.00  0.00     0.119 C 
BRANCH   8   9
ATOM      9  C   LIG d   1      -8.710  79.446 117.941  0.00  0.00     0.028 C 
ATOM     10  C   LIG d   1      -9.844  80.483 117.993  0.00  0.00     0.006 C 
ENDBRANCH   8   9
BRANCH   8  11
ATOM     11  C   LIG d   1      -9.806  77.985 119.564  0.00  0.00     0.028 C 
ATOM     12  C   LIG d   1     -11.177  77.292 119.629  0.00  0.00     0.006 C 
ENDBRANCH   8  11
ENDBRANCH   7   8
ENDBRANCH   1   7
BRANCH   6  13
ATOM     13  N   LIG d   1      -5.747  76.420 116.261  0.00  0.00    -0.311 N 
ATOM     14  C   LIG d   1      -4.474  76.467 116.650  0.00  0.00     0.210 C 
ATOM     15  C   LIG d   1      -3.625  77.537 115.957  0.00  0.00     0.109 C 
ATOM     16  O   LIG d   1      -3.959  75.702 117.480  0.00  0.00    -0.276 OA
ATOM     17  H   LIG d   1      -6.072  77.056 115.560  0.00  0.00     0.149 HD
ENDBRANCH   6  13
BRANCH   5  18
ATOM     18  N   LIG d   1      -5.615  73.382 115.962  0.00  0.00     0.381 N 
ATOM     19  H   LIG d   1      -5.316  73.196 116.898  0.00  0.00    -0.090 HD
ATOM     20  H   LIG d   1      -4.897  73.915 115.502  0.00  0.00    -0.090 HD
ATOM     21  H   LIG d   1      -5.765  72.525 115.477  0.00  0.00    -0.090 HD
ENDBRANCH   5  18
BRANCH   3  22
ATOM     22  C   LIG d   1     -10.347  73.252 116.686  0.00  0.00     0.382 C 
ATOM     23  O   LIG d   1     -10.311  72.014 116.484  0.00  0.00    -0.241 OA
ATOM     24  O   LIG d   1     -11.448  73.829 116.764  0.00  0.00    -0.241 OA
ENDBRANCH   3  22
TORSDOF 7
ENDMDL
MODEL 5
REMARK VINA RESULT:      -5.1      2.526      4.872
REMARK  7 active torsions:
REMARK  status: ('A' for Active; 'I' for Inactive)
REMARK    1  A    between atoms: C_2  and  C_3 
REMARK    2  A    between atoms: C_3  and  O_6 
REMARK    3  A    between atoms: C_3  and  C_4 
REMARK    4  A    between atoms: C_7  and  O_6 
REMARK    5  A    between atoms: C_9  and  C_10 
REMARK    6  A    between atoms: N_15  and  C_14 
REMARK    7  A    between atoms: N_20  and  C_19 
REMARK       I    between atoms: C_22  and  N_20 
ROOT
ATOM      1  C   LIG d   1      -5.894  74.635 116.426  0.00  0.00     0.161 C 
ATOM      2  C   LIG d   1      -6.694  73.537 116.072  0.00  0.00     0.016 C 
ATOM      3  C   LIG d   1      -8.085  73.475 116.319  0.00  0.00     0.038 C 
ATOM      4  C   LIG d   1      -8.801  74.579 116.806  0.00  0.00     0.028 C 
ATOM      5  C   LIG d   1      -7.954  75.528 117.646  0.00  0.00    -0.047 C 
ATOM      6  C   LIG d   1      -6.677  75.894 116.857  0.00  0.00     0.091 C 
ENDROOT
BRANCH   1   7
ATOM      7  O   LIG d   1      -4.992  74.951 115.347  0.00  0.00    -0.368 OA
BRANCH   7   8
ATOM      8  C   LIG d   1      -3.661  74.387 115.444  0.00  0.00     0.119 C 
BRANCH   8   9
ATOM      9  C   LIG d   1      -3.393  74.083 116.930  0.00  0.00     0.028 C 
ATOM     10  C   LIG d   1      -2.094  73.287 117.142  0.00  0.00     0.006 C 
ENDBRANCH   8   9
BRANCH   8  11
ATOM     11  C   LIG d   1      -2.592  75.407 115.040  0.00  0.00     0.028 C 
ATOM     12  C   LIG d   1      -3.028  76.859 115.296  0.00  0.00     0.006 C 
ENDBRANCH   8  11
ENDBRANCH   7   8
ENDBRANCH   1   7
BRANCH   6  13
ATOM     13  N   LIG d   1      -5.752  76.753 117.641  0.00  0.00    -0.311 N 
ATOM     14  C   LIG d   1      -5.760  78.083 117.583  0.00  0.00     0.210 C 
ATOM     15  C   LIG d   1      -4.709  78.775 118.457  0.00  0.00     0.109 C 
ATOM     16  O   LIG d   1      -6.558  78.757 116.915  0.00  0.00    -0.276 OA
ATOM     17  H   LIG d   1      -5.091  76.289 118.233  0.00  0.00     0.149 HD
ENDBRANCH   6  13
BRANCH   5  18
ATOM     18  N   LIG d   1      -8.788  76.700 117.972  0.00  0.00     0.381 N 
ATOM     19  H   LIG d   1      -8.791  77.338 117.202  0.00  0.00    -0.090 HD
ATOM     20  H   LIG d   1      -8.394  77.169 118.768  0.00  0.00    -0.090 HD
ATOM     21  H   LIG d   1      -9.719  76.410 118.176  0.00  0.00    -0.090 HD
ENDBRANCH   5  18
BRANCH   3  22
ATOM     22  C   LIG d   1      -8.767  72.285 116.117  0.00  0.00     0.382 C 
ATOM     23  O   LIG d   1     -10.021  72.279 116.081  0.00  0.00    -0.241 OA
ATOM     24  O   LIG d   1      -8.145  71.210 116.015  0.00  0.00    -0.241 OA
ENDBRANCH   3  22
TORSDOF 7
ENDMDL
MODEL 6
REMARK VINA RESULT:      -5.1      2.273      4.700
REMARK  7 active torsions:
REMARK  status: ('A' for Active; 'I' for Inactive)
REMARK    1  A    between atoms: C_2  and  C_3 
REMARK    2  A    between atoms: C_3  and  O_6 
REMARK    3  A    between atoms: C_3  and  C_4 
REMARK    4  A    between atoms: C_7  and  O_6 
REMARK    5  A    between atoms: C_9  and  C_10 
REMARK    6  A    between atoms: N_15  and  C_14 
REMARK    7  A    between atoms: N_20  and  C_19 
REMARK       I    between atoms: C_22  and  N_20 
ROOT
ATOM      1  C   LIG d   1      -6.878  76.649 116.587  0.00  0.00     0.161 C 
ATOM      2  C   LIG d   1      -6.201  77.855 116.828  0.00  0.00     0.016 C 
ATOM      3  C   LIG d   1      -6.748  78.918 117.584  0.00  0.00     0.038 C 
ATOM      4  C   LIG d   1      -7.958  78.785 118.281  0.00  0.00     0.028 C 
ATOM      5  C   LIG d   1      -8.910  77.772 117.655  0.00  0.00    -0.047 C 
ATOM      6  C   LIG d   1      -8.153  76.443 117.432  0.00  0.00     0.091 C 
ENDROOT
BRANCH   1   7
ATOM      7  O   LIG d   1      -5.976  75.538 116.762  0.00  0.00    -0.368 OA
BRANCH   7   8
ATOM      8  C   LIG d   1      -5.184  75.172 115.605  0.00  0.00     0.119 C 
BRANCH   8   9
ATOM      9  C   LIG d   1      -6.062  74.279 114.706  0.00  0.00     0.028 C 
ATOM     10  C   LIG d   1      -6.550  73.015 115.433  0.00  0.00     0.006 C 
ENDBRANCH   8   9
BRANCH   8  11
ATOM     11  C   LIG d   1      -3.990  74.299 116.001  0.00  0.00     0.028 C 
ATOM     12  C   LIG d   1      -2.679  74.744 115.333  0.00  0.00     0.006 C 
ENDBRANCH   8  11
ENDBRANCH   7   8
ENDBRANCH   1   7
BRANCH   6  13
ATOM     13  N   LIG d   1      -8.988  75.423 116.745  0.00  0.00    -0.311 N 
ATOM     14  C   LIG d   1      -9.407  74.303 117.331  0.00  0.00     0.210 C 
ATOM     15  C   LIG d   1     -10.240  73.378 116.438  0.00  0.00     0.109 C 
ATOM     16  O   LIG d   1      -9.194  74.002 118.516  0.00  0.00    -0.276 OA
ATOM     17  H   LIG d   1      -9.233  75.601 115.791  0.00  0.00     0.149 HD
ENDBRANCH   6  13
BRANCH   5  18
ATOM     18  N   LIG d   1     -10.069  77.633 118.556  0.00  0.00     0.381 N 
ATOM     19  H   LIG d   1     -10.097  76.706 118.932  0.00  0.00    -0.090 HD
ATOM     20  H   LIG d   1     -10.911  77.784 118.029  0.00  0.00    -0.090 HD
ATOM     21  H   LIG d   1     -10.008  78.298 119.296  0.00  0.00    -0.090 HD
ENDBRANCH   5  18
BRANCH   3  22
ATOM     22  C   LIG d   1      -6.101  80.144 117.614  0.00  0.00     0.382 C 
ATOM     23  O   LIG d   1      -6.542  81.102 116.936  0.00  0.00    -0.241 OA
ATOM     24  O   LIG d   1      -5.057  80.290 118.277  0.00  0.00    -0.241 OA
ENDBRANCH   3  22
TORSDOF 7
ENDMDL
MODEL 7
REMARK VINA RESULT:      -5.1      2.073      4.992
REMARK  7 active torsions:
REMARK  status: ('A' for Active; 'I' for Inactive)
REMARK    1  A    between atoms: C_2  and  C_3 
REMARK    2  A    between atoms: C_3  and  O_6 
REMARK    3  A    between atoms: C_3  and  C_4 
REMARK    4  A    between atoms: C_7  and  O_6 
REMARK    5  A    between atoms: C_9  and  C_10 
REMARK    6  A    between atoms: N_15  and  C_14 
REMARK    7  A    between atoms: N_20  and  C_19 
REMARK       I    between atoms: C_22  and  N_20 
ROOT
ATOM      1  C   LIG d   1      -6.421  75.205 116.662  0.00  0.00     0.161 C 
ATOM      2  C   LIG d   1      -6.943  73.977 116.221  0.00  0.00     0.016 C 
ATOM      3  C   LIG d   1      -8.275  73.568 116.458  0.00  0.00     0.038 C 
ATOM      4  C   LIG d   1      -9.226  74.430 117.024  0.00  0.00     0.028 C 
ATOM      5  C   LIG d   1      -8.616  75.487 117.939  0.00  0.00    -0.047 C 
ATOM      6  C   LIG d   1      -7.474  76.205 117.184  0.00  0.00     0.091 C 
ENDROOT
BRANCH   1   7
ATOM      7  O   LIG d   1      -5.635  75.806 115.613  0.00  0.00    -0.368 OA
BRANCH   7   8
ATOM      8  C   LIG d   1      -4.229  76.001 115.903  0.00  0.00     0.119 C 
BRANCH   8   9
ATOM      9  C   LIG d   1      -3.767  77.254 115.134  0.00  0.00     0.028 C 
ATOM     10  C   LIG d   1      -4.015  78.551 115.922  0.00  0.00     0.006 C 
ENDBRANCH   8   9
BRANCH   8  11
ATOM     11  C   LIG d   1      -3.382  74.851 115.350  0.00  0.00     0.028 C 
ATOM     12  C   LIG d   1      -2.821  73.940 116.453  0.00  0.00     0.006 C 
ENDBRANCH   8  11
ENDBRANCH   7   8
ENDBRANCH   1   7
BRANCH   6  13
ATOM     13  N   LIG d   1      -6.768  77.197 118.035  0.00  0.00    -0.311 N 
ATOM     14  C   LIG d   1      -7.076  78.493 118.060  0.00  0.00     0.210 C 
ATOM     15  C   LIG d   1      -6.210  79.346 118.993  0.00  0.00     0.109 C 
ATOM     16  O   LIG d   1      -8.005  79.011 117.423  0.00  0.00    -0.276 OA
ATOM     17  H   LIG d   1      -6.020  76.857 118.608  0.00  0.00     0.149 HD
ENDBRANCH   6  13
BRANCH   5  18
ATOM     18  N   LIG d   1      -9.700  76.399 118.350  0.00  0.00     0.381 N 
ATOM     19  H   LIG d   1      -9.970  76.202 119.293  0.00  0.00    -0.090 HD
ATOM     20  H   LIG d   1     -10.496  76.247 117.756  0.00  0.00    -0.090 HD
ATOM     21  H   LIG d   1      -9.396  77.345 118.275  0.00  0.00    -0.090 HD
ENDBRANCH   5  18
BRANCH   3  22
ATOM     22  C   LIG d   1      -8.658  72.268 116.162  0.00  0.00     0.382 C 
ATOM     23  O   LIG d   1      -7.820  71.459 115.695  0.00  0.00    -0.241 OA
ATOM     24  O   LIG d   1      -9.840  71.907 116.316  0.00  0.00    -0.241 OA
ENDBRANCH   3  22
TORSDOF 7
ENDMDL
MODEL 8
REMARK VINA RESULT:      -5.0     18.028     20.570
REMARK  7 active torsions:
REMARK  status: ('A' for Active; 'I' for Inactive)
REMARK    1  A    between atoms: C_2  and  C_3 
REMARK    2  A    between atoms: C_3  and  O_6 
REMARK    3  A    between atoms: C_3  and  C_4 
REMARK    4  A    between atoms: C_7  and  O_6 
REMARK    5  A    between atoms: C_9  and  C_10 
REMARK    6  A    between atoms: N_15  and  C_14 
REMARK    7  A    between atoms: N_20  and  C_19 
REMARK       I    between atoms: C_22  and  N_20 
ROOT
ATOM      1  C   LIG d   1       0.531  57.983 119.435  0.00  0.00     0.161 C 
ATOM      2  C   LIG d   1      -0.585  58.770 119.102  0.00  0.00     0.016 C 
ATOM      3  C   LIG d   1      -1.464  58.462 118.038  0.00  0.00     0.038 C 
ATOM      4  C   LIG d   1      -1.373  57.257 117.326  0.00  0.00     0.028 C 
ATOM      5  C   LIG d   1       0.036  56.676 117.296  0.00  0.00    -0.047 C 
ATOM      6  C   LIG d   1       0.581  56.606 118.741  0.00  0.00     0.091 C 
ENDROOT
BRANCH   1   7
ATOM      7  O   LIG d   1       0.608  57.826 120.866  0.00  0.00    -0.368 OA
BRANCH   7   8
ATOM      8  C   LIG d   1       1.649  58.579 121.534  0.00  0.00     0.119 C 
BRANCH   8   9
ATOM      9  C   LIG d   1       0.993  59.829 122.152  0.00  0.00     0.028 C 
ATOM     10  C   LIG d   1       1.997  60.695 122.930  0.00  0.00     0.006 C 
ENDBRANCH   8   9
BRANCH   8  11
ATOM     11  C   LIG d   1       2.679  59.114 120.535  0.00  0.00     0.028 C 
ATOM     12  C   LIG d   1       4.073  58.496 120.729  0.00  0.00     0.006 C 
ENDBRANCH   8  11
ENDBRANCH   7   8
ENDBRANCH   1   7
BRANCH   6  13
ATOM     13  N   LIG d   1       1.987  56.127 118.794  0.00  0.00    -0.311 N 
ATOM     14  C   LIG d   1       2.400  55.154 119.604  0.00  0.00     0.210 C 
ATOM     15  C   LIG d   1       3.894  54.829 119.515  0.00  0.00     0.109 C 
ATOM     16  O   LIG d   1       1.665  54.509 120.366  0.00  0.00    -0.276 OA
ATOM     17  H   LIG d   1       2.645  56.575 118.186  0.00  0.00     0.149 HD
ENDBRANCH   6  13
BRANCH   5  18
ATOM     18  N   LIG d   1      -0.040  55.356 116.642  0.00  0.00     0.381 N 
ATOM     19  H   LIG d   1       0.005  55.466 115.649  0.00  0.00    -0.090 HD
ATOM     20  H   LIG d   1      -0.920  54.929 116.873  0.00  0.00    -0.090 HD
ATOM     21  H   LIG d   1       0.709  54.777 116.954  0.00  0.00    -0.090 HD
ENDBRANCH   5  18
BRANCH   3  22
ATOM     22  C   LIG d   1      -2.423  59.386 117.651  0.00  0.00     0.382 C 
ATOM     23  O   LIG d   1      -2.321  60.584 118.009  0.00  0.00    -0.241 OA
ATOM     24  O   LIG d   1      -3.413  59.026 116.986  0.00  0.00    -0.241 OA
ENDBRANCH   3  22
TORSDOF 7
ENDMDL
MODEL 9
REMARK VINA RESULT:      -4.9     17.791     20.280
REMARK  7 active torsions:
REMARK  status: ('A' for Active; 'I' for Inactive)
REMARK    1  A    between atoms: C_2  and  C_3 
REMARK    2  A    between atoms: C_3  and  O_6 
REMARK    3  A    between atoms: C_3  and  C_4 
REMARK    4  A    between atoms: C_7  and  O_6 
REMARK    5  A    between atoms: C_9  and  C_10 
REMARK    6  A    between atoms: N_15  and  C_14 
REMARK    7  A    between atoms: N_20  and  C_19 
REMARK       I    between atoms: C_22  and  N_20 
ROOT
ATOM      1  C   LIG d   1       0.517  58.052 119.602  0.00  0.00     0.161 C 
ATOM      2  C   LIG d   1      -0.586  58.849 119.253  0.00  0.00     0.016 C 
ATOM      3  C   LIG d   1      -1.424  58.576 118.147  0.00  0.00     0.038 C 
ATOM      4  C   LIG d   1      -1.305  57.395 117.399  0.00  0.00     0.028 C 
ATOM      5  C   LIG d   1       0.106  56.816 117.403  0.00  0.00    -0.047 C 
ATOM      6  C   LIG d   1       0.596  56.699 118.865  0.00  0.00     0.091 C 
ENDROOT
BRANCH   1   7
ATOM      7  O   LIG d   1       0.540  57.848 121.028  0.00  0.00    -0.368 OA
BRANCH   7   8
ATOM      8  C   LIG d   1      -0.354  58.681 121.806  0.00  0.00     0.119 C 
BRANCH   8   9
ATOM      9  C   LIG d   1       0.517  59.616 122.668  0.00  0.00     0.028 C 
ATOM     10  C   LIG d   1       0.225  61.102 122.400  0.00  0.00     0.006 C 
ENDBRANCH   8   9
BRANCH   8  11
ATOM     11  C   LIG d   1      -1.165  57.849 122.804  0.00  0.00     0.028 C 
ATOM     12  C   LIG d   1      -2.622  58.321 122.928  0.00  0.00     0.006 C 
ENDBRANCH   8  11
ENDBRANCH   7   8
ENDBRANCH   1   7
BRANCH   6  13
ATOM     13  N   LIG d   1       2.000  56.219 118.955  0.00  0.00    -0.311 N 
ATOM     14  C   LIG d   1       2.349  55.081 119.553  0.00  0.00     0.210 C 
ATOM     15  C   LIG d   1       3.852  54.784 119.551  0.00  0.00     0.109 C 
ATOM     16  O   LIG d   1       1.554  54.274 120.057  0.00  0.00    -0.276 OA
ATOM     17  H   LIG d   1       2.707  56.798 118.545  0.00  0.00     0.149 HD
ENDBRANCH   6  13
BRANCH   5  18
ATOM     18  N   LIG d   1       0.057  55.518 116.704  0.00  0.00     0.381 N 
ATOM     19  H   LIG d   1       0.374  54.792 117.315  0.00  0.00    -0.090 HD
ATOM     20  H   LIG d   1       0.672  55.553 115.910  0.00  0.00    -0.090 HD
ATOM     21  H   LIG d   1      -0.874  55.327 116.405  0.00  0.00    -0.090 HD
ENDBRANCH   5  18
BRANCH   3  22
ATOM     22  C   LIG d   1      -2.370  59.511 117.755  0.00  0.00     0.382 C 
ATOM     23  O   LIG d   1      -3.333  59.162 117.030  0.00  0.00    -0.241 OA
ATOM     24  O   LIG d   1      -2.249  60.707 118.079  0.00  0.00    -0.241 OA
ENDBRANCH   3  22
TORSDOF 7
ENDMDL
