MODEL 1
REMARK VINA RESULT:      -6.4      0.000      0.000
REMARK  7 active torsions:
REMARK  status: ('A' for Active; 'I' for Inactive)
REMARK    1  A    between atoms: C_2  and  C_3 
REMARK    2  A    between atoms: C_3  and  O_6 
REMARK    3  A    between atoms: C_3  and  C_4 
REMARK    4  A    between atoms: C_7  and  O_6 
REMARK    5  A    between atoms: C_9  and  C_10 
REMARK    6  A    between atoms: N_15  and  C_14 
REMARK    7  A    between atoms: N_20  and  C_19 
REMARK       I    between atoms: C_22  and  N_20 
ROOT
ATOM      1  C   LIG d   1       2.386  84.471 110.175  0.00  0.00     0.161 C 
ATOM      2  C   LIG d   1       1.350  85.405 110.340  0.00  0.00     0.016 C 
ATOM      3  C   LIG d   1       0.021  85.045 110.661  0.00  0.00     0.038 C 
ATOM      4  C   LIG d   1      -0.331  83.727 110.990  0.00  0.00     0.028 C 
ATOM      5  C   LIG d   1       0.572  82.680 110.345  0.00  0.00    -0.047 C 
ATOM      6  C   LIG d   1       2.046  83.039 110.639  0.00  0.00     0.091 C 
ENDROOT
BRANCH   1   7
ATOM      7  O   LIG d   1       3.578  84.942 110.836  0.00  0.00    -0.368 OA
BRANCH   7   8
ATOM      8  C   LIG d   1       3.373  85.735 112.031  0.00  0.00     0.119 C 
BRANCH   8   9
ATOM      9  C   LIG d   1       4.347  86.927 111.968  0.00  0.00     0.028 C 
ATOM     10  C   LIG d   1       4.177  87.887 113.157  0.00  0.00     0.006 C 
ENDBRANCH   8   9
BRANCH   8  11
ATOM     11  C   LIG d   1       3.766  84.956 113.290  0.00  0.00     0.028 C 
ATOM     12  C   LIG d   1       2.550  84.448 114.080  0.00  0.00     0.006 C 
ENDBRANCH   8  11
ENDBRANCH   7   8
ENDBRANCH   1   7
BRANCH   6  13
ATOM     13  N   LIG d   1       2.999  82.113 109.974  0.00  0.00    -0.311 N 
ATOM     14  C   LIG d   1       3.926  81.419 110.631  0.00  0.00     0.210 C 
ATOM     15  C   LIG d   1       4.818  80.537 109.751  0.00  0.00     0.109 C 
ATOM     16  O   LIG d   1       4.074  81.425 111.862  0.00  0.00    -0.276 OA
ATOM     17  H   LIG d   1       2.928  82.023 108.979  0.00  0.00     0.149 HD
ENDBRANCH   6  13
BRANCH   5  18
ATOM     18  N   LIG d   1       0.179  81.363 110.881  0.00  0.00     0.381 N 
ATOM     19  H   LIG d   1       0.936  80.973 111.407  0.00  0.00    -0.090 HD
ATOM     20  H   LIG d   1      -0.022  80.747 110.114  0.00  0.00    -0.090 HD
ATOM     21  H   LIG d   1      -0.625  81.457 111.462  0.00  0.00    -0.090 HD
ENDBRANCH   5  18
BRANCH   3  22
ATOM     22  C   LIG d   1      -0.981  86.002 110.616  0.00  0.00     0.382 C 
ATOM     23  O   LIG d   1      -1.513  86.403 111.680  0.00  0.00    -0.241 OA
ATOM     24  O   LIG d   1      -1.390  86.438 109.524  0.00  0.00    -0.241 OA
ENDBRANCH   3  22
TORSDOF 7
ENDMDL
MODEL 2
REMARK VINA RESULT:      -6.3      2.112      3.472
REMARK  7 active torsions:
REMARK  status: ('A' for Active; 'I' for Inactive)
REMARK    1  A    between atoms: C_2  and  C_3 
REMARK    2  A    between atoms: C_3  and  O_6 
REMARK    3  A    between atoms: C_3  and  C_4 
REMARK    4  A    between atoms: C_7  and  O_6 
REMARK    5  A    between atoms: C_9  and  C_10 
REMARK    6  A    between atoms: N_15  and  C_14 
REMARK    7  A    between atoms: N_20  and  C_19 
REMARK       I    between atoms: C_22  and  N_20 
ROOT
ATOM      1  C   LIG d   1       1.551  83.388 109.417  0.00  0.00     0.161 C 
ATOM      2  C   LIG d   1       1.627  84.752 109.745  0.00  0.00     0.016 C 
ATOM      3  C   LIG d   1       0.802  85.366 110.715  0.00  0.00     0.038 C 
ATOM      4  C   LIG d   1      -0.056  84.621 111.538  0.00  0.00     0.028 C 
ATOM      5  C   LIG d   1      -0.531  83.320 110.898  0.00  0.00    -0.047 C 
ATOM      6  C   LIG d   1       0.698  82.537 110.382  0.00  0.00     0.091 C 
ENDROOT
BRANCH   1   7
ATOM      7  O   LIG d   1       2.879  82.838 109.305  0.00  0.00    -0.368 OA
BRANCH   7   8
ATOM      8  C   LIG d   1       3.282  81.925 110.356  0.00  0.00     0.119 C 
BRANCH   8   9
ATOM      9  C   LIG d   1       4.496  82.549 111.071  0.00  0.00     0.028 C 
ATOM     10  C   LIG d   1       4.085  83.438 112.257  0.00  0.00     0.006 C 
ENDBRANCH   8   9
BRANCH   8  11
ATOM     11  C   LIG d   1       3.788  80.600 109.778  0.00  0.00     0.028 C 
ATOM     12  C   LIG d   1       5.310  80.432 109.919  0.00  0.00     0.006 C 
ENDBRANCH   8  11
ENDBRANCH   7   8
ENDBRANCH   1   7
BRANCH   6  13
ATOM     13  N   LIG d   1       0.318  81.292 109.667  0.00  0.00    -0.311 N 
ATOM     14  C   LIG d   1       0.196  80.109 110.267  0.00  0.00     0.210 C 
ATOM     15  C   LIG d   1      -0.186  78.950 109.342  0.00  0.00     0.109 C 
ATOM     16  O   LIG d   1       0.337  79.916 111.484  0.00  0.00    -0.276 OA
ATOM     17  H   LIG d   1       0.154  81.363 108.682  0.00  0.00     0.149 HD
ENDBRANCH   6  13
BRANCH   5  18
ATOM     18  N   LIG d   1      -1.304  82.580 111.913  0.00  0.00     0.381 N 
ATOM     19  H   LIG d   1      -0.844  81.717 112.125  0.00  0.00    -0.090 HD
ATOM     20  H   LIG d   1      -2.213  82.370 111.539  0.00  0.00    -0.090 HD
ATOM     21  H   LIG d   1      -1.395  83.129 112.739  0.00  0.00    -0.090 HD
ENDBRANCH   5  18
BRANCH   3  22
ATOM     22  C   LIG d   1       0.803  86.746 110.843  0.00  0.00     0.382 C 
ATOM     23  O   LIG d   1       1.880  87.383 110.759  0.00  0.00    -0.241 OA
ATOM     24  O   LIG d   1      -0.254  87.359 111.086  0.00  0.00    -0.241 OA
ENDBRANCH   3  22
TORSDOF 7
ENDMDL
MODEL 3
REMARK VINA RESULT:      -5.8      1.770      2.298
REMARK  7 active torsions:
REMARK  status: ('A' for Active; 'I' for Inactive)
REMARK    1  A    between atoms: C_2  and  C_3 
REMARK    2  A    between atoms: C_3  and  O_6 
REMARK    3  A    between atoms: C_3  and  C_4 
REMARK    4  A    between atoms: C_7  and  O_6 
REMARK    5  A    between atoms: C_9  and  C_10 
REMARK    6  A    between atoms: N_15  and  C_14 
REMARK    7  A    between atoms: N_20  and  C_19 
REMARK       I    between atoms: C_22  and  N_20 
ROOT
ATOM      1  C   LIG d   1       3.730  84.832 111.452  0.00  0.00     0.161 C 
ATOM      2  C   LIG d   1       2.967  85.998 111.636  0.00  0.00     0.016 C 
ATOM      3  C   LIG d   1       1.667  86.169 111.107  0.00  0.00     0.038 C 
ATOM      4  C   LIG d   1       0.977  85.120 110.482  0.00  0.00     0.028 C 
ATOM      5  C   LIG d   1       1.898  84.093 109.832  0.00  0.00    -0.047 C 
ATOM      6  C   LIG d   1       2.950  83.636 110.867  0.00  0.00     0.091 C 
ENDROOT
BRANCH   1   7
ATOM      7  O   LIG d   1       4.361  84.461 112.693  0.00  0.00    -0.368 OA
BRANCH   7   8
ATOM      8  C   LIG d   1       3.483  83.959 113.730  0.00  0.00     0.119 C 
BRANCH   8   9
ATOM      9  C   LIG d   1       3.897  84.631 115.053  0.00  0.00     0.028 C 
ATOM     10  C   LIG d   1       3.302  86.042 115.205  0.00  0.00     0.006 C 
ENDBRANCH   8   9
BRANCH   8  11
ATOM     11  C   LIG d   1       3.689  82.458 113.957  0.00  0.00     0.028 C 
ATOM     12  C   LIG d   1       2.397  81.735 114.371  0.00  0.00     0.006 C 
ENDBRANCH   8  11
ENDBRANCH   7   8
ENDBRANCH   1   7
BRANCH   6  13
ATOM     13  N   LIG d   1       3.943  82.693 110.288  0.00  0.00    -0.311 N 
ATOM     14  C   LIG d   1       3.827  81.368 110.365  0.00  0.00     0.210 C 
ATOM     15  C   LIG d   1       4.971  80.580 109.720  0.00  0.00     0.109 C 
ATOM     16  O   LIG d   1       2.869  80.771 110.879  0.00  0.00    -0.276 OA
ATOM     17  H   LIG d   1       4.736  83.092 109.826  0.00  0.00     0.149 HD
ENDBRANCH   6  13
BRANCH   5  18
ATOM     18  N   LIG d   1       1.054  82.988 109.339  0.00  0.00     0.381 N 
ATOM     19  H   LIG d   1       0.535  83.288 108.538  0.00  0.00    -0.090 HD
ATOM     20  H   LIG d   1       0.402  82.731 110.059  0.00  0.00    -0.090 HD
ATOM     21  H   LIG d   1       1.622  82.205 109.101  0.00  0.00    -0.090 HD
ENDBRANCH   5  18
BRANCH   3  22
ATOM     22  C   LIG d   1       1.060  87.414 111.167  0.00  0.00     0.382 C 
ATOM     23  O   LIG d   1       1.744  88.434 111.422  0.00  0.00    -0.241 OA
ATOM     24  O   LIG d   1      -0.172  87.524 111.013  0.00  0.00    -0.241 OA
ENDBRANCH   3  22
TORSDOF 7
ENDMDL
MODEL 4
REMARK VINA RESULT:      -5.7      2.676      4.713
REMARK  7 active torsions:
REMARK  status: ('A' for Active; 'I' for Inactive)
REMARK    1  A    between atoms: C_2  and  C_3 
REMARK    2  A    between atoms: C_3  and  O_6 
REMARK    3  A    between atoms: C_3  and  C_4 
REMARK    4  A    between atoms: C_7  and  O_6 
REMARK    5  A    between atoms: C_9  and  C_10 
REMARK    6  A    between atoms: N_15  and  C_14 
REMARK    7  A    between atoms: N_20  and  C_19 
REMARK       I    between atoms: C_22  and  N_20 
ROOT
ATOM      1  C   LIG d   1       1.681  82.890 111.602  0.00  0.00     0.161 C 
ATOM      2  C   LIG d   1       0.560  82.048 111.687  0.00  0.00     0.016 C 
ATOM      3  C   LIG d   1      -0.722  82.498 112.080  0.00  0.00     0.038 C 
ATOM      4  C   LIG d   1      -1.005  83.859 112.269  0.00  0.00     0.028 C 
ATOM      5  C   LIG d   1       0.212  84.678 112.685  0.00  0.00    -0.047 C 
ATOM      6  C   LIG d   1       1.368  84.397 111.697  0.00  0.00     0.091 C 
ENDROOT
BRANCH   1   7
ATOM      7  O   LIG d   1       2.414  82.605 110.394  0.00  0.00    -0.368 OA
BRANCH   7   8
ATOM      8  C   LIG d   1       3.728  82.019 110.568  0.00  0.00     0.119 C 
BRANCH   8   9
ATOM      9  C   LIG d   1       3.724  80.654 109.852  0.00  0.00     0.028 C 
ATOM     10  C   LIG d   1       5.123  80.019 109.791  0.00  0.00     0.006 C 
ENDBRANCH   8   9
BRANCH   8  11
ATOM     11  C   LIG d   1       4.006  81.703 112.041  0.00  0.00     0.028 C 
ATOM     12  C   LIG d   1       5.150  82.546 112.625  0.00  0.00     0.006 C 
ENDBRANCH   8  11
ENDBRANCH   7   8
ENDBRANCH   1   7
BRANCH   6  13
ATOM     13  N   LIG d   1       2.623  85.095 112.080  0.00  0.00    -0.311 N 
ATOM     14  C   LIG d   1       2.951  86.308 111.639  0.00  0.00     0.210 C 
ATOM     15  C   LIG d   1       4.299  86.835 112.141  0.00  0.00     0.109 C 
ATOM     16  O   LIG d   1       2.239  87.011 110.906  0.00  0.00    -0.276 OA
ATOM     17  H   LIG d   1       3.245  84.609 112.696  0.00  0.00     0.149 HD
ENDBRANCH   6  13
BRANCH   5  18
ATOM     18  N   LIG d   1      -0.193  86.096 112.712  0.00  0.00     0.381 N 
ATOM     19  H   LIG d   1      -0.916  86.255 112.039  0.00  0.00    -0.090 HD
ATOM     20  H   LIG d   1       0.598  86.665 112.466  0.00  0.00    -0.090 HD
ATOM     21  H   LIG d   1      -0.517  86.340 113.622  0.00  0.00    -0.090 HD
ENDBRANCH   5  18
BRANCH   3  22
ATOM     22  C   LIG d   1      -1.728  81.576 112.325  0.00  0.00     0.382 C 
ATOM     23  O   LIG d   1      -2.762  81.926 112.944  0.00  0.00    -0.241 OA
ATOM     24  O   LIG d   1      -1.596  80.388 111.975  0.00  0.00    -0.241 OA
ENDBRANCH   3  22
TORSDOF 7
ENDMDL
MODEL 5
REMARK VINA RESULT:      -5.6      2.673      6.339
REMARK  7 active torsions:
REMARK  status: ('A' for Active; 'I' for Inactive)
REMARK    1  A    between atoms: C_2  and  C_3 
REMARK    2  A    between atoms: C_3  and  O_6 
REMARK    3  A    between atoms: C_3  and  C_4 
REMARK    4  A    between atoms: C_7  and  O_6 
REMARK    5  A    between atoms: C_9  and  C_10 
REMARK    6  A    between atoms: N_15  and  C_14 
REMARK    7  A    between atoms: N_20  and  C_19 
REMARK       I    between atoms: C_22  and  N_20 
ROOT
ATOM      1  C   LIG d   1       1.195  81.914 109.573  0.00  0.00     0.161 C 
ATOM      2  C   LIG d   1       2.232  80.967 109.620  0.00  0.00     0.016 C 
ATOM      3  C   LIG d   1       3.559  81.284 109.993  0.00  0.00     0.038 C 
ATOM      4  C   LIG d   1       3.906  82.547 110.495  0.00  0.00     0.028 C 
ATOM      5  C   LIG d   1       3.006  83.668 109.988  0.00  0.00    -0.047 C 
ATOM      6  C   LIG d   1       1.530  83.272 110.224  0.00  0.00     0.091 C 
ENDROOT
BRANCH   1   7
ATOM      7  O   LIG d   1       0.001  81.359 110.159  0.00  0.00    -0.368 OA
BRANCH   7   8
ATOM      8  C   LIG d   1       0.194  80.511 111.318  0.00  0.00     0.119 C 
BRANCH   8   9
ATOM      9  C   LIG d   1      -0.726  79.286 111.154  0.00  0.00     0.028 C 
ATOM     10  C   LIG d   1      -0.493  78.550 109.824  0.00  0.00     0.006 C 
ENDBRANCH   8   9
BRANCH   8  11
ATOM     11  C   LIG d   1      -0.278  81.204 112.600  0.00  0.00     0.028 C 
ATOM     12  C   LIG d   1      -1.355  82.269 112.340  0.00  0.00     0.006 C 
ENDBRANCH   8  11
ENDBRANCH   7   8
ENDBRANCH   1   7
BRANCH   6  13
ATOM     13  N   LIG d   1       0.580  84.277 109.681  0.00  0.00    -0.311 N 
ATOM     14  C   LIG d   1       0.061  85.264 110.409  0.00  0.00     0.210 C 
ATOM     15  C   LIG d   1      -0.914  86.178 109.660  0.00  0.00     0.109 C 
ATOM     16  O   LIG d   1       0.340  85.489 111.597  0.00  0.00    -0.276 OA
ATOM     17  H   LIG d   1       0.323  84.188 108.717  0.00  0.00     0.149 HD
ENDBRANCH   6  13
BRANCH   5  18
ATOM     18  N   LIG d   1       3.393  84.904 110.695  0.00  0.00     0.381 N 
ATOM     19  H   LIG d   1       3.374  85.677 110.061  0.00  0.00    -0.090 HD
ATOM     20  H   LIG d   1       4.331  84.801 111.040  0.00  0.00    -0.090 HD
ATOM     21  H   LIG d   1       2.769  85.072 111.454  0.00  0.00    -0.090 HD
ENDBRANCH   5  18
BRANCH   3  22
ATOM     22  C   LIG d   1       4.562  80.341 109.828  0.00  0.00     0.382 C 
ATOM     23  O   LIG d   1       4.269  79.159 109.528  0.00  0.00    -0.241 OA
ATOM     24  O   LIG d   1       5.754  80.648 110.020  0.00  0.00    -0.241 OA
ENDBRANCH   3  22
TORSDOF 7
ENDMDL
MODEL 6
REMARK VINA RESULT:      -5.4      2.832      5.006
REMARK  7 active torsions:
REMARK  status: ('A' for Active; 'I' for Inactive)
REMARK    1  A    between atoms: C_2  and  C_3 
REMARK    2  A    between atoms: C_3  and  O_6 
REMARK    3  A    between atoms: C_3  and  C_4 
REMARK    4  A    between atoms: C_7  and  O_6 
REMARK    5  A    between atoms: C_9  and  C_10 
REMARK    6  A    between atoms: N_15  and  C_14 
REMARK    7  A    between atoms: N_20  and  C_19 
REMARK       I    between atoms: C_22  and  N_20 
ROOT
ATOM      1  C   LIG d   1       2.288  86.281 112.385  0.00  0.00     0.161 C 
ATOM      2  C   LIG d   1       2.753  87.588 112.607  0.00  0.00     0.016 C 
ATOM      3  C   LIG d   1       3.590  87.943 113.690  0.00  0.00     0.038 C 
ATOM      4  C   LIG d   1       4.146  86.978 114.544  0.00  0.00     0.028 C 
ATOM      5  C   LIG d   1       3.301  85.714 114.661  0.00  0.00    -0.047 C 
ATOM      6  C   LIG d   1       2.974  85.197 113.241  0.00  0.00     0.091 C 
ENDROOT
BRANCH   1   7
ATOM      7  O   LIG d   1       2.396  85.956 110.985  0.00  0.00    -0.368 OA
BRANCH   7   8
ATOM      8  C   LIG d   1       1.163  85.997 110.224  0.00  0.00     0.119 C 
BRANCH   8   9
ATOM      9  C   LIG d   1       0.001  86.101 111.231  0.00  0.00     0.028 C 
ATOM     10  C   LIG d   1      -1.151  86.976 110.709  0.00  0.00     0.006 C 
ENDBRANCH   8   9
BRANCH   8  11
ATOM     11  C   LIG d   1       0.930  84.685 109.470  0.00  0.00     0.028 C 
ATOM     12  C   LIG d   1       2.210  83.848 109.321  0.00  0.00     0.006 C 
ENDBRANCH   8  11
ENDBRANCH   7   8
ENDBRANCH   1   7
BRANCH   6  13
ATOM     13  N   LIG d   1       2.080  84.009 113.263  0.00  0.00    -0.311 N 
ATOM     14  C   LIG d   1       2.440  82.813 112.802  0.00  0.00     0.210 C 
ATOM     15  C   LIG d   1       1.360  81.730 112.901  0.00  0.00     0.109 C 
ATOM     16  O   LIG d   1       3.561  82.537 112.349  0.00  0.00    -0.276 OA
ATOM     17  H   LIG d   1       1.162  84.136 113.642  0.00  0.00     0.149 HD
ENDBRANCH   6  13
BRANCH   5  18
ATOM     18  N   LIG d   1       4.063  84.743 115.469  0.00  0.00     0.381 N 
ATOM     19  H   LIG d   1       3.971  84.964 116.440  0.00  0.00    -0.090 HD
ATOM     20  H   LIG d   1       5.035  84.805 115.222  0.00  0.00    -0.090 HD
ATOM     21  H   LIG d   1       3.728  83.820 115.298  0.00  0.00    -0.090 HD
ENDBRANCH   5  18
BRANCH   3  22
ATOM     22  C   LIG d   1       3.847  89.280 113.951  0.00  0.00     0.382 C 
ATOM     23  O   LIG d   1       3.703  89.731 115.113  0.00  0.00    -0.241 OA
ATOM     24  O   LIG d   1       4.178  90.051 113.031  0.00  0.00    -0.241 OA
ENDBRANCH   3  22
TORSDOF 7
ENDMDL
MODEL 7
REMARK VINA RESULT:      -5.4      2.870      4.784
REMARK  7 active torsions:
REMARK  status: ('A' for Active; 'I' for Inactive)
REMARK    1  A    between atoms: C_2  and  C_3 
REMARK    2  A    between atoms: C_3  and  O_6 
REMARK    3  A    between atoms: C_3  and  C_4 
REMARK    4  A    between atoms: C_7  and  O_6 
REMARK    5  A    between atoms: C_9  and  C_10 
REMARK    6  A    between atoms: N_15  and  C_14 
REMARK    7  A    between atoms: N_20  and  C_19 
REMARK       I    between atoms: C_22  and  N_20 
ROOT
ATOM      1  C   LIG d   1       1.889  85.306 113.633  0.00  0.00     0.161 C 
ATOM      2  C   LIG d   1       0.964  84.314 113.266  0.00  0.00     0.016 C 
ATOM      3  C   LIG d   1       0.192  84.369 112.083  0.00  0.00     0.038 C 
ATOM      4  C   LIG d   1       0.403  85.352 111.105  0.00  0.00     0.028 C 
ATOM      5  C   LIG d   1       0.969  86.652 111.666  0.00  0.00    -0.047 C 
ATOM      6  C   LIG d   1       2.213  86.329 112.524  0.00  0.00     0.091 C 
ENDROOT
BRANCH   1   7
ATOM      7  O   LIG d   1       3.099  84.691 114.117  0.00  0.00    -0.368 OA
BRANCH   7   8
ATOM      8  C   LIG d   1       3.337  83.328 113.689  0.00  0.00     0.119 C 
BRANCH   8   9
ATOM      9  C   LIG d   1       3.725  82.512 114.938  0.00  0.00     0.028 C 
ATOM     10  C   LIG d   1       4.134  83.407 116.119  0.00  0.00     0.006 C 
ENDBRANCH   8   9
BRANCH   8  11
ATOM     11  C   LIG d   1       4.547  83.240 112.754  0.00  0.00     0.028 C 
ATOM     12  C   LIG d   1       4.626  81.898 112.008  0.00  0.00     0.006 C 
ENDBRANCH   8  11
ENDBRANCH   7   8
ENDBRANCH   1   7
BRANCH   6  13
ATOM     13  N   LIG d   1       2.779  87.538 113.179  0.00  0.00    -0.311 N 
ATOM     14  C   LIG d   1       3.987  88.025 112.900  0.00  0.00     0.210 C 
ATOM     15  C   LIG d   1       4.385  89.267 113.703  0.00  0.00     0.109 C 
ATOM     16  O   LIG d   1       4.753  87.565 112.040  0.00  0.00    -0.276 OA
ATOM     17  H   LIG d   1       2.211  87.992 113.867  0.00  0.00     0.149 HD
ENDBRANCH   6  13
BRANCH   5  18
ATOM     18  N   LIG d   1       1.269  87.537 110.524  0.00  0.00     0.381 N 
ATOM     19  H   LIG d   1       0.717  87.268 109.733  0.00  0.00    -0.090 HD
ATOM     20  H   LIG d   1       2.238  87.436 110.280  0.00  0.00    -0.090 HD
ATOM     21  H   LIG d   1       1.077  88.484 110.766  0.00  0.00    -0.090 HD
ENDBRANCH   5  18
BRANCH   3  22
ATOM     22  C   LIG d   1      -0.832  83.455 111.889  0.00  0.00     0.382 C 
ATOM     23  O   LIG d   1      -1.150  83.108 110.726  0.00  0.00    -0.241 OA
ATOM     24  O   LIG d   1      -1.472  83.007 112.859  0.00  0.00    -0.241 OA
ENDBRANCH   3  22
TORSDOF 7
ENDMDL
MODEL 8
REMARK VINA RESULT:      -5.4     12.846     14.827
REMARK  7 active torsions:
REMARK  status: ('A' for Active; 'I' for Inactive)
REMARK    1  A    between atoms: C_2  and  C_3 
REMARK    2  A    between atoms: C_3  and  O_6 
REMARK    3  A    between atoms: C_3  and  C_4 
REMARK    4  A    between atoms: C_7  and  O_6 
REMARK    5  A    between atoms: C_9  and  C_10 
REMARK    6  A    between atoms: N_15  and  C_14 
REMARK    7  A    between atoms: N_20  and  C_19 
REMARK       I    between atoms: C_22  and  N_20 
ROOT
ATOM      1  C   LIG d   1      -6.253  74.659 118.019  0.00  0.00     0.161 C 
ATOM      2  C   LIG d   1      -6.354  73.306 117.655  0.00  0.00     0.016 C 
ATOM      3  C   LIG d   1      -7.488  72.755 117.015  0.00  0.00     0.038 C 
ATOM      4  C   LIG d   1      -8.543  73.558 116.556  0.00  0.00     0.028 C 
ATOM      5  C   LIG d   1      -8.711  74.850 117.349  0.00  0.00    -0.047 C 
ATOM      6  C   LIG d   1      -7.347  75.572 117.427  0.00  0.00     0.091 C 
ENDROOT
BRANCH   1   7
ATOM      7  O   LIG d   1      -4.944  75.159 117.679  0.00  0.00    -0.368 OA
BRANCH   7   8
ATOM      8  C   LIG d   1      -4.245  74.450 116.627  0.00  0.00     0.119 C 
BRANCH   8   9
ATOM      9  C   LIG d   1      -2.767  74.336 117.049  0.00  0.00     0.028 C 
ATOM     10  C   LIG d   1      -1.810  74.348 115.846  0.00  0.00     0.006 C 
ENDBRANCH   8   9
BRANCH   8  11
ATOM     11  C   LIG d   1      -4.233  75.256 115.324  0.00  0.00     0.028 C 
ATOM     12  C   LIG d   1      -5.229  74.721 114.283  0.00  0.00     0.006 C 
ENDBRANCH   8  11
ENDBRANCH   7   8
ENDBRANCH   1   7
BRANCH   6  13
ATOM     13  N   LIG d   1      -7.403  76.803 118.257  0.00  0.00    -0.311 N 
ATOM     14  C   LIG d   1      -6.892  77.971 117.872  0.00  0.00     0.210 C 
ATOM     15  C   LIG d   1      -7.041  79.108 118.888  0.00  0.00     0.109 C 
ATOM     16  O   LIG d   1      -6.359  78.182 116.773  0.00  0.00    -0.276 OA
ATOM     17  H   LIG d   1      -7.847  76.730 119.152  0.00  0.00     0.149 HD
ENDBRANCH   6  13
BRANCH   5  18
ATOM     18  N   LIG d   1      -9.753  75.652 116.680  0.00  0.00     0.381 N 
ATOM     19  H   LIG d   1     -10.657  75.370 117.003  0.00  0.00    -0.090 HD
ATOM     20  H   LIG d   1      -9.705  75.485 115.690  0.00  0.00    -0.090 HD
ATOM     21  H   LIG d   1      -9.611  76.620 116.868  0.00  0.00    -0.090 HD
ENDBRANCH   5  18
BRANCH   3  22
ATOM     22  C   LIG d   1      -7.593  71.381 116.864  0.00  0.00     0.382 C 
ATOM     23  O   LIG d   1      -6.761  70.763 116.157  0.00  0.00    -0.241 OA
ATOM     24  O   LIG d   1      -8.534  70.757 117.389  0.00  0.00    -0.241 OA
ENDBRANCH   3  22
TORSDOF 7
ENDMDL
MODEL 9
REMARK VINA RESULT:      -5.4      2.687      4.463
REMARK  7 active torsions:
REMARK  status: ('A' for Active; 'I' for Inactive)
REMARK    1  A    between atoms: C_2  and  C_3 
REMARK    2  A    between atoms: C_3  and  O_6 
REMARK    3  A    between atoms: C_3  and  C_4 
REMARK    4  A    between atoms: C_7  and  O_6 
REMARK    5  A    between atoms: C_9  and  C_10 
REMARK    6  A    between atoms: N_15  and  C_14 
REMARK    7  A    between atoms: N_20  and  C_19 
REMARK       I    between atoms: C_22  and  N_20 
ROOT
ATOM      1  C   LIG d   1       2.902  84.737 112.460  0.00  0.00     0.161 C 
ATOM      2  C   LIG d   1       3.267  85.955 113.056  0.00  0.00     0.016 C 
ATOM      3  C   LIG d   1       2.825  87.214 112.588  0.00  0.00     0.038 C 
ATOM      4  C   LIG d   1       1.859  87.332 111.577  0.00  0.00     0.028 C 
ATOM      5  C   LIG d   1       1.846  86.152 110.612  0.00  0.00    -0.047 C 
ATOM      6  C   LIG d   1       1.762  84.840 111.425  0.00  0.00     0.091 C 
ENDROOT
BRANCH   1   7
ATOM      7  O   LIG d   1       2.568  83.774 113.479  0.00  0.00    -0.368 OA
BRANCH   7   8
ATOM      8  C   LIG d   1       3.410  82.597 113.543  0.00  0.00     0.119 C 
BRANCH   8   9
ATOM      9  C   LIG d   1       3.980  82.513 114.972  0.00  0.00     0.028 C 
ATOM     10  C   LIG d   1       3.804  81.117 115.593  0.00  0.00     0.006 C 
ENDBRANCH   8   9
BRANCH   8  11
ATOM     11  C   LIG d   1       4.629  82.733 112.627  0.00  0.00     0.028 C 
ATOM     12  C   LIG d   1       4.713  81.614 111.576  0.00  0.00     0.006 C 
ENDBRANCH   8  11
ENDBRANCH   7   8
ENDBRANCH   1   7
BRANCH   6  13
ATOM     13  N   LIG d   1       1.828  83.632 110.561  0.00  0.00    -0.311 N 
ATOM     14  C   LIG d   1       0.754  82.945 110.178  0.00  0.00     0.210 C 
ATOM     15  C   LIG d   1       1.047  81.720 109.305  0.00  0.00     0.109 C 
ATOM     16  O   LIG d   1      -0.416  83.251 110.452  0.00  0.00    -0.276 OA
ATOM     17  H   LIG d   1       2.737  83.332 110.267  0.00  0.00     0.149 HD
ENDBRANCH   6  13
BRANCH   5  18
ATOM     18  N   LIG d   1       0.705  86.338 109.696  0.00  0.00     0.381 N 
ATOM     19  H   LIG d   1       0.470  87.309 109.641  0.00  0.00    -0.090 HD
ATOM     20  H   LIG d   1      -0.089  85.842 110.059  0.00  0.00    -0.090 HD
ATOM     21  H   LIG d   1       0.936  85.993 108.790  0.00  0.00    -0.090 HD
ENDBRANCH   5  18
BRANCH   3  22
ATOM     22  C   LIG d   1       3.380  88.374 113.108  0.00  0.00     0.382 C 
ATOM     23  O   LIG d   1       4.502  88.766 112.705  0.00  0.00    -0.241 OA
ATOM     24  O   LIG d   1       2.793  89.009 114.005  0.00  0.00    -0.241 OA
ENDBRANCH   3  22
TORSDOF 7
ENDMDL
