MODEL 1
REMARK VINA RESULT:      -6.4      0.000      0.000
REMARK  7 active torsions:
REMARK  status: ('A' for Active; 'I' for Inactive)
REMARK    1  A    between atoms: C_2  and  C_3 
REMARK    2  A    between atoms: C_3  and  O_6 
REMARK    3  A    between atoms: C_3  and  C_4 
REMARK    4  A    between atoms: C_7  and  O_6 
REMARK    5  A    between atoms: C_9  and  C_10 
REMARK    6  A    between atoms: N_15  and  C_14 
REMARK    7  A    between atoms: N_20  and  C_19 
REMARK       I    between atoms: C_22  and  N_20 
ROOT
ATOM      1  C   LIG d   1       1.658  83.359 109.473  0.00  0.00     0.161 C 
ATOM      2  C   LIG d   1       1.955  84.684 109.833  0.00  0.00     0.016 C 
ATOM      3  C   LIG d   1       1.264  85.390 110.844  0.00  0.00     0.038 C 
ATOM      4  C   LIG d   1       0.322  84.764 111.673  0.00  0.00     0.028 C 
ATOM      5  C   LIG d   1      -0.368  83.574 111.015  0.00  0.00    -0.047 C 
ATOM      6  C   LIG d   1       0.708  82.624 110.442  0.00  0.00     0.091 C 
ENDROOT
BRANCH   1   7
ATOM      7  O   LIG d   1       2.879  82.612 109.306  0.00  0.00    -0.368 OA
BRANCH   7   8
ATOM      8  C   LIG d   1       3.398  81.965 110.493  0.00  0.00     0.119 C 
BRANCH   8   9
ATOM      9  C   LIG d   1       4.753  82.622 110.823  0.00  0.00     0.028 C 
ATOM     10  C   LIG d   1       4.787  83.214 112.243  0.00  0.00     0.006 C 
ENDBRANCH   8   9
BRANCH   8  11
ATOM     11  C   LIG d   1       3.717  80.490 110.231  0.00  0.00     0.028 C 
ATOM     12  C   LIG d   1       5.130  80.277 109.666  0.00  0.00     0.006 C 
ENDBRANCH   8  11
ENDBRANCH   7   8
ENDBRANCH   1   7
BRANCH   6  13
ATOM     13  N   LIG d   1       0.117  81.475 109.707  0.00  0.00    -0.311 N 
ATOM     14  C   LIG d   1      -0.040  80.265 110.242  0.00  0.00     0.210 C 
ATOM     15  C   LIG d   1      -0.652  79.219 109.305  0.00  0.00     0.109 C 
ATOM     16  O   LIG d   1       0.239  79.968 111.413  0.00  0.00    -0.276 OA
ATOM     17  H   LIG d   1      -0.166  81.636 108.760  0.00  0.00     0.149 HD
ENDBRANCH   6  13
BRANCH   5  18
ATOM     18  N   LIG d   1      -1.221  82.934 112.035  0.00  0.00     0.381 N 
ATOM     19  H   LIG d   1      -0.989  83.287 112.941  0.00  0.00    -0.090 HD
ATOM     20  H   LIG d   1      -1.048  81.944 112.028  0.00  0.00    -0.090 HD
ATOM     21  H   LIG d   1      -2.181  83.111 111.837  0.00  0.00    -0.090 HD
ENDBRANCH   5  18
BRANCH   3  22
ATOM     22  C   LIG d   1       1.485  86.749 111.007  0.00  0.00     0.382 C 
ATOM     23  O   LIG d   1       0.517  87.523 111.201  0.00  0.00    -0.241 OA
ATOM     24  O   LIG d   1       2.636  87.217 110.918  0.00  0.00    -0.241 OA
ENDBRANCH   3  22
TORSDOF 7
ENDMDL
MODEL 2
REMARK VINA RESULT:      -6.0      2.898      3.708
REMARK  7 active torsions:
REMARK  status: ('A' for Active; 'I' for Inactive)
REMARK    1  A    between atoms: C_2  and  C_3 
REMARK    2  A    between atoms: C_3  and  O_6 
REMARK    3  A    between atoms: C_3  and  C_4 
REMARK    4  A    between atoms: C_7  and  O_6 
REMARK    5  A    between atoms: C_9  and  C_10 
REMARK    6  A    between atoms: N_15  and  C_14 
REMARK    7  A    between atoms: N_20  and  C_19 
REMARK       I    between atoms: C_22  and  N_20 
ROOT
ATOM      1  C   LIG d   1       3.364  84.865 111.596  0.00  0.00     0.161 C 
ATOM      2  C   LIG d   1       3.904  86.162 111.623  0.00  0.00     0.016 C 
ATOM      3  C   LIG d   1       3.941  86.965 112.786  0.00  0.00     0.038 C 
ATOM      4  C   LIG d   1       3.576  86.465 114.045  0.00  0.00     0.028 C 
ATOM      5  C   LIG d   1       2.555  85.334 113.974  0.00  0.00    -0.047 C 
ATOM      6  C   LIG d   1       3.062  84.261 112.984  0.00  0.00     0.091 C 
ENDROOT
BRANCH   1   7
ATOM      7  O   LIG d   1       4.231  83.990 110.847  0.00  0.00    -0.368 OA
BRANCH   7   8
ATOM      8  C   LIG d   1       3.772  83.617 109.525  0.00  0.00     0.119 C 
BRANCH   8   9
ATOM      9  C   LIG d   1       2.313  84.094 109.390  0.00  0.00     0.028 C 
ATOM     10  C   LIG d   1       1.318  82.924 109.305  0.00  0.00     0.006 C 
ENDBRANCH   8   9
BRANCH   8  11
ATOM     11  C   LIG d   1       3.718  82.095 109.363  0.00  0.00     0.028 C 
ATOM     12  C   LIG d   1       4.848  81.375 110.116  0.00  0.00     0.006 C 
ENDBRANCH   8  11
ENDBRANCH   7   8
ENDBRANCH   1   7
BRANCH   6  13
ATOM     13  N   LIG d   1       2.084  83.159 112.791  0.00  0.00    -0.311 N 
ATOM     14  C   LIG d   1       2.391  81.872 112.941  0.00  0.00     0.210 C 
ATOM     15  C   LIG d   1       1.239  80.897 112.675  0.00  0.00     0.109 C 
ATOM     16  O   LIG d   1       3.499  81.446 113.299  0.00  0.00    -0.276 OA
ATOM     17  H   LIG d   1       1.152  83.417 112.530  0.00  0.00     0.149 HD
ENDBRANCH   6  13
BRANCH   5  18
ATOM     18  N   LIG d   1       2.368  84.816 115.342  0.00  0.00     0.381 N 
ATOM     19  H   LIG d   1       3.129  85.109 115.923  0.00  0.00    -0.090 HD
ATOM     20  H   LIG d   1       2.364  83.811 115.312  0.00  0.00    -0.090 HD
ATOM     21  H   LIG d   1       1.507  85.147 115.718  0.00  0.00    -0.090 HD
ENDBRANCH   5  18
BRANCH   3  22
ATOM     22  C   LIG d   1       4.311  88.298 112.689  0.00  0.00     0.382 C 
ATOM     23  O   LIG d   1       5.509  88.602 112.477  0.00  0.00    -0.241 OA
ATOM     24  O   LIG d   1       3.469  89.200 112.855  0.00  0.00    -0.241 OA
ENDBRANCH   3  22
TORSDOF 7
ENDMDL
MODEL 3
REMARK VINA RESULT:      -6.0      2.060      3.541
REMARK  7 active torsions:
REMARK  status: ('A' for Active; 'I' for Inactive)
REMARK    1  A    between atoms: C_2  and  C_3 
REMARK    2  A    between atoms: C_3  and  O_6 
REMARK    3  A    between atoms: C_3  and  C_4 
REMARK    4  A    between atoms: C_7  and  O_6 
REMARK    5  A    between atoms: C_9  and  C_10 
REMARK    6  A    between atoms: N_15  and  C_14 
REMARK    7  A    between atoms: N_20  and  C_19 
REMARK       I    between atoms: C_22  and  N_20 
ROOT
ATOM      1  C   LIG d   1       2.442  84.456 109.976  0.00  0.00     0.161 C 
ATOM      2  C   LIG d   1       1.482  85.474 110.093  0.00  0.00     0.016 C 
ATOM      3  C   LIG d   1       0.125  85.232 110.410  0.00  0.00     0.038 C 
ATOM      4  C   LIG d   1      -0.333  83.960 110.783  0.00  0.00     0.028 C 
ATOM      5  C   LIG d   1       0.490  82.821 110.189  0.00  0.00    -0.047 C 
ATOM      6  C   LIG d   1       1.985  83.074 110.489  0.00  0.00     0.091 C 
ENDROOT
BRANCH   1   7
ATOM      7  O   LIG d   1       3.661  84.856 110.634  0.00  0.00    -0.368 OA
BRANCH   7   8
ATOM      8  C   LIG d   1       3.505  85.646 111.838  0.00  0.00     0.119 C 
BRANCH   8   9
ATOM      9  C   LIG d   1       4.439  86.865 111.717  0.00  0.00     0.028 C 
ATOM     10  C   LIG d   1       4.051  88.000 112.680  0.00  0.00     0.006 C 
ENDBRANCH   8   9
BRANCH   8  11
ATOM     11  C   LIG d   1       3.995  84.882 113.072  0.00  0.00     0.028 C 
ATOM     12  C   LIG d   1       2.866  84.569 114.067  0.00  0.00     0.006 C 
ENDBRANCH   8  11
ENDBRANCH   7   8
ENDBRANCH   1   7
BRANCH   6  13
ATOM     13  N   LIG d   1       2.868  82.051 109.870  0.00  0.00    -0.311 N 
ATOM     14  C   LIG d   1       3.820  81.403 110.539  0.00  0.00     0.210 C 
ATOM     15  C   LIG d   1       4.629  80.403 109.707  0.00  0.00     0.109 C 
ATOM     16  O   LIG d   1       4.051  81.539 111.750  0.00  0.00    -0.276 OA
ATOM     17  H   LIG d   1       2.729  81.856 108.898  0.00  0.00     0.149 HD
ENDBRANCH   6  13
BRANCH   5  18
ATOM     18  N   LIG d   1      -0.010  81.560 110.769  0.00  0.00     0.381 N 
ATOM     19  H   LIG d   1      -0.350  81.725 111.695  0.00  0.00    -0.090 HD
ATOM     20  H   LIG d   1       0.748  80.904 110.823  0.00  0.00    -0.090 HD
ATOM     21  H   LIG d   1      -0.740  81.190 110.200  0.00  0.00    -0.090 HD
ENDBRANCH   5  18
BRANCH   3  22
ATOM     22  C   LIG d   1      -0.797  86.263 110.317  0.00  0.00     0.382 C 
ATOM     23  O   LIG d   1      -0.838  87.150 111.203  0.00  0.00    -0.241 OA
ATOM     24  O   LIG d   1      -1.618  86.293 109.380  0.00  0.00    -0.241 OA
ENDBRANCH   3  22
TORSDOF 7
ENDMDL
MODEL 4
REMARK VINA RESULT:      -5.8      2.555      6.044
REMARK  7 active torsions:
REMARK  status: ('A' for Active; 'I' for Inactive)
REMARK    1  A    between atoms: C_2  and  C_3 
REMARK    2  A    between atoms: C_3  and  O_6 
REMARK    3  A    between atoms: C_3  and  C_4 
REMARK    4  A    between atoms: C_7  and  O_6 
REMARK    5  A    between atoms: C_9  and  C_10 
REMARK    6  A    between atoms: N_15  and  C_14 
REMARK    7  A    between atoms: N_20  and  C_19 
REMARK       I    between atoms: C_22  and  N_20 
ROOT
ATOM      1  C   LIG d   1       2.552  83.596 109.723  0.00  0.00     0.161 C 
ATOM      2  C   LIG d   1       2.215  82.264 109.432  0.00  0.00     0.016 C 
ATOM      3  C   LIG d   1       2.566  81.174 110.261  0.00  0.00     0.038 C 
ATOM      4  C   LIG d   1       3.152  81.360 111.522  0.00  0.00     0.028 C 
ATOM      5  C   LIG d   1       3.964  82.646 111.629  0.00  0.00    -0.047 C 
ATOM      6  C   LIG d   1       3.094  83.830 111.148  0.00  0.00     0.091 C 
ENDROOT
BRANCH   1   7
ATOM      7  O   LIG d   1       1.421  84.453 109.470  0.00  0.00    -0.368 OA
BRANCH   7   8
ATOM      8  C   LIG d   1       0.717  84.940 110.638  0.00  0.00     0.119 C 
BRANCH   8   9
ATOM      9  C   LIG d   1      -0.662  84.252 110.668  0.00  0.00     0.028 C 
ATOM     10  C   LIG d   1      -0.715  83.089 111.673  0.00  0.00     0.006 C 
ENDBRANCH   8   9
BRANCH   8  11
ATOM     11  C   LIG d   1       0.419  86.438 110.525  0.00  0.00     0.028 C 
ATOM     12  C   LIG d   1      -0.992  86.804 111.010  0.00  0.00     0.006 C 
ENDBRANCH   8  11
ENDBRANCH   7   8
ENDBRANCH   1   7
BRANCH   6  13
ATOM     13  N   LIG d   1       3.840  85.115 111.141  0.00  0.00    -0.311 N 
ATOM     14  C   LIG d   1       3.818  85.982 112.152  0.00  0.00     0.210 C 
ATOM     15  C   LIG d   1       4.641  87.255 111.931  0.00  0.00     0.109 C 
ATOM     16  O   LIG d   1       3.220  85.803 113.224  0.00  0.00    -0.276 OA
ATOM     17  H   LIG d   1       4.377  85.327 110.322  0.00  0.00     0.149 HD
ENDBRANCH   6  13
BRANCH   5  18
ATOM     18  N   LIG d   1       4.402  82.782 113.031  0.00  0.00     0.381 N 
ATOM     19  H   LIG d   1       3.631  83.070 113.600  0.00  0.00    -0.090 HD
ATOM     20  H   LIG d   1       5.114  83.489 113.082  0.00  0.00    -0.090 HD
ATOM     21  H   LIG d   1       4.762  81.913 113.362  0.00  0.00    -0.090 HD
ENDBRANCH   5  18
BRANCH   3  22
ATOM     22  C   LIG d   1       2.368  79.877 109.812  0.00  0.00     0.382 C 
ATOM     23  O   LIG d   1       1.204  79.416 109.722  0.00  0.00    -0.241 OA
ATOM     24  O   LIG d   1       3.339  79.147 109.538  0.00  0.00    -0.241 OA
ENDBRANCH   3  22
TORSDOF 7
ENDMDL
MODEL 5
REMARK VINA RESULT:      -5.7      3.327      4.908
REMARK  7 active torsions:
REMARK  status: ('A' for Active; 'I' for Inactive)
REMARK    1  A    between atoms: C_2  and  C_3 
REMARK    2  A    between atoms: C_3  and  O_6 
REMARK    3  A    between atoms: C_3  and  C_4 
REMARK    4  A    between atoms: C_7  and  O_6 
REMARK    5  A    between atoms: C_9  and  C_10 
REMARK    6  A    between atoms: N_15  and  C_14 
REMARK    7  A    between atoms: N_20  and  C_19 
REMARK       I    between atoms: C_22  and  N_20 
ROOT
ATOM      1  C   LIG d   1       2.857  86.221 112.066  0.00  0.00     0.161 C 
ATOM      2  C   LIG d   1       3.219  87.558 112.297  0.00  0.00     0.016 C 
ATOM      3  C   LIG d   1       3.954  87.981 113.428  0.00  0.00     0.038 C 
ATOM      4  C   LIG d   1       4.511  87.067 114.334  0.00  0.00     0.028 C 
ATOM      5  C   LIG d   1       3.745  85.751 114.415  0.00  0.00    -0.047 C 
ATOM      6  C   LIG d   1       3.551  85.195 112.986  0.00  0.00     0.091 C 
ENDROOT
BRANCH   1   7
ATOM      7  O   LIG d   1       3.082  85.886 110.682  0.00  0.00    -0.368 OA
BRANCH   7   8
ATOM      8  C   LIG d   1       1.897  85.635 109.886  0.00  0.00     0.119 C 
BRANCH   8   9
ATOM      9  C   LIG d   1       0.674  85.841 110.800  0.00  0.00     0.028 C 
ATOM     10  C   LIG d   1      -0.622  86.069 110.003  0.00  0.00     0.006 C 
ENDBRANCH   8   9
BRANCH   8  11
ATOM     11  C   LIG d   1       1.827  84.172 109.438  0.00  0.00     0.028 C 
ATOM     12  C   LIG d   1       3.213  83.522 109.306  0.00  0.00     0.006 C 
ENDBRANCH   8  11
ENDBRANCH   7   8
ENDBRANCH   1   7
BRANCH   6  13
ATOM     13  N   LIG d   1       2.737  83.951 112.967  0.00  0.00    -0.311 N 
ATOM     14  C   LIG d   1       3.266  82.729 112.962  0.00  0.00     0.210 C 
ATOM     15  C   LIG d   1       2.249  81.584 112.921  0.00  0.00     0.109 C 
ATOM     16  O   LIG d   1       4.481  82.484 113.019  0.00  0.00    -0.276 OA
ATOM     17  H   LIG d   1       1.742  84.058 112.951  0.00  0.00     0.149 HD
ENDBRANCH   6  13
BRANCH   5  18
ATOM     18  N   LIG d   1       4.511  84.842 115.290  0.00  0.00     0.381 N 
ATOM     19  H   LIG d   1       5.021  84.186 114.733  0.00  0.00    -0.090 HD
ATOM     20  H   LIG d   1       3.868  84.332 115.869  0.00  0.00    -0.090 HD
ATOM     21  H   LIG d   1       5.139  85.366 115.858  0.00  0.00    -0.090 HD
ENDBRANCH   5  18
BRANCH   3  22
ATOM     22  C   LIG d   1       4.105  89.336 113.683  0.00  0.00     0.382 C 
ATOM     23  O   LIG d   1       3.818  89.797 114.814  0.00  0.00    -0.241 OA
ATOM     24  O   LIG d   1       4.482  90.110 112.783  0.00  0.00    -0.241 OA
ENDBRANCH   3  22
TORSDOF 7
ENDMDL
MODEL 6
REMARK VINA RESULT:      -5.7      2.854      5.222
REMARK  7 active torsions:
REMARK  status: ('A' for Active; 'I' for Inactive)
REMARK    1  A    between atoms: C_2  and  C_3 
REMARK    2  A    between atoms: C_3  and  O_6 
REMARK    3  A    between atoms: C_3  and  C_4 
REMARK    4  A    between atoms: C_7  and  O_6 
REMARK    5  A    between atoms: C_9  and  C_10 
REMARK    6  A    between atoms: N_15  and  C_14 
REMARK    7  A    between atoms: N_20  and  C_19 
REMARK       I    between atoms: C_22  and  N_20 
ROOT
ATOM      1  C   LIG d   1       2.455  84.576 112.789  0.00  0.00     0.161 C 
ATOM      2  C   LIG d   1       1.525  83.613 112.363  0.00  0.00     0.016 C 
ATOM      3  C   LIG d   1       0.499  83.882 111.428  0.00  0.00     0.038 C 
ATOM      4  C   LIG d   1       0.426  85.101 110.738  0.00  0.00     0.028 C 
ATOM      5  C   LIG d   1       1.035  86.269 111.506  0.00  0.00    -0.047 C 
ATOM      6  C   LIG d   1       2.459  85.880 111.964  0.00  0.00     0.091 C 
ENDROOT
BRANCH   1   7
ATOM      7  O   LIG d   1       3.776  84.000 112.822  0.00  0.00    -0.368 OA
BRANCH   7   8
ATOM      8  C   LIG d   1       3.893  82.647 112.317  0.00  0.00     0.119 C 
BRANCH   8   9
ATOM      9  C   LIG d   1       4.542  81.794 113.425  0.00  0.00     0.028 C 
ATOM     10  C   LIG d   1       3.505  81.210 114.399  0.00  0.00     0.006 C 
ENDBRANCH   8   9
BRANCH   8  11
ATOM     11  C   LIG d   1       4.861  82.577 111.132  0.00  0.00     0.028 C 
ATOM     12  C   LIG d   1       4.277  83.188 109.849  0.00  0.00     0.006 C 
ENDBRANCH   8  11
ENDBRANCH   7   8
ENDBRANCH   1   7
BRANCH   6  13
ATOM     13  N   LIG d   1       3.095  86.936 112.795  0.00  0.00    -0.311 N 
ATOM     14  C   LIG d   1       4.210  87.574 112.442  0.00  0.00     0.210 C 
ATOM     15  C   LIG d   1       4.708  88.612 113.453  0.00  0.00     0.109 C 
ATOM     16  O   LIG d   1       4.815  87.402 111.374  0.00  0.00    -0.276 OA
ATOM     17  H   LIG d   1       2.653  87.161 113.665  0.00  0.00     0.149 HD
ENDBRANCH   6  13
BRANCH   5  18
ATOM     18  N   LIG d   1       1.016  87.446 110.616  0.00  0.00     0.381 N 
ATOM     19  H   LIG d   1       0.891  88.278 111.158  0.00  0.00    -0.090 HD
ATOM     20  H   LIG d   1       0.239  87.362 109.984  0.00  0.00    -0.090 HD
ATOM     21  H   LIG d   1       1.868  87.500 110.103  0.00  0.00    -0.090 HD
ENDBRANCH   5  18
BRANCH   3  22
ATOM     22  C   LIG d   1      -0.492  82.938 111.205  0.00  0.00     0.382 C 
ATOM     23  O   LIG d   1      -1.550  82.969 111.879  0.00  0.00    -0.241 OA
ATOM     24  O   LIG d   1      -0.323  82.030 110.370  0.00  0.00    -0.241 OA
ENDBRANCH   3  22
TORSDOF 7
ENDMDL
MODEL 7
REMARK VINA RESULT:      -5.7      2.136      4.967
REMARK  7 active torsions:
REMARK  status: ('A' for Active; 'I' for Inactive)
REMARK    1  A    between atoms: C_2  and  C_3 
REMARK    2  A    between atoms: C_3  and  O_6 
REMARK    3  A    between atoms: C_3  and  C_4 
REMARK    4  A    between atoms: C_7  and  O_6 
REMARK    5  A    between atoms: C_9  and  C_10 
REMARK    6  A    between atoms: N_15  and  C_14 
REMARK    7  A    between atoms: N_20  and  C_19 
REMARK       I    between atoms: C_22  and  N_20 
ROOT
ATOM      1  C   LIG d   1       2.076  83.461 111.772  0.00  0.00     0.161 C 
ATOM      2  C   LIG d   1       1.080  82.471 111.721  0.00  0.00     0.016 C 
ATOM      3  C   LIG d   1      -0.303  82.756 111.781  0.00  0.00     0.038 C 
ATOM      4  C   LIG d   1      -0.792  84.070 111.743  0.00  0.00     0.028 C 
ATOM      5  C   LIG d   1       0.187  85.097 112.303  0.00  0.00    -0.047 C 
ATOM      6  C   LIG d   1       1.559  84.907 111.618  0.00  0.00     0.091 C 
ENDROOT
BRANCH   1   7
ATOM      7  O   LIG d   1       3.090  83.184 110.786  0.00  0.00    -0.368 OA
BRANCH   7   8
ATOM      8  C   LIG d   1       4.374  82.749 111.297  0.00  0.00     0.119 C 
BRANCH   8   9
ATOM      9  C   LIG d   1       4.522  81.252 110.964  0.00  0.00     0.028 C 
ATOM     10  C   LIG d   1       4.223  80.947 109.487  0.00  0.00     0.006 C 
ENDBRANCH   8   9
BRANCH   8  11
ATOM     11  C   LIG d   1       4.422  82.831 112.826  0.00  0.00     0.028 C 
ATOM     12  C   LIG d   1       4.393  81.449 113.498  0.00  0.00     0.006 C 
ENDBRANCH   8  11
ENDBRANCH   7   8
ENDBRANCH   1   7
BRANCH   6  13
ATOM     13  N   LIG d   1       2.598  85.816 112.169  0.00  0.00    -0.311 N 
ATOM     14  C   LIG d   1       2.804  87.052 111.717  0.00  0.00     0.210 C 
ATOM     15  C   LIG d   1       3.939  87.813 112.411  0.00  0.00     0.109 C 
ATOM     16  O   LIG d   1       2.135  87.601 110.830  0.00  0.00    -0.276 OA
ATOM     17  H   LIG d   1       3.167  85.462 112.913  0.00  0.00     0.149 HD
ENDBRANCH   6  13
BRANCH   5  18
ATOM     18  N   LIG d   1      -0.392  86.434 112.076  0.00  0.00     0.381 N 
ATOM     19  H   LIG d   1       0.171  87.128 112.526  0.00  0.00    -0.090 HD
ATOM     20  H   LIG d   1      -1.311  86.464 112.481  0.00  0.00    -0.090 HD
ATOM     21  H   LIG d   1      -0.446  86.622 111.099  0.00  0.00    -0.090 HD
ENDBRANCH   5  18
BRANCH   3  22
ATOM     22  C   LIG d   1      -1.213  81.719 111.920  0.00  0.00     0.382 C 
ATOM     23  O   LIG d   1      -0.911  80.564 111.533  0.00  0.00    -0.241 OA
ATOM     24  O   LIG d   1      -2.348  81.932 112.386  0.00  0.00    -0.241 OA
ENDBRANCH   3  22
TORSDOF 7
ENDMDL
MODEL 8
REMARK VINA RESULT:      -5.7      2.631      3.412
REMARK  7 active torsions:
REMARK  status: ('A' for Active; 'I' for Inactive)
REMARK    1  A    between atoms: C_2  and  C_3 
REMARK    2  A    between atoms: C_3  and  O_6 
REMARK    3  A    between atoms: C_3  and  C_4 
REMARK    4  A    between atoms: C_7  and  O_6 
REMARK    5  A    between atoms: C_9  and  C_10 
REMARK    6  A    between atoms: N_15  and  C_14 
REMARK    7  A    between atoms: N_20  and  C_19 
REMARK       I    between atoms: C_22  and  N_20 
ROOT
ATOM      1  C   LIG d   1       2.785  84.465 112.127  0.00  0.00     0.161 C 
ATOM      2  C   LIG d   1       3.356  85.675 112.554  0.00  0.00     0.016 C 
ATOM      3  C   LIG d   1       3.028  86.931 111.992  0.00  0.00     0.038 C 
ATOM      4  C   LIG d   1       1.989  87.078 111.062  0.00  0.00     0.028 C 
ATOM      5  C   LIG d   1       1.733  85.823 110.235  0.00  0.00    -0.047 C 
ATOM      6  C   LIG d   1       1.569  84.618 111.190  0.00  0.00     0.091 C 
ENDROOT
BRANCH   1   7
ATOM      7  O   LIG d   1       2.438  83.658 113.270  0.00  0.00    -0.368 OA
BRANCH   7   8
ATOM      8  C   LIG d   1       3.437  82.701 113.701  0.00  0.00     0.119 C 
BRANCH   8   9
ATOM      9  C   LIG d   1       3.182  81.389 112.934  0.00  0.00     0.028 C 
ATOM     10  C   LIG d   1       4.076  81.254 111.690  0.00  0.00     0.006 C 
ENDBRANCH   8   9
BRANCH   8  11
ATOM     11  C   LIG d   1       3.265  82.345 115.181  0.00  0.00     0.028 C 
ATOM     12  C   LIG d   1       3.571  80.869 115.478  0.00  0.00     0.006 C 
ENDBRANCH   8  11
ENDBRANCH   7   8
ENDBRANCH   1   7
BRANCH   6  13
ATOM     13  N   LIG d   1       1.399  83.335 110.460  0.00  0.00    -0.311 N 
ATOM     14  C   LIG d   1       0.245  82.672 110.402  0.00  0.00     0.210 C 
ATOM     15  C   LIG d   1       0.293  81.359 109.613  0.00  0.00     0.109 C 
ATOM     16  O   LIG d   1      -0.821  83.062 110.902  0.00  0.00    -0.276 OA
ATOM     17  H   LIG d   1       2.205  82.962 109.999  0.00  0.00     0.149 HD
ENDBRANCH   6  13
BRANCH   5  18
ATOM     18  N   LIG d   1       0.539  86.071 109.406  0.00  0.00     0.381 N 
ATOM     19  H   LIG d   1       0.784  86.641 108.621  0.00  0.00    -0.090 HD
ATOM     20  H   LIG d   1      -0.141  86.566 109.955  0.00  0.00    -0.090 HD
ATOM     21  H   LIG d   1       0.157  85.206 109.091  0.00  0.00    -0.090 HD
ENDBRANCH   5  18
BRANCH   3  22
ATOM     22  C   LIG d   1       3.772  88.051 112.332  0.00  0.00     0.382 C 
ATOM     23  O   LIG d   1       3.193  89.093 112.724  0.00  0.00    -0.241 OA
ATOM     24  O   LIG d   1       5.012  88.047 112.210  0.00  0.00    -0.241 OA
ENDBRANCH   3  22
TORSDOF 7
ENDMDL
MODEL 9
REMARK VINA RESULT:      -5.5     23.061     25.290
REMARK  7 active torsions:
REMARK  status: ('A' for Active; 'I' for Inactive)
REMARK    1  A    between atoms: C_2  and  C_3 
REMARK    2  A    between atoms: C_3  and  O_6 
REMARK    3  A    between atoms: C_3  and  C_4 
REMARK    4  A    between atoms: C_7  and  O_6 
REMARK    5  A    between atoms: C_9  and  C_10 
REMARK    6  A    between atoms: N_15  and  C_14 
REMARK    7  A    between atoms: N_20  and  C_19 
REMARK       I    between atoms: C_22  and  N_20 
ROOT
ATOM      1  C   LIG d   1     -14.653  66.204 115.960  0.00  0.00     0.161 C 
ATOM      2  C   LIG d   1     -14.668  67.178 114.948  0.00  0.00     0.016 C 
ATOM      3  C   LIG d   1     -15.328  67.004 113.710  0.00  0.00     0.038 C 
ATOM      4  C   LIG d   1     -16.151  65.895 113.458  0.00  0.00     0.028 C 
ATOM      5  C   LIG d   1     -15.757  64.656 114.253  0.00  0.00    -0.047 C 
ATOM      6  C   LIG d   1     -15.637  65.035 115.747  0.00  0.00     0.091 C 
ENDROOT
BRANCH   1   7
ATOM      7  O   LIG d   1     -14.883  66.826 117.240  0.00  0.00    -0.368 OA
BRANCH   7   8
ATOM      8  C   LIG d   1     -16.198  66.632 117.815  0.00  0.00     0.119 C 
BRANCH   8   9
ATOM      9  C   LIG d   1     -16.914  67.997 117.805  0.00  0.00     0.028 C 
ATOM     10  C   LIG d   1     -17.675  68.269 119.113  0.00  0.00     0.006 C 
ENDBRANCH   8   9
BRANCH   8  11
ATOM     11  C   LIG d   1     -16.107  66.233 119.291  0.00  0.00     0.028 C 
ATOM     12  C   LIG d   1     -14.658  66.054 119.772  0.00  0.00     0.006 C 
ENDBRANCH   8  11
ENDBRANCH   7   8
ENDBRANCH   1   7
BRANCH   6  13
ATOM     13  N   LIG d   1     -15.173  63.899 116.585  0.00  0.00    -0.311 N 
ATOM     14  C   LIG d   1     -16.000  63.056 117.201  0.00  0.00     0.210 C 
ATOM     15  C   LIG d   1     -15.314  61.967 118.031  0.00  0.00     0.109 C 
ATOM     16  O   LIG d   1     -17.237  63.088 117.113  0.00  0.00    -0.276 OA
ATOM     17  H   LIG d   1     -14.184  63.780 116.685  0.00  0.00     0.149 HD
ENDBRANCH   6  13
BRANCH   5  18
ATOM     18  N   LIG d   1     -16.776  63.620 114.000  0.00  0.00     0.381 N 
ATOM     19  H   LIG d   1     -16.453  62.736 114.338  0.00  0.00    -0.090 HD
ATOM     20  H   LIG d   1     -16.923  63.544 113.009  0.00  0.00    -0.090 HD
ATOM     21  H   LIG d   1     -17.630  63.865 114.451  0.00  0.00    -0.090 HD
ENDBRANCH   5  18
BRANCH   3  22
ATOM     22  C   LIG d   1     -15.137  67.926 112.692  0.00  0.00     0.382 C 
ATOM     23  O   LIG d   1     -15.288  67.581 111.496  0.00  0.00    -0.241 OA
ATOM     24  O   LIG d   1     -14.771  69.088 112.954  0.00  0.00    -0.241 OA
ENDBRANCH   3  22
TORSDOF 7
ENDMDL
