MODEL 1
REMARK VINA RESULT:      -6.7      0.000      0.000
REMARK  7 active torsions:
REMARK  status: ('A' for Active; 'I' for Inactive)
REMARK    1  A    between atoms: C_2  and  C_3 
REMARK    2  A    between atoms: C_3  and  O_6 
REMARK    3  A    between atoms: C_3  and  C_4 
REMARK    4  A    between atoms: C_7  and  O_6 
REMARK    5  A    between atoms: C_9  and  C_10 
REMARK    6  A    between atoms: N_15  and  C_14 
REMARK    7  A    between atoms: N_20  and  C_19 
REMARK       I    between atoms: C_22  and  N_20 
ROOT
ATOM      1  C   LIG d   1       2.085  82.905 110.870  0.00  0.00     0.161 C 
ATOM      2  C   LIG d   1       2.992  81.834 110.829  0.00  0.00     0.016 C 
ATOM      3  C   LIG d   1       3.405  81.209 109.630  0.00  0.00     0.038 C 
ATOM      4  C   LIG d   1       3.052  81.715 108.370  0.00  0.00     0.028 C 
ATOM      5  C   LIG d   1       1.735  82.484 108.374  0.00  0.00    -0.047 C 
ATOM      6  C   LIG d   1       1.775  83.543 109.499  0.00  0.00     0.091 C 
ENDROOT
BRANCH   1   7
ATOM      7  O   LIG d   1       2.553  83.907 111.794  0.00  0.00    -0.368 OA
BRANCH   7   8
ATOM      8  C   LIG d   1       3.969  84.208 111.745  0.00  0.00     0.119 C 
BRANCH   8   9
ATOM      9  C   LIG d   1       4.476  84.293 113.197  0.00  0.00     0.028 C 
ATOM     10  C   LIG d   1       4.966  82.935 113.728  0.00  0.00     0.006 C 
ENDBRANCH   8   9
BRANCH   8  11
ATOM     11  C   LIG d   1       4.224  85.594 111.145  0.00  0.00     0.028 C 
ATOM     12  C   LIG d   1       4.753  86.602 112.178  0.00  0.00     0.006 C 
ENDBRANCH   8  11
ENDBRANCH   7   8
ENDBRANCH   1   7
BRANCH   6  13
ATOM     13  N   LIG d   1       0.493  84.283 109.627  0.00  0.00    -0.311 N 
ATOM     14  C   LIG d   1       0.419  85.607 109.747  0.00  0.00     0.210 C 
ATOM     15  C   LIG d   1      -1.000  86.167 109.886  0.00  0.00     0.109 C 
ATOM     16  O   LIG d   1       1.393  86.375 109.720  0.00  0.00    -0.276 OA
ATOM     17  H   LIG d   1      -0.349  83.741 109.627  0.00  0.00     0.149 HD
ENDBRANCH   6  13
BRANCH   5  18
ATOM     18  N   LIG d   1       1.558  83.071 107.033  0.00  0.00     0.381 N 
ATOM     19  H   LIG d   1       1.184  83.996 107.114  0.00  0.00    -0.090 HD
ATOM     20  H   LIG d   1       0.904  82.511 106.516  0.00  0.00    -0.090 HD
ATOM     21  H   LIG d   1       2.432  83.100 106.555  0.00  0.00    -0.090 HD
ENDBRANCH   5  18
BRANCH   3  22
ATOM     22  C   LIG d   1       4.149  80.040 109.685  0.00  0.00     0.382 C 
ATOM     23  O   LIG d   1       3.590  78.932 109.496  0.00  0.00    -0.241 OA
ATOM     24  O   LIG d   1       5.362  80.075 109.966  0.00  0.00    -0.241 OA
ENDBRANCH   3  22
TORSDOF 7
ENDMDL
MODEL 2
REMARK VINA RESULT:      -6.6      3.296      5.195
REMARK  7 active torsions:
REMARK  status: ('A' for Active; 'I' for Inactive)
REMARK    1  A    between atoms: C_2  and  C_3 
REMARK    2  A    between atoms: C_3  and  O_6 
REMARK    3  A    between atoms: C_3  and  C_4 
REMARK    4  A    between atoms: C_7  and  O_6 
REMARK    5  A    between atoms: C_9  and  C_10 
REMARK    6  A    between atoms: N_15  and  C_14 
REMARK    7  A    between atoms: N_20  and  C_19 
REMARK       I    between atoms: C_22  and  N_20 
ROOT
ATOM      1  C   LIG d   1       0.375  82.746 111.010  0.00  0.00     0.161 C 
ATOM      2  C   LIG d   1      -0.768  82.492 111.786  0.00  0.00     0.016 C 
ATOM      3  C   LIG d   1      -1.300  81.197 111.988  0.00  0.00     0.038 C 
ATOM      4  C   LIG d   1      -0.632  80.045 111.547  0.00  0.00     0.028 C 
ATOM      5  C   LIG d   1       0.253  80.286 110.330  0.00  0.00    -0.047 C 
ATOM      6  C   LIG d   1       1.180  81.490 110.613  0.00  0.00     0.091 C 
ENDROOT
BRANCH   1   7
ATOM      7  O   LIG d   1       1.225  83.692 111.687  0.00  0.00    -0.368 OA
BRANCH   7   8
ATOM      8  C   LIG d   1       1.064  85.081 111.304  0.00  0.00     0.119 C 
BRANCH   8   9
ATOM      9  C   LIG d   1       0.471  85.103 109.883  0.00  0.00     0.028 C 
ATOM     10  C   LIG d   1      -0.764  86.015 109.776  0.00  0.00     0.006 C 
ENDBRANCH   8   9
BRANCH   8  11
ATOM     11  C   LIG d   1       2.418  85.788 111.190  0.00  0.00     0.028 C 
ATOM     12  C   LIG d   1       3.534  84.861 110.684  0.00  0.00     0.006 C 
ENDBRANCH   8  11
ENDBRANCH   7   8
ENDBRANCH   1   7
BRANCH   6  13
ATOM     13  N   LIG d   1       2.021  81.846 109.441  0.00  0.00    -0.311 N 
ATOM     14  C   LIG d   1       3.262  81.395 109.265  0.00  0.00     0.210 C 
ATOM     15  C   LIG d   1       3.960  81.901 107.999  0.00  0.00     0.109 C 
ATOM     16  O   LIG d   1       3.838  80.598 110.021  0.00  0.00    -0.276 OA
ATOM     17  H   LIG d   1       1.620  82.464 108.763  0.00  0.00     0.149 HD
ENDBRANCH   6  13
BRANCH   5  18
ATOM     18  N   LIG d   1       0.993  79.037 110.063  0.00  0.00     0.381 N 
ATOM     19  H   LIG d   1       1.003  78.853 109.080  0.00  0.00    -0.090 HD
ATOM     20  H   LIG d   1       0.523  78.277 110.522  0.00  0.00    -0.090 HD
ATOM     21  H   LIG d   1       1.926  79.115 110.403  0.00  0.00    -0.090 HD
ENDBRANCH   5  18
BRANCH   3  22
ATOM     22  C   LIG d   1      -2.534  81.050 112.603  0.00  0.00     0.382 C 
ATOM     23  O   LIG d   1      -2.695  80.169 113.482  0.00  0.00    -0.241 OA
ATOM     24  O   LIG d   1      -3.500  81.757 112.258  0.00  0.00    -0.241 OA
ENDBRANCH   3  22
TORSDOF 7
ENDMDL
MODEL 3
REMARK VINA RESULT:      -6.3      1.805      5.082
REMARK  7 active torsions:
REMARK  status: ('A' for Active; 'I' for Inactive)
REMARK    1  A    between atoms: C_2  and  C_3 
REMARK    2  A    between atoms: C_3  and  O_6 
REMARK    3  A    between atoms: C_3  and  C_4 
REMARK    4  A    between atoms: C_7  and  O_6 
REMARK    5  A    between atoms: C_9  and  C_10 
REMARK    6  A    between atoms: N_15  and  C_14 
REMARK    7  A    between atoms: N_20  and  C_19 
REMARK       I    between atoms: C_22  and  N_20 
ROOT
ATOM      1  C   LIG d   1       2.747  84.243 110.140  0.00  0.00     0.161 C 
ATOM      2  C   LIG d   1       1.815  85.289 110.251  0.00  0.00     0.016 C 
ATOM      3  C   LIG d   1       0.431  85.079 110.445  0.00  0.00     0.038 C 
ATOM      4  C   LIG d   1      -0.099  83.805 110.693  0.00  0.00     0.028 C 
ATOM      5  C   LIG d   1       0.729  82.676 110.089  0.00  0.00    -0.047 C 
ATOM      6  C   LIG d   1       2.204  82.850 110.520  0.00  0.00     0.091 C 
ENDROOT
BRANCH   1   7
ATOM      7  O   LIG d   1       3.922  84.551 110.916  0.00  0.00    -0.368 OA
BRANCH   7   8
ATOM      8  C   LIG d   1       3.756  85.546 111.956  0.00  0.00     0.119 C 
BRANCH   8   9
ATOM      9  C   LIG d   1       4.812  86.643 111.721  0.00  0.00     0.028 C 
ATOM     10  C   LIG d   1       5.258  87.318 113.028  0.00  0.00     0.006 C 
ENDBRANCH   8   9
BRANCH   8  11
ATOM     11  C   LIG d   1       4.075  84.966 113.338  0.00  0.00     0.028 C 
ATOM     12  C   LIG d   1       4.755  83.590 113.264  0.00  0.00     0.006 C 
ENDBRANCH   8  11
ENDBRANCH   7   8
ENDBRANCH   1   7
BRANCH   6  13
ATOM     13  N   LIG d   1       3.098  81.835 109.903  0.00  0.00    -0.311 N 
ATOM     14  C   LIG d   1       3.713  80.881 110.599  0.00  0.00     0.210 C 
ATOM     15  C   LIG d   1       4.605  79.950 109.771  0.00  0.00     0.109 C 
ATOM     16  O   LIG d   1       3.579  80.696 111.818  0.00  0.00    -0.276 OA
ATOM     17  H   LIG d   1       3.238  81.892 108.913  0.00  0.00     0.149 HD
ENDBRANCH   6  13
BRANCH   5  18
ATOM     18  N   LIG d   1       0.142  81.401 110.540  0.00  0.00     0.381 N 
ATOM     19  H   LIG d   1       0.055  81.401 111.536  0.00  0.00    -0.090 HD
ATOM     20  H   LIG d   1       0.755  80.649 110.277  0.00  0.00    -0.090 HD
ATOM     21  H   LIG d   1      -0.753  81.271 110.121  0.00  0.00    -0.090 HD
ENDBRANCH   5  18
BRANCH   3  22
ATOM     22  C   LIG d   1      -0.446  86.150 110.351  0.00  0.00     0.382 C 
ATOM     23  O   LIG d   1      -0.214  87.207 110.985  0.00  0.00    -0.241 OA
ATOM     24  O   LIG d   1      -1.488  86.056 109.675  0.00  0.00    -0.241 OA
ENDBRANCH   3  22
TORSDOF 7
ENDMDL
MODEL 4
REMARK VINA RESULT:      -6.3      2.130      5.016
REMARK  7 active torsions:
REMARK  status: ('A' for Active; 'I' for Inactive)
REMARK    1  A    between atoms: C_2  and  C_3 
REMARK    2  A    between atoms: C_3  and  O_6 
REMARK    3  A    between atoms: C_3  and  C_4 
REMARK    4  A    between atoms: C_7  and  O_6 
REMARK    5  A    between atoms: C_9  and  C_10 
REMARK    6  A    between atoms: N_15  and  C_14 
REMARK    7  A    between atoms: N_20  and  C_19 
REMARK       I    between atoms: C_22  and  N_20 
ROOT
ATOM      1  C   LIG d   1       2.910  83.946 110.102  0.00  0.00     0.161 C 
ATOM      2  C   LIG d   1       3.206  85.201 110.659  0.00  0.00     0.016 C 
ATOM      3  C   LIG d   1       2.291  85.939 111.445  0.00  0.00     0.038 C 
ATOM      4  C   LIG d   1       1.062  85.400 111.854  0.00  0.00     0.028 C 
ATOM      5  C   LIG d   1       0.515  84.345 110.898  0.00  0.00    -0.047 C 
ATOM      6  C   LIG d   1       1.615  83.293 110.629  0.00  0.00     0.091 C 
ENDROOT
BRANCH   1   7
ATOM      7  O   LIG d   1       4.029  83.056 110.281  0.00  0.00    -0.368 OA
BRANCH   7   8
ATOM      8  C   LIG d   1       4.001  82.228 111.469  0.00  0.00     0.119 C 
BRANCH   8   9
ATOM      9  C   LIG d   1       5.079  82.763 112.431  0.00  0.00     0.028 C 
ATOM     10  C   LIG d   1       4.474  83.467 113.658  0.00  0.00     0.006 C 
ENDBRANCH   8   9
BRANCH   8  11
ATOM     11  C   LIG d   1       4.416  80.788 111.155  0.00  0.00     0.028 C 
ATOM     12  C   LIG d   1       4.598  80.535 109.650  0.00  0.00     0.006 C 
ENDBRANCH   8  11
ENDBRANCH   7   8
ENDBRANCH   1   7
BRANCH   6  13
ATOM     13  N   LIG d   1       1.191  82.270 109.638  0.00  0.00    -0.311 N 
ATOM     14  C   LIG d   1       0.715  81.074 109.978  0.00  0.00     0.210 C 
ATOM     15  C   LIG d   1       0.355  80.163 108.800  0.00  0.00     0.109 C 
ATOM     16  O   LIG d   1       0.526  80.692 111.142  0.00  0.00    -0.276 OA
ATOM     17  H   LIG d   1       1.281  82.509 108.670  0.00  0.00     0.149 HD
ENDBRANCH   6  13
BRANCH   5  18
ATOM     18  N   LIG d   1      -0.696  83.771 111.514  0.00  0.00     0.381 N 
ATOM     19  H   LIG d   1      -1.376  84.491 111.661  0.00  0.00    -0.090 HD
ATOM     20  H   LIG d   1      -0.453  83.380 112.407  0.00  0.00    -0.090 HD
ATOM     21  H   LIG d   1      -1.075  83.062 110.925  0.00  0.00    -0.090 HD
ENDBRANCH   5  18
BRANCH   3  22
ATOM     22  C   LIG d   1       2.586  87.248 111.796  0.00  0.00     0.382 C 
ATOM     23  O   LIG d   1       1.855  88.185 111.393  0.00  0.00    -0.241 OA
ATOM     24  O   LIG d   1       3.598  87.507 112.473  0.00  0.00    -0.241 OA
ENDBRANCH   3  22
TORSDOF 7
ENDMDL
MODEL 5
REMARK VINA RESULT:      -6.2      2.989      5.163
REMARK  7 active torsions:
REMARK  status: ('A' for Active; 'I' for Inactive)
REMARK    1  A    between atoms: C_2  and  C_3 
REMARK    2  A    between atoms: C_3  and  O_6 
REMARK    3  A    between atoms: C_3  and  C_4 
REMARK    4  A    between atoms: C_7  and  O_6 
REMARK    5  A    between atoms: C_9  and  C_10 
REMARK    6  A    between atoms: N_15  and  C_14 
REMARK    7  A    between atoms: N_20  and  C_19 
REMARK       I    between atoms: C_22  and  N_20 
ROOT
ATOM      1  C   LIG d   1       1.480  82.246 111.474  0.00  0.00     0.161 C 
ATOM      2  C   LIG d   1       0.303  81.513 111.700  0.00  0.00     0.016 C 
ATOM      3  C   LIG d   1      -0.909  82.100 112.128  0.00  0.00     0.038 C 
ATOM      4  C   LIG d   1      -1.069  83.491 112.215  0.00  0.00     0.028 C 
ATOM      5  C   LIG d   1       0.234  84.235 112.484  0.00  0.00    -0.047 C 
ATOM      6  C   LIG d   1       1.294  83.778 111.456  0.00  0.00     0.091 C 
ENDROOT
BRANCH   1   7
ATOM      7  O   LIG d   1       2.105  81.803 110.253  0.00  0.00    -0.368 OA
BRANCH   7   8
ATOM      8  C   LIG d   1       2.945  80.627 110.357  0.00  0.00     0.119 C 
BRANCH   8   9
ATOM      9  C   LIG d   1       4.411  81.102 110.337  0.00  0.00     0.028 C 
ATOM     10  C   LIG d   1       4.617  82.331 109.435  0.00  0.00     0.006 C 
ENDBRANCH   8   9
BRANCH   8  11
ATOM     11  C   LIG d   1       2.794  79.725 109.129  0.00  0.00     0.028 C 
ATOM     12  C   LIG d   1       1.376  79.153 108.980  0.00  0.00     0.006 C 
ENDBRANCH   8  11
ENDBRANCH   7   8
ENDBRANCH   1   7
BRANCH   6  13
ATOM     13  N   LIG d   1       2.624  84.395 111.701  0.00  0.00    -0.311 N 
ATOM     14  C   LIG d   1       3.005  85.553 111.163  0.00  0.00     0.210 C 
ATOM     15  C   LIG d   1       4.424  85.999 111.529  0.00  0.00     0.109 C 
ATOM     16  O   LIG d   1       2.291  86.267 110.444  0.00  0.00    -0.276 OA
ATOM     17  H   LIG d   1       3.255  83.897 112.298  0.00  0.00     0.149 HD
ENDBRANCH   6  13
BRANCH   5  18
ATOM     18  N   LIG d   1      -0.054  85.680 112.414  0.00  0.00     0.381 N 
ATOM     19  H   LIG d   1      -0.751  85.852 111.716  0.00  0.00    -0.090 HD
ATOM     20  H   LIG d   1       0.784  86.166 112.149  0.00  0.00    -0.090 HD
ATOM     21  H   LIG d   1      -0.372  86.008 113.299  0.00  0.00    -0.090 HD
ENDBRANCH   5  18
BRANCH   3  22
ATOM     22  C   LIG d   1      -1.967  81.290 112.514  0.00  0.00     0.382 C 
ATOM     23  O   LIG d   1      -1.742  80.199 113.091  0.00  0.00    -0.241 OA
ATOM     24  O   LIG d   1      -3.140  81.616 112.252  0.00  0.00    -0.241 OA
ENDBRANCH   3  22
TORSDOF 7
ENDMDL
MODEL 6
REMARK VINA RESULT:      -6.2      2.669      5.532
REMARK  7 active torsions:
REMARK  status: ('A' for Active; 'I' for Inactive)
REMARK    1  A    between atoms: C_2  and  C_3 
REMARK    2  A    between atoms: C_3  and  O_6 
REMARK    3  A    between atoms: C_3  and  C_4 
REMARK    4  A    between atoms: C_7  and  O_6 
REMARK    5  A    between atoms: C_9  and  C_10 
REMARK    6  A    between atoms: N_15  and  C_14 
REMARK    7  A    between atoms: N_20  and  C_19 
REMARK       I    between atoms: C_22  and  N_20 
ROOT
ATOM      1  C   LIG d   1       1.147  82.882 109.611  0.00  0.00     0.161 C 
ATOM      2  C   LIG d   1       1.403  84.252 109.782  0.00  0.00     0.016 C 
ATOM      3  C   LIG d   1       0.810  85.033 110.801  0.00  0.00     0.038 C 
ATOM      4  C   LIG d   1       0.031  84.459 111.817  0.00  0.00     0.028 C 
ATOM      5  C   LIG d   1      -0.662  83.169 111.393  0.00  0.00    -0.047 C 
ATOM      6  C   LIG d   1       0.387  82.215 110.777  0.00  0.00     0.091 C 
ENDROOT
BRANCH   1   7
ATOM      7  O   LIG d   1       2.380  82.183 109.352  0.00  0.00    -0.368 OA
BRANCH   7   8
ATOM      8  C   LIG d   1       3.228  81.939 110.501  0.00  0.00     0.119 C 
BRANCH   8   9
ATOM      9  C   LIG d   1       4.617  82.526 110.185  0.00  0.00     0.028 C 
ATOM     10  C   LIG d   1       4.872  82.649 108.673  0.00  0.00     0.006 C 
ENDBRANCH   8   9
BRANCH   8  11
ATOM     11  C   LIG d   1       3.461  80.440 110.714  0.00  0.00     0.028 C 
ATOM     12  C   LIG d   1       3.088  79.599 109.483  0.00  0.00     0.006 C 
ENDBRANCH   8  11
ENDBRANCH   7   8
ENDBRANCH   1   7
BRANCH   6  13
ATOM     13  N   LIG d   1      -0.221  80.962 110.259  0.00  0.00    -0.311 N 
ATOM     14  C   LIG d   1      -0.322  79.845 110.977  0.00  0.00     0.210 C 
ATOM     15  C   LIG d   1      -0.964  78.662 110.246  0.00  0.00     0.109 C 
ATOM     16  O   LIG d   1       0.030  79.730 112.161  0.00  0.00    -0.276 OA
ATOM     17  H   LIG d   1      -0.562  80.975 109.318  0.00  0.00     0.149 HD
ENDBRANCH   6  13
BRANCH   5  18
ATOM     18  N   LIG d   1      -1.325  82.607 112.585  0.00  0.00     0.381 N 
ATOM     19  H   LIG d   1      -1.168  83.203 113.373  0.00  0.00    -0.090 HD
ATOM     20  H   LIG d   1      -0.924  81.707 112.786  0.00  0.00    -0.090 HD
ATOM     21  H   LIG d   1      -2.303  82.514 112.420  0.00  0.00    -0.090 HD
ENDBRANCH   5  18
BRANCH   3  22
ATOM     22  C   LIG d   1       0.961  86.411 110.786  0.00  0.00     0.382 C 
ATOM     23  O   LIG d   1      -0.045  87.154 110.889  0.00  0.00    -0.241 OA
ATOM     24  O   LIG d   1       2.087  86.922 110.628  0.00  0.00    -0.241 OA
ENDBRANCH   3  22
TORSDOF 7
ENDMDL
MODEL 7
REMARK VINA RESULT:      -5.8      2.890      5.957
REMARK  7 active torsions:
REMARK  status: ('A' for Active; 'I' for Inactive)
REMARK    1  A    between atoms: C_2  and  C_3 
REMARK    2  A    between atoms: C_3  and  O_6 
REMARK    3  A    between atoms: C_3  and  C_4 
REMARK    4  A    between atoms: C_7  and  O_6 
REMARK    5  A    between atoms: C_9  and  C_10 
REMARK    6  A    between atoms: N_15  and  C_14 
REMARK    7  A    between atoms: N_20  and  C_19 
REMARK       I    between atoms: C_22  and  N_20 
ROOT
ATOM      1  C   LIG d   1       3.047  85.198 111.627  0.00  0.00     0.161 C 
ATOM      2  C   LIG d   1       3.989  86.224 111.804  0.00  0.00     0.016 C 
ATOM      3  C   LIG d   1       3.962  87.126 112.892  0.00  0.00     0.038 C 
ATOM      4  C   LIG d   1       3.073  86.966 113.966  0.00  0.00     0.028 C 
ATOM      5  C   LIG d   1       1.782  86.250 113.582  0.00  0.00    -0.047 C 
ATOM      6  C   LIG d   1       2.137  84.938 112.845  0.00  0.00     0.091 C 
ENDROOT
BRANCH   1   7
ATOM      7  O   LIG d   1       3.717  83.983 111.234  0.00  0.00    -0.368 OA
BRANCH   7   8
ATOM      8  C   LIG d   1       3.795  83.731 109.809  0.00  0.00     0.119 C 
BRANCH   8   9
ATOM      9  C   LIG d   1       2.355  83.555 109.290  0.00  0.00     0.028 C 
ATOM     10  C   LIG d   1       2.248  82.460 108.215  0.00  0.00     0.006 C 
ENDBRANCH   8   9
BRANCH   8  11
ATOM     11  C   LIG d   1       4.497  82.401 109.516  0.00  0.00     0.028 C 
ATOM     12  C   LIG d   1       5.034  81.719 110.785  0.00  0.00     0.006 C 
ENDBRANCH   8  11
ENDBRANCH   7   8
ENDBRANCH   1   7
BRANCH   6  13
ATOM     13  N   LIG d   1       0.931  84.217 112.360  0.00  0.00    -0.311 N 
ATOM     14  C   LIG d   1       0.487  83.084 112.901  0.00  0.00     0.210 C 
ATOM     15  C   LIG d   1      -0.761  82.495 112.236  0.00  0.00     0.109 C 
ATOM     16  O   LIG d   1       0.989  82.528 113.890  0.00  0.00    -0.276 OA
ATOM     17  H   LIG d   1       0.444  84.615 111.581  0.00  0.00     0.149 HD
ENDBRANCH   6  13
BRANCH   5  18
ATOM     18  N   LIG d   1       1.011  86.028 114.819  0.00  0.00     0.381 N 
ATOM     19  H   LIG d   1       0.146  85.575 114.602  0.00  0.00    -0.090 HD
ATOM     20  H   LIG d   1       0.804  86.918 115.237  0.00  0.00    -0.090 HD
ATOM     21  H   LIG d   1       1.537  85.469 115.454  0.00  0.00    -0.090 HD
ENDBRANCH   5  18
BRANCH   3  22
ATOM     22  C   LIG d   1       4.806  88.227 112.895  0.00  0.00     0.382 C 
ATOM     23  O   LIG d   1       5.979  88.118 112.463  0.00  0.00    -0.241 OA
ATOM     24  O   LIG d   1       4.423  89.315 113.364  0.00  0.00    -0.241 OA
ENDBRANCH   3  22
TORSDOF 7
ENDMDL
MODEL 8
REMARK VINA RESULT:      -5.8      2.472      4.544
REMARK  7 active torsions:
REMARK  status: ('A' for Active; 'I' for Inactive)
REMARK    1  A    between atoms: C_2  and  C_3 
REMARK    2  A    between atoms: C_3  and  O_6 
REMARK    3  A    between atoms: C_3  and  C_4 
REMARK    4  A    between atoms: C_7  and  O_6 
REMARK    5  A    between atoms: C_9  and  C_10 
REMARK    6  A    between atoms: N_15  and  C_14 
REMARK    7  A    between atoms: N_20  and  C_19 
REMARK       I    between atoms: C_22  and  N_20 
ROOT
ATOM      1  C   LIG d   1       3.587  85.010 110.862  0.00  0.00     0.161 C 
ATOM      2  C   LIG d   1       3.847  83.912 110.025  0.00  0.00     0.016 C 
ATOM      3  C   LIG d   1       4.299  82.660 110.501  0.00  0.00     0.038 C 
ATOM      4  C   LIG d   1       4.377  82.372 111.872  0.00  0.00     0.028 C 
ATOM      5  C   LIG d   1       4.609  83.606 112.737  0.00  0.00    -0.047 C 
ATOM      6  C   LIG d   1       3.560  84.681 112.369  0.00  0.00     0.091 C 
ENDROOT
BRANCH   1   7
ATOM      7  O   LIG d   1       2.355  85.645 110.466  0.00  0.00    -0.368 OA
BRANCH   7   8
ATOM      8  C   LIG d   1       1.359  84.784 109.861  0.00  0.00     0.119 C 
BRANCH   8   9
ATOM      9  C   LIG d   1       0.433  85.674 109.010  0.00  0.00     0.028 C 
ATOM     10  C   LIG d   1      -0.861  86.051 109.749  0.00  0.00     0.006 C 
ENDBRANCH   8   9
BRANCH   8  11
ATOM     11  C   LIG d   1       0.452  84.152 110.921  0.00  0.00     0.028 C 
ATOM     12  C   LIG d   1       0.437  82.616 110.852  0.00  0.00     0.006 C 
ENDBRANCH   8  11
ENDBRANCH   7   8
ENDBRANCH   1   7
BRANCH   6  13
ATOM     13  N   LIG d   1       3.767  85.952 113.111  0.00  0.00    -0.311 N 
ATOM     14  C   LIG d   1       2.774  86.654 113.654  0.00  0.00     0.210 C 
ATOM     15  C   LIG d   1       3.205  87.946 114.357  0.00  0.00     0.109 C 
ATOM     16  O   LIG d   1       1.582  86.313 113.650  0.00  0.00    -0.276 OA
ATOM     17  H   LIG d   1       4.708  86.286 113.189  0.00  0.00     0.149 HD
ENDBRANCH   6  13
BRANCH   5  18
ATOM     18  N   LIG d   1       4.532  83.182 114.148  0.00  0.00     0.381 N 
ATOM     19  H   LIG d   1       3.592  82.921 114.372  0.00  0.00    -0.090 HD
ATOM     20  H   LIG d   1       4.793  83.955 114.734  0.00  0.00    -0.090 HD
ATOM     21  H   LIG d   1       5.145  82.413 114.307  0.00  0.00    -0.090 HD
ENDBRANCH   5  18
BRANCH   3  22
ATOM     22  C   LIG d   1       4.716  81.692 109.600  0.00  0.00     0.382 C 
ATOM     23  O   LIG d   1       4.595  81.889 108.367  0.00  0.00    -0.241 OA
ATOM     24  O   LIG d   1       5.171  80.606 110.006  0.00  0.00    -0.241 OA
ENDBRANCH   3  22
TORSDOF 7
ENDMDL
MODEL 9
REMARK VINA RESULT:      -5.7      3.364      4.309
REMARK  7 active torsions:
REMARK  status: ('A' for Active; 'I' for Inactive)
REMARK    1  A    between atoms: C_2  and  C_3 
REMARK    2  A    between atoms: C_3  and  O_6 
REMARK    3  A    between atoms: C_3  and  C_4 
REMARK    4  A    between atoms: C_7  and  O_6 
REMARK    5  A    between atoms: C_9  and  C_10 
REMARK    6  A    between atoms: N_15  and  C_14 
REMARK    7  A    between atoms: N_20  and  C_19 
REMARK       I    between atoms: C_22  and  N_20 
ROOT
ATOM      1  C   LIG d   1       1.552  80.848 111.588  0.00  0.00     0.161 C 
ATOM      2  C   LIG d   1       2.583  81.629 111.040  0.00  0.00     0.016 C 
ATOM      3  C   LIG d   1       2.703  81.900 109.658  0.00  0.00     0.038 C 
ATOM      4  C   LIG d   1       1.708  81.531 108.741  0.00  0.00     0.028 C 
ATOM      5  C   LIG d   1       0.907  80.308 109.175  0.00  0.00    -0.047 C 
ATOM      6  C   LIG d   1       0.396  80.529 110.617  0.00  0.00     0.091 C 
ENDROOT
BRANCH   1   7
ATOM      7  O   LIG d   1       1.045  81.476 112.782  0.00  0.00    -0.368 OA
BRANCH   7   8
ATOM      8  C   LIG d   1       1.005  82.924 112.773  0.00  0.00     0.119 C 
BRANCH   8   9
ATOM      9  C   LIG d   1       1.397  83.407 114.183  0.00  0.00     0.028 C 
ATOM     10  C   LIG d   1       2.659  84.286 114.172  0.00  0.00     0.006 C 
ENDBRANCH   8   9
BRANCH   8  11
ATOM     11  C   LIG d   1      -0.419  83.440 112.548  0.00  0.00     0.028 C 
ATOM     12  C   LIG d   1      -0.456  84.902 112.075  0.00  0.00     0.006 C 
ENDBRANCH   8  11
ENDBRANCH   7   8
ENDBRANCH   1   7
BRANCH   6  13
ATOM     13  N   LIG d   1      -0.326  79.345 111.151  0.00  0.00    -0.311 N 
ATOM     14  C   LIG d   1      -1.539  79.411 111.697  0.00  0.00     0.210 C 
ATOM     15  C   LIG d   1      -2.094  78.075 112.202  0.00  0.00     0.109 C 
ATOM     16  O   LIG d   1      -2.221  80.443 111.783  0.00  0.00    -0.276 OA
ATOM     17  H   LIG d   1       0.142  78.461 111.093  0.00  0.00     0.149 HD
ENDBRANCH   6  13
BRANCH   5  18
ATOM     18  N   LIG d   1      -0.182  80.118 108.198  0.00  0.00     0.381 N 
ATOM     19  H   LIG d   1       0.200  79.851 107.313  0.00  0.00    -0.090 HD
ATOM     20  H   LIG d   1      -0.669  80.989 108.082  0.00  0.00    -0.090 HD
ATOM     21  H   LIG d   1      -0.811  79.417 108.522  0.00  0.00    -0.090 HD
ENDBRANCH   5  18
BRANCH   3  22
ATOM     22  C   LIG d   1       3.849  82.514 109.175  0.00  0.00     0.382 C 
ATOM     23  O   LIG d   1       4.263  83.573 109.703  0.00  0.00    -0.241 OA
ATOM     24  O   LIG d   1       4.449  82.045 108.189  0.00  0.00    -0.241 OA
ENDBRANCH   3  22
TORSDOF 7
ENDMDL
