MODEL 1
REMARK VINA RESULT:      -6.5      0.000      0.000
REMARK  7 active torsions:
REMARK  status: ('A' for Active; 'I' for Inactive)
REMARK    1  A    between atoms: C_2  and  C_3 
REMARK    2  A    between atoms: C_3  and  O_6 
REMARK    3  A    between atoms: C_3  and  C_4 
REMARK    4  A    between atoms: C_7  and  O_6 
REMARK    5  A    between atoms: C_9  and  C_10 
REMARK    6  A    between atoms: N_15  and  C_14 
REMARK    7  A    between atoms: N_20  and  C_19 
REMARK       I    between atoms: C_22  and  N_20 
ROOT
ATOM      1  C   LIG d   1       1.267  83.127 111.554  0.00  0.00     0.161 C 
ATOM      2  C   LIG d   1       2.214  82.924 110.536  0.00  0.00     0.016 C 
ATOM      3  C   LIG d   1       2.225  81.784 109.701  0.00  0.00     0.038 C 
ATOM      4  C   LIG d   1       1.193  80.834 109.728  0.00  0.00     0.028 C 
ATOM      5  C   LIG d   1       0.493  80.739 111.079  0.00  0.00    -0.047 C 
ATOM      6  C   LIG d   1       0.068  82.157 111.525  0.00  0.00     0.091 C 
ENDROOT
BRANCH   1   7
ATOM      7  O   LIG d   1       0.807  84.493 111.529  0.00  0.00    -0.368 OA
BRANCH   7   8
ATOM      8  C   LIG d   1       1.459  85.367 110.574  0.00  0.00     0.119 C 
BRANCH   8   9
ATOM      9  C   LIG d   1       2.056  86.549 111.362  0.00  0.00     0.028 C 
ATOM     10  C   LIG d   1       3.552  86.357 111.664  0.00  0.00     0.006 C 
ENDBRANCH   8   9
BRANCH   8  11
ATOM     11  C   LIG d   1       0.447  85.993 109.610  0.00  0.00     0.028 C 
ATOM     12  C   LIG d   1      -1.010  85.700 110.002  0.00  0.00     0.006 C 
ENDBRANCH   8  11
ENDBRANCH   7   8
ENDBRANCH   1   7
BRANCH   6  13
ATOM     13  N   LIG d   1      -0.549  82.164 112.877  0.00  0.00    -0.311 N 
ATOM     14  C   LIG d   1      -1.862  82.077 113.084  0.00  0.00     0.210 C 
ATOM     15  C   LIG d   1      -2.290  82.123 114.554  0.00  0.00     0.109 C 
ATOM     16  O   LIG d   1      -2.711  81.933 112.191  0.00  0.00    -0.276 OA
ATOM     17  H   LIG d   1       0.069  82.246 113.661  0.00  0.00     0.149 HD
ENDBRANCH   6  13
BRANCH   5  18
ATOM     18  N   LIG d   1      -0.647  79.815 110.927  0.00  0.00     0.381 N 
ATOM     19  H   LIG d   1      -1.238  80.127 110.182  0.00  0.00    -0.090 HD
ATOM     20  H   LIG d   1      -1.183  79.817 111.777  0.00  0.00    -0.090 HD
ATOM     21  H   LIG d   1      -0.317  78.895 110.736  0.00  0.00    -0.090 HD
ENDBRANCH   5  18
BRANCH   3  22
ATOM     22  C   LIG d   1       3.300  81.564 108.853  0.00  0.00     0.382 C 
ATOM     23  O   LIG d   1       3.358  82.155 107.748  0.00  0.00    -0.241 OA
ATOM     24  O   LIG d   1       4.190  80.748 109.159  0.00  0.00    -0.241 OA
ENDBRANCH   3  22
TORSDOF 7
ENDMDL
MODEL 2
REMARK VINA RESULT:      -6.3      1.611      4.935
REMARK  7 active torsions:
REMARK  status: ('A' for Active; 'I' for Inactive)
REMARK    1  A    between atoms: C_2  and  C_3 
REMARK    2  A    between atoms: C_3  and  O_6 
REMARK    3  A    between atoms: C_3  and  C_4 
REMARK    4  A    between atoms: C_7  and  O_6 
REMARK    5  A    between atoms: C_9  and  C_10 
REMARK    6  A    between atoms: N_15  and  C_14 
REMARK    7  A    between atoms: N_20  and  C_19 
REMARK       I    between atoms: C_22  and  N_20 
ROOT
ATOM      1  C   LIG d   1       0.198  82.951 111.478  0.00  0.00     0.161 C 
ATOM      2  C   LIG d   1      -0.954  82.619 112.211  0.00  0.00     0.016 C 
ATOM      3  C   LIG d   1      -1.475  81.307 112.287  0.00  0.00     0.038 C 
ATOM      4  C   LIG d   1      -0.790  80.204 111.756  0.00  0.00     0.028 C 
ATOM      5  C   LIG d   1       0.111  80.561 110.579  0.00  0.00    -0.047 C 
ATOM      6  C   LIG d   1       1.021  81.744 110.983  0.00  0.00     0.091 C 
ENDROOT
BRANCH   1   7
ATOM      7  O   LIG d   1       1.028  83.841 112.250  0.00  0.00    -0.368 OA
BRANCH   7   8
ATOM      8  C   LIG d   1       1.131  85.201 111.761  0.00  0.00     0.119 C 
BRANCH   8   9
ATOM      9  C   LIG d   1       0.185  85.332 110.552  0.00  0.00     0.028 C 
ATOM     10  C   LIG d   1      -0.873  86.430 110.750  0.00  0.00     0.006 C 
ENDBRANCH   8   9
BRANCH   8  11
ATOM     11  C   LIG d   1       2.532  85.491 111.212  0.00  0.00     0.028 C 
ATOM     12  C   LIG d   1       3.632  84.707 111.944  0.00  0.00     0.006 C 
ENDBRANCH   8  11
ENDBRANCH   7   8
ENDBRANCH   1   7
BRANCH   6  13
ATOM     13  N   LIG d   1       1.876  82.211 109.861  0.00  0.00    -0.311 N 
ATOM     14  C   LIG d   1       3.133  81.810 109.681  0.00  0.00     0.210 C 
ATOM     15  C   LIG d   1       3.842  82.430 108.473  0.00  0.00     0.109 C 
ATOM     16  O   LIG d   1       3.718  80.976 110.388  0.00  0.00    -0.276 OA
ATOM     17  H   LIG d   1       1.470  82.866 109.221  0.00  0.00     0.149 HD
ENDBRANCH   6  13
BRANCH   5  18
ATOM     18  N   LIG d   1       0.868  79.349 110.213  0.00  0.00     0.381 N 
ATOM     19  H   LIG d   1       0.572  78.580 110.781  0.00  0.00    -0.090 HD
ATOM     20  H   LIG d   1       1.844  79.511 110.385  0.00  0.00    -0.090 HD
ATOM     21  H   LIG d   1       0.723  79.134 109.251  0.00  0.00    -0.090 HD
ENDBRANCH   5  18
BRANCH   3  22
ATOM     22  C   LIG d   1      -2.716  81.093 112.868  0.00  0.00     0.382 C 
ATOM     23  O   LIG d   1      -2.898  80.099 113.611  0.00  0.00    -0.241 OA
ATOM     24  O   LIG d   1      -3.669  81.857 112.621  0.00  0.00    -0.241 OA
ENDBRANCH   3  22
TORSDOF 7
ENDMDL
MODEL 3
REMARK VINA RESULT:      -5.9      1.100      2.010
REMARK  7 active torsions:
REMARK  status: ('A' for Active; 'I' for Inactive)
REMARK    1  A    between atoms: C_2  and  C_3 
REMARK    2  A    between atoms: C_3  and  O_6 
REMARK    3  A    between atoms: C_3  and  C_4 
REMARK    4  A    between atoms: C_7  and  O_6 
REMARK    5  A    between atoms: C_9  and  C_10 
REMARK    6  A    between atoms: N_15  and  C_14 
REMARK    7  A    between atoms: N_20  and  C_19 
REMARK       I    between atoms: C_22  and  N_20 
ROOT
ATOM      1  C   LIG d   1       1.748  83.148 111.524  0.00  0.00     0.161 C 
ATOM      2  C   LIG d   1       2.719  82.914 110.536  0.00  0.00     0.016 C 
ATOM      3  C   LIG d   1       2.719  81.776 109.698  0.00  0.00     0.038 C 
ATOM      4  C   LIG d   1       1.654  80.863 109.688  0.00  0.00     0.028 C 
ATOM      5  C   LIG d   1       0.907  80.789 111.016  0.00  0.00    -0.047 C 
ATOM      6  C   LIG d   1       0.517  82.220 111.453  0.00  0.00     0.091 C 
ENDROOT
BRANCH   1   7
ATOM      7  O   LIG d   1       1.336  84.529 111.487  0.00  0.00    -0.368 OA
BRANCH   7   8
ATOM      8  C   LIG d   1       1.716  85.338 112.628  0.00  0.00     0.119 C 
BRANCH   8   9
ATOM      9  C   LIG d   1       0.420  85.787 113.329  0.00  0.00     0.028 C 
ATOM     10  C   LIG d   1      -0.775  85.858 112.364  0.00  0.00     0.006 C 
ENDBRANCH   8   9
BRANCH   8  11
ATOM     11  C   LIG d   1       2.408  86.631 112.188  0.00  0.00     0.028 C 
ATOM     12  C   LIG d   1       3.840  86.398 111.680  0.00  0.00     0.006 C 
ENDBRANCH   8  11
ENDBRANCH   7   8
ENDBRANCH   1   7
BRANCH   6  13
ATOM     13  N   LIG d   1      -0.143  82.246 112.784  0.00  0.00    -0.311 N 
ATOM     14  C   LIG d   1      -1.465  82.284 112.946  0.00  0.00     0.210 C 
ATOM     15  C   LIG d   1      -1.936  82.326 114.403  0.00  0.00     0.109 C 
ATOM     16  O   LIG d   1      -2.292  82.253 112.022  0.00  0.00    -0.276 OA
ATOM     17  H   LIG d   1       0.452  82.241 113.589  0.00  0.00     0.149 HD
ENDBRANCH   6  13
BRANCH   5  18
ATOM     18  N   LIG d   1      -0.258  79.906 110.824  0.00  0.00     0.381 N 
ATOM     19  H   LIG d   1      -0.305  79.240 111.569  0.00  0.00    -0.090 HD
ATOM     20  H   LIG d   1      -0.148  79.405 109.959  0.00  0.00    -0.090 HD
ATOM     21  H   LIG d   1      -1.095  80.446 110.798  0.00  0.00    -0.090 HD
ENDBRANCH   5  18
BRANCH   3  22
ATOM     22  C   LIG d   1       3.812  81.521 108.884  0.00  0.00     0.382 C 
ATOM     23  O   LIG d   1       4.359  80.392 108.905  0.00  0.00    -0.241 OA
ATOM     24  O   LIG d   1       4.286  82.419 108.163  0.00  0.00    -0.241 OA
ENDBRANCH   3  22
TORSDOF 7
ENDMDL
MODEL 4
REMARK VINA RESULT:      -5.1      1.702      2.290
REMARK  7 active torsions:
REMARK  status: ('A' for Active; 'I' for Inactive)
REMARK    1  A    between atoms: C_2  and  C_3 
REMARK    2  A    between atoms: C_3  and  O_6 
REMARK    3  A    between atoms: C_3  and  C_4 
REMARK    4  A    between atoms: C_7  and  O_6 
REMARK    5  A    between atoms: C_9  and  C_10 
REMARK    6  A    between atoms: N_15  and  C_14 
REMARK    7  A    between atoms: N_20  and  C_19 
REMARK       I    between atoms: C_22  and  N_20 
ROOT
ATOM      1  C   LIG d   1       1.244  83.433 111.041  0.00  0.00     0.161 C 
ATOM      2  C   LIG d   1       2.518  83.358 110.455  0.00  0.00     0.016 C 
ATOM      3  C   LIG d   1       2.847  82.451 109.421  0.00  0.00     0.038 C 
ATOM      4  C   LIG d   1       1.875  81.655 108.796  0.00  0.00     0.028 C 
ATOM      5  C   LIG d   1       0.685  81.335 109.695  0.00  0.00    -0.047 C 
ATOM      6  C   LIG d   1       0.142  82.651 110.297  0.00  0.00     0.091 C 
ENDROOT
BRANCH   1   7
ATOM      7  O   LIG d   1       0.859  84.813 111.199  0.00  0.00    -0.368 OA
BRANCH   7   8
ATOM      8  C   LIG d   1      -0.562  85.069 111.321  0.00  0.00     0.119 C 
BRANCH   8   9
ATOM      9  C   LIG d   1      -0.944  86.092 110.234  0.00  0.00     0.028 C 
ATOM     10  C   LIG d   1      -0.082  85.951 108.967  0.00  0.00     0.006 C 
ENDBRANCH   8   9
BRANCH   8  11
ATOM     11  C   LIG d   1      -0.893  85.750 112.653  0.00  0.00     0.028 C 
ATOM     12  C   LIG d   1      -0.468  84.915 113.871  0.00  0.00     0.006 C 
ENDBRANCH   8  11
ENDBRANCH   7   8
ENDBRANCH   1   7
BRANCH   6  13
ATOM     13  N   LIG d   1      -0.970  82.419 111.255  0.00  0.00    -0.311 N 
ATOM     14  C   LIG d   1      -0.887  81.580 112.286  0.00  0.00     0.210 C 
ATOM     15  C   LIG d   1      -2.156  81.475 113.138  0.00  0.00     0.109 C 
ATOM     16  O   LIG d   1       0.128  80.937 112.595  0.00  0.00    -0.276 OA
ATOM     17  H   LIG d   1      -1.821  82.924 111.097  0.00  0.00     0.149 HD
ENDBRANCH   6  13
BRANCH   5  18
ATOM     18  N   LIG d   1      -0.311  80.619 108.876  0.00  0.00     0.381 N 
ATOM     19  H   LIG d   1      -1.222  80.996 109.045  0.00  0.00    -0.090 HD
ATOM     20  H   LIG d   1      -0.316  79.650 109.144  0.00  0.00    -0.090 HD
ATOM     21  H   LIG d   1      -0.083  80.703 107.910  0.00  0.00    -0.090 HD
ENDBRANCH   5  18
BRANCH   3  22
ATOM     22  C   LIG d   1       4.169  82.305 109.030  0.00  0.00     0.382 C 
ATOM     23  O   LIG d   1       4.700  81.168 109.027  0.00  0.00    -0.241 OA
ATOM     24  O   LIG d   1       4.851  83.301 108.722  0.00  0.00    -0.241 OA
ENDBRANCH   3  22
TORSDOF 7
ENDMDL
MODEL 5
REMARK VINA RESULT:      -4.9      2.623      5.348
REMARK  7 active torsions:
REMARK  status: ('A' for Active; 'I' for Inactive)
REMARK    1  A    between atoms: C_2  and  C_3 
REMARK    2  A    between atoms: C_3  and  O_6 
REMARK    3  A    between atoms: C_3  and  C_4 
REMARK    4  A    between atoms: C_7  and  O_6 
REMARK    5  A    between atoms: C_9  and  C_10 
REMARK    6  A    between atoms: N_15  and  C_14 
REMARK    7  A    between atoms: N_20  and  C_19 
REMARK       I    between atoms: C_22  and  N_20 
ROOT
ATOM      1  C   LIG d   1       1.484  83.975 112.026  0.00  0.00     0.161 C 
ATOM      2  C   LIG d   1       0.449  83.026 112.072  0.00  0.00     0.016 C 
ATOM      3  C   LIG d   1      -0.706  83.173 112.873  0.00  0.00     0.038 C 
ATOM      4  C   LIG d   1      -0.978  84.358 113.573  0.00  0.00     0.028 C 
ATOM      5  C   LIG d   1       0.277  85.136 113.956  0.00  0.00    -0.047 C 
ATOM      6  C   LIG d   1       1.154  85.325 112.697  0.00  0.00     0.091 C 
ENDROOT
BRANCH   1   7
ATOM      7  O   LIG d   1       1.898  84.181 110.661  0.00  0.00    -0.368 OA
BRANCH   7   8
ATOM      8  C   LIG d   1       0.861  84.063 109.656  0.00  0.00     0.119 C 
BRANCH   8   9
ATOM      9  C   LIG d   1       1.484  83.374 108.427  0.00  0.00     0.028 C 
ATOM     10  C   LIG d   1       2.409  82.208 108.814  0.00  0.00     0.006 C 
ENDBRANCH   8   9
BRANCH   8  11
ATOM     11  C   LIG d   1       0.405  85.439 109.162  0.00  0.00     0.028 C 
ATOM     12  C   LIG d   1      -0.986  85.830 109.685  0.00  0.00     0.006 C 
ENDBRANCH   8  11
ENDBRANCH   7   8
ENDBRANCH   1   7
BRANCH   6  13
ATOM     13  N   LIG d   1       2.441  86.003 113.000  0.00  0.00    -0.311 N 
ATOM     14  C   LIG d   1       2.845  87.116 112.389  0.00  0.00     0.210 C 
ATOM     15  C   LIG d   1       4.213  87.640 112.837  0.00  0.00     0.109 C 
ATOM     16  O   LIG d   1       2.185  87.737 111.542  0.00  0.00    -0.276 OA
ATOM     17  H   LIG d   1       3.025  85.584 113.697  0.00  0.00     0.149 HD
ENDBRANCH   6  13
BRANCH   5  18
ATOM     18  N   LIG d   1      -0.156  86.413 114.555  0.00  0.00     0.381 N 
ATOM     19  H   LIG d   1       0.172  87.177 113.999  0.00  0.00    -0.090 HD
ATOM     20  H   LIG d   1       0.247  86.495 115.472  0.00  0.00    -0.090 HD
ATOM     21  H   LIG d   1      -1.150  86.440 114.617  0.00  0.00    -0.090 HD
ENDBRANCH   5  18
BRANCH   3  22
ATOM     22  C   LIG d   1      -1.586  82.110 113.012  0.00  0.00     0.382 C 
ATOM     23  O   LIG d   1      -1.330  81.186 113.820  0.00  0.00    -0.241 OA
ATOM     24  O   LIG d   1      -2.610  82.042 112.306  0.00  0.00    -0.241 OA
ENDBRANCH   3  22
TORSDOF 7
ENDMDL
MODEL 6
REMARK VINA RESULT:      -4.6      2.119      4.761
REMARK  7 active torsions:
REMARK  status: ('A' for Active; 'I' for Inactive)
REMARK    1  A    between atoms: C_2  and  C_3 
REMARK    2  A    between atoms: C_3  and  O_6 
REMARK    3  A    between atoms: C_3  and  C_4 
REMARK    4  A    between atoms: C_7  and  O_6 
REMARK    5  A    between atoms: C_9  and  C_10 
REMARK    6  A    between atoms: N_15  and  C_14 
REMARK    7  A    between atoms: N_20  and  C_19 
REMARK       I    between atoms: C_22  and  N_20 
ROOT
ATOM      1  C   LIG d   1       0.187  83.077 111.704  0.00  0.00     0.161 C 
ATOM      2  C   LIG d   1      -1.111  82.641 112.017  0.00  0.00     0.016 C 
ATOM      3  C   LIG d   1      -1.386  81.645 112.982  0.00  0.00     0.038 C 
ATOM      4  C   LIG d   1      -0.384  81.120 113.812  0.00  0.00     0.028 C 
ATOM      5  C   LIG d   1       1.005  81.163 113.185  0.00  0.00    -0.047 C 
ATOM      6  C   LIG d   1       1.283  82.596 112.677  0.00  0.00     0.091 C 
ENDROOT
BRANCH   1   7
ATOM      7  O   LIG d   1       0.208  84.514 111.596  0.00  0.00    -0.368 OA
BRANCH   7   8
ATOM      8  C   LIG d   1      -0.434  85.075 110.425  0.00  0.00     0.119 C 
BRANCH   8   9
ATOM      9  C   LIG d   1       0.678  85.594 109.492  0.00  0.00     0.028 C 
ATOM     10  C   LIG d   1       0.140  86.004 108.110  0.00  0.00     0.006 C 
ENDBRANCH   8   9
BRANCH   8  11
ATOM     11  C   LIG d   1      -1.269  86.307 110.784  0.00  0.00     0.028 C 
ATOM     12  C   LIG d   1      -1.601  86.387 112.282  0.00  0.00     0.006 C 
ENDBRANCH   8  11
ENDBRANCH   7   8
ENDBRANCH   1   7
BRANCH   6  13
ATOM     13  N   LIG d   1       2.588  82.705 111.975  0.00  0.00    -0.311 N 
ATOM     14  C   LIG d   1       2.848  82.107 110.813  0.00  0.00     0.210 C 
ATOM     15  C   LIG d   1       4.263  82.334 110.272  0.00  0.00     0.109 C 
ATOM     16  O   LIG d   1       2.030  81.438 110.164  0.00  0.00    -0.276 OA
ATOM     17  H   LIG d   1       3.299  83.255 112.416  0.00  0.00     0.149 HD
ENDBRANCH   6  13
BRANCH   5  18
ATOM     18  N   LIG d   1       1.969  80.715 114.208  0.00  0.00     0.381 N 
ATOM     19  H   LIG d   1       2.425  79.878 113.901  0.00  0.00    -0.090 HD
ATOM     20  H   LIG d   1       1.471  80.509 115.057  0.00  0.00    -0.090 HD
ATOM     21  H   LIG d   1       2.645  81.427 114.376  0.00  0.00    -0.090 HD
ENDBRANCH   5  18
BRANCH   3  22
ATOM     22  C   LIG d   1      -2.670  81.135 113.096  0.00  0.00     0.382 C 
ATOM     23  O   LIG d   1      -3.650  81.807 112.694  0.00  0.00    -0.241 OA
ATOM     24  O   LIG d   1      -2.865  80.029 113.635  0.00  0.00    -0.241 OA
ENDBRANCH   3  22
TORSDOF 7
ENDMDL
MODEL 7
REMARK VINA RESULT:      -3.9      2.474      3.852
REMARK  7 active torsions:
REMARK  status: ('A' for Active; 'I' for Inactive)
REMARK    1  A    between atoms: C_2  and  C_3 
REMARK    2  A    between atoms: C_3  and  O_6 
REMARK    3  A    between atoms: C_3  and  C_4 
REMARK    4  A    between atoms: C_7  and  O_6 
REMARK    5  A    between atoms: C_9  and  C_10 
REMARK    6  A    between atoms: N_15  and  C_14 
REMARK    7  A    between atoms: N_20  and  C_19 
REMARK       I    between atoms: C_22  and  N_20 
ROOT
ATOM      1  C   LIG d   1       2.466  83.848 111.113  0.00  0.00     0.161 C 
ATOM      2  C   LIG d   1       2.522  82.689 110.322  0.00  0.00     0.016 C 
ATOM      3  C   LIG d   1       2.299  81.389 110.830  0.00  0.00     0.038 C 
ATOM      4  C   LIG d   1       1.852  81.172 112.142  0.00  0.00     0.028 C 
ATOM      5  C   LIG d   1       2.271  82.271 113.113  0.00  0.00    -0.047 C 
ATOM      6  C   LIG d   1       1.872  83.642 112.522  0.00  0.00     0.091 C 
ENDROOT
BRANCH   1   7
ATOM      7  O   LIG d   1       1.748  84.883 110.413  0.00  0.00    -0.368 OA
BRANCH   7   8
ATOM      8  C   LIG d   1       0.423  84.533 109.941  0.00  0.00     0.119 C 
BRANCH   8   9
ATOM      9  C   LIG d   1      -0.067  85.683 109.040  0.00  0.00     0.028 C 
ATOM     10  C   LIG d   1      -1.415  86.259 109.504  0.00  0.00     0.006 C 
ENDBRANCH   8   9
BRANCH   8  11
ATOM     11  C   LIG d   1      -0.580  84.468 111.097  0.00  0.00     0.028 C 
ATOM     12  C   LIG d   1      -1.158  83.059 111.305  0.00  0.00     0.006 C 
ENDBRANCH   8  11
ENDBRANCH   7   8
ENDBRANCH   1   7
BRANCH   6  13
ATOM     13  N   LIG d   1       2.320  84.777 113.370  0.00  0.00    -0.311 N 
ATOM     14  C   LIG d   1       3.600  85.045 113.620  0.00  0.00     0.210 C 
ATOM     15  C   LIG d   1       3.842  86.249 114.535  0.00  0.00     0.109 C 
ATOM     16  O   LIG d   1       4.559  84.419 113.144  0.00  0.00    -0.276 OA
ATOM     17  H   LIG d   1       1.608  85.356 113.771  0.00  0.00     0.149 HD
ENDBRANCH   6  13
BRANCH   5  18
ATOM     18  N   LIG d   1       1.624  81.990 114.409  0.00  0.00     0.381 N 
ATOM     19  H   LIG d   1       1.532  81.001 114.534  0.00  0.00    -0.090 HD
ATOM     20  H   LIG d   1       0.704  82.395 114.408  0.00  0.00    -0.090 HD
ATOM     21  H   LIG d   1       2.165  82.377 115.151  0.00  0.00    -0.090 HD
ENDBRANCH   5  18
BRANCH   3  22
ATOM     22  C   LIG d   1       2.561  80.285 110.033  0.00  0.00     0.382 C 
ATOM     23  O   LIG d   1       3.743  79.896 109.869  0.00  0.00    -0.241 OA
ATOM     24  O   LIG d   1       1.635  79.700 109.439  0.00  0.00    -0.241 OA
ENDBRANCH   3  22
TORSDOF 7
ENDMDL
MODEL 8
REMARK VINA RESULT:      -3.8     29.371     30.363
REMARK  7 active torsions:
REMARK  status: ('A' for Active; 'I' for Inactive)
REMARK    1  A    between atoms: C_2  and  C_3 
REMARK    2  A    between atoms: C_3  and  O_6 
REMARK    3  A    between atoms: C_3  and  C_4 
REMARK    4  A    between atoms: C_7  and  O_6 
REMARK    5  A    between atoms: C_9  and  C_10 
REMARK    6  A    between atoms: N_15  and  C_14 
REMARK    7  A    between atoms: N_20  and  C_19 
REMARK       I    between atoms: C_22  and  N_20 
ROOT
ATOM      1  C   LIG d   1     -22.423  63.453 108.720  0.00  0.00     0.161 C 
ATOM      2  C   LIG d   1     -21.232  62.948 108.172  0.00  0.00     0.016 C 
ATOM      3  C   LIG d   1     -20.799  63.232 106.856  0.00  0.00     0.038 C 
ATOM      4  C   LIG d   1     -21.457  64.167 106.045  0.00  0.00     0.028 C 
ATOM      5  C   LIG d   1     -22.940  64.316 106.371  0.00  0.00    -0.047 C 
ATOM      6  C   LIG d   1     -23.097  64.564 107.888  0.00  0.00     0.091 C 
ENDROOT
BRANCH   1   7
ATOM      7  O   LIG d   1     -22.186  63.909 110.067  0.00  0.00    -0.368 OA
BRANCH   7   8
ATOM      8  C   LIG d   1     -22.466  62.954 111.121  0.00  0.00     0.119 C 
BRANCH   8   9
ATOM      9  C   LIG d   1     -23.766  63.400 111.817  0.00  0.00     0.028 C 
ATOM     10  C   LIG d   1     -23.679  64.837 112.359  0.00  0.00     0.006 C 
ENDBRANCH   8   9
BRANCH   8  11
ATOM     11  C   LIG d   1     -21.389  62.995 112.209  0.00  0.00     0.028 C 
ATOM     12  C   LIG d   1     -19.990  62.645 111.677  0.00  0.00     0.006 C 
ENDBRANCH   8  11
ENDBRANCH   7   8
ENDBRANCH   1   7
BRANCH   6  13
ATOM     13  N   LIG d   1     -24.521  64.637 108.306  0.00  0.00    -0.311 N 
ATOM     14  C   LIG d   1     -25.031  65.653 109.001  0.00  0.00     0.210 C 
ATOM     15  C   LIG d   1     -26.517  65.520 109.346  0.00  0.00     0.109 C 
ATOM     16  O   LIG d   1     -24.400  66.667 109.336  0.00  0.00    -0.276 OA
ATOM     17  H   LIG d   1     -25.112  63.871 108.049  0.00  0.00     0.149 HD
ENDBRANCH   6  13
BRANCH   5  18
ATOM     18  N   LIG d   1     -23.469  65.418 105.546  0.00  0.00     0.381 N 
ATOM     19  H   LIG d   1     -23.105  66.291 105.873  0.00  0.00    -0.090 HD
ATOM     20  H   LIG d   1     -24.470  65.441 105.638  0.00  0.00    -0.090 HD
ATOM     21  H   LIG d   1     -23.219  65.281 104.592  0.00  0.00    -0.090 HD
ENDBRANCH   5  18
BRANCH   3  22
ATOM     22  C   LIG d   1     -19.718  62.545 106.326  0.00  0.00     0.382 C 
ATOM     23  O   LIG d   1     -18.825  62.098 107.085  0.00  0.00    -0.241 OA
ATOM     24  O   LIG d   1     -19.601  62.405 105.093  0.00  0.00    -0.241 OA
ENDBRANCH   3  22
TORSDOF 7
ENDMDL
MODEL 9
REMARK VINA RESULT:      -3.8     29.708     31.192
REMARK  7 active torsions:
REMARK  status: ('A' for Active; 'I' for Inactive)
REMARK    1  A    between atoms: C_2  and  C_3 
REMARK    2  A    between atoms: C_3  and  O_6 
REMARK    3  A    between atoms: C_3  and  C_4 
REMARK    4  A    between atoms: C_7  and  O_6 
REMARK    5  A    between atoms: C_9  and  C_10 
REMARK    6  A    between atoms: N_15  and  C_14 
REMARK    7  A    between atoms: N_20  and  C_19 
REMARK       I    between atoms: C_22  and  N_20 
ROOT
ATOM      1  C   LIG d   1     -22.351  64.559 106.362  0.00  0.00     0.161 C 
ATOM      2  C   LIG d   1     -21.303  63.640 106.186  0.00  0.00     0.016 C 
ATOM      3  C   LIG d   1     -20.890  62.729 107.186  0.00  0.00     0.038 C 
ATOM      4  C   LIG d   1     -21.602  62.571 108.384  0.00  0.00     0.028 C 
ATOM      5  C   LIG d   1     -22.358  63.826 108.810  0.00  0.00    -0.047 C 
ATOM      6  C   LIG d   1     -23.211  64.325 107.622  0.00  0.00     0.091 C 
ENDROOT
BRANCH   1   7
ATOM      7  O   LIG d   1     -23.183  64.582 105.185  0.00  0.00    -0.368 OA
BRANCH   7   8
ATOM      8  C   LIG d   1     -24.263  63.617 105.148  0.00  0.00     0.119 C 
BRANCH   8   9
ATOM      9  C   LIG d   1     -23.925  62.585 104.055  0.00  0.00     0.028 C 
ATOM     10  C   LIG d   1     -23.640  61.189 104.634  0.00  0.00     0.006 C 
ENDBRANCH   8   9
BRANCH   8  11
ATOM     11  C   LIG d   1     -25.576  64.267 104.701  0.00  0.00     0.028 C 
ATOM     12  C   LIG d   1     -26.815  63.561 105.273  0.00  0.00     0.006 C 
ENDBRANCH   8  11
ENDBRANCH   7   8
ENDBRANCH   1   7
BRANCH   6  13
ATOM     13  N   LIG d   1     -23.918  65.597 107.926  0.00  0.00    -0.311 N 
ATOM     14  C   LIG d   1     -25.185  65.652 108.331  0.00  0.00     0.210 C 
ATOM     15  C   LIG d   1     -25.726  67.065 108.570  0.00  0.00     0.109 C 
ATOM     16  O   LIG d   1     -25.904  64.664 108.545  0.00  0.00    -0.276 OA
ATOM     17  H   LIG d   1     -23.400  66.445 107.809  0.00  0.00     0.149 HD
ENDBRANCH   6  13
BRANCH   5  18
ATOM     18  N   LIG d   1     -23.164  63.480 109.996  0.00  0.00     0.381 N 
ATOM     19  H   LIG d   1     -23.669  62.633 109.827  0.00  0.00    -0.090 HD
ATOM     20  H   LIG d   1     -23.828  64.215 110.163  0.00  0.00    -0.090 HD
ATOM     21  H   LIG d   1     -22.572  63.369 110.790  0.00  0.00    -0.090 HD
ENDBRANCH   5  18
BRANCH   3  22
ATOM     22  C   LIG d   1     -19.729  61.992 107.007  0.00  0.00     0.382 C 
ATOM     23  O   LIG d   1     -19.568  60.916 107.632  0.00  0.00    -0.241 OA
ATOM     24  O   LIG d   1     -18.823  62.412 106.264  0.00  0.00    -0.241 OA
ENDBRANCH   3  22
TORSDOF 7
ENDMDL
