MODEL 1
REMARK VINA RESULT:      -5.7      0.000      0.000
REMARK  7 active torsions:
REMARK  status: ('A' for Active; 'I' for Inactive)
REMARK    1  A    between atoms: C_2  and  C_3 
REMARK    2  A    between atoms: C_3  and  O_6 
REMARK    3  A    between atoms: C_3  and  C_4 
REMARK    4  A    between atoms: C_7  and  O_6 
REMARK    5  A    between atoms: C_9  and  C_10 
REMARK    6  A    between atoms: N_15  and  C_14 
REMARK    7  A    between atoms: N_20  and  C_19 
REMARK       I    between atoms: C_22  and  N_20 
ROOT
ATOM      1  C   LIG d   1      -5.085  91.558 118.116  0.00  0.00     0.161 C 
ATOM      2  C   LIG d   1      -5.244  90.894 116.889  0.00  0.00     0.016 C 
ATOM      3  C   LIG d   1      -6.252  91.221 115.952  0.00  0.00     0.038 C 
ATOM      4  C   LIG d   1      -7.079  92.342 116.114  0.00  0.00     0.028 C 
ATOM      5  C   LIG d   1      -7.287  92.736 117.573  0.00  0.00    -0.047 C 
ATOM      6  C   LIG d   1      -5.908  92.855 118.261  0.00  0.00     0.091 C 
ENDROOT
BRANCH   1   7
ATOM      7  O   LIG d   1      -3.688  91.822 118.352  0.00  0.00    -0.368 OA
BRANCH   7   8
ATOM      8  C   LIG d   1      -3.020  90.938 119.284  0.00  0.00     0.119 C 
BRANCH   8   9
ATOM      9  C   LIG d   1      -2.319  91.818 120.336  0.00  0.00     0.028 C 
ATOM     10  C   LIG d   1      -2.349  93.311 119.967  0.00  0.00     0.006 C 
ENDBRANCH   8   9
BRANCH   8  11
ATOM     11  C   LIG d   1      -1.898  90.151 118.600  0.00  0.00     0.028 C 
ATOM     12  C   LIG d   1      -2.373  88.801 118.040  0.00  0.00     0.006 C 
ENDBRANCH   8  11
ENDBRANCH   7   8
ENDBRANCH   1   7
BRANCH   6  13
ATOM     13  N   LIG d   1      -6.024  93.155 119.712  0.00  0.00    -0.311 N 
ATOM     14  C   LIG d   1      -5.976  94.389 120.212  0.00  0.00     0.210 C 
ATOM     15  C   LIG d   1      -6.095  94.474 121.737  0.00  0.00     0.109 C 
ATOM     16  O   LIG d   1      -5.880  95.423 119.534  0.00  0.00    -0.276 OA
ATOM     17  H   LIG d   1      -6.136  92.376 120.332  0.00  0.00     0.149 HD
ENDBRANCH   6  13
BRANCH   5  18
ATOM     18  N   LIG d   1      -8.053  93.996 117.589  0.00  0.00     0.381 N 
ATOM     19  H   LIG d   1      -8.516  94.100 118.470  0.00  0.00    -0.090 HD
ATOM     20  H   LIG d   1      -8.752  93.961 116.868  0.00  0.00    -0.090 HD
ATOM     21  H   LIG d   1      -7.443  94.768 117.434  0.00  0.00    -0.090 HD
ENDBRANCH   5  18
BRANCH   3  22
ATOM     22  C   LIG d   1      -6.465  90.398 114.857  0.00  0.00     0.382 C 
ATOM     23  O   LIG d   1      -7.401  90.645 114.059  0.00  0.00    -0.241 OA
ATOM     24  O   LIG d   1      -5.760  89.386 114.680  0.00  0.00    -0.241 OA
ENDBRANCH   3  22
TORSDOF 7
ENDMDL
MODEL 2
REMARK VINA RESULT:      -5.5      1.223      2.115
REMARK  7 active torsions:
REMARK  status: ('A' for Active; 'I' for Inactive)
REMARK    1  A    between atoms: C_2  and  C_3 
REMARK    2  A    between atoms: C_3  and  O_6 
REMARK    3  A    between atoms: C_3  and  C_4 
REMARK    4  A    between atoms: C_7  and  O_6 
REMARK    5  A    between atoms: C_9  and  C_10 
REMARK    6  A    between atoms: N_15  and  C_14 
REMARK    7  A    between atoms: N_20  and  C_19 
REMARK       I    between atoms: C_22  and  N_20 
ROOT
ATOM      1  C   LIG d   1      -4.946  91.899 118.818  0.00  0.00     0.161 C 
ATOM      2  C   LIG d   1      -4.863  91.056 117.697  0.00  0.00     0.016 C 
ATOM      3  C   LIG d   1      -5.732  91.152 116.586  0.00  0.00     0.038 C 
ATOM      4  C   LIG d   1      -6.652  92.202 116.452  0.00  0.00     0.028 C 
ATOM      5  C   LIG d   1      -7.114  92.776 117.788  0.00  0.00    -0.047 C 
ATOM      6  C   LIG d   1      -5.872  93.121 118.641  0.00  0.00     0.091 C 
ENDROOT
BRANCH   1   7
ATOM      7  O   LIG d   1      -3.625  92.324 119.209  0.00  0.00    -0.368 OA
BRANCH   7   8
ATOM      8  C   LIG d   1      -3.017  93.350 118.387  0.00  0.00     0.119 C 
BRANCH   8   9
ATOM      9  C   LIG d   1      -1.608  92.859 118.002  0.00  0.00     0.028 C 
ATOM     10  C   LIG d   1      -1.250  91.520 118.668  0.00  0.00     0.006 C 
ENDBRANCH   8   9
BRANCH   8  11
ATOM     11  C   LIG d   1      -2.794  94.640 119.182  0.00  0.00     0.028 C 
ATOM     12  C   LIG d   1      -2.689  94.397 120.696  0.00  0.00     0.006 C 
ENDBRANCH   8  11
ENDBRANCH   7   8
ENDBRANCH   1   7
BRANCH   6  13
ATOM     13  N   LIG d   1      -6.234  93.610 119.997  0.00  0.00    -0.311 N 
ATOM     14  C   LIG d   1      -6.347  94.901 120.305  0.00  0.00     0.210 C 
ATOM     15  C   LIG d   1      -6.710  95.189 121.765  0.00  0.00     0.109 C 
ATOM     16  O   LIG d   1      -6.212  95.834 119.499  0.00  0.00    -0.276 OA
ATOM     17  H   LIG d   1      -6.392  92.919 120.704  0.00  0.00     0.149 HD
ENDBRANCH   6  13
BRANCH   5  18
ATOM     18  N   LIG d   1      -7.961  93.949 117.499  0.00  0.00     0.381 N 
ATOM     19  H   LIG d   1      -8.718  93.681 116.903  0.00  0.00    -0.090 HD
ATOM     20  H   LIG d   1      -7.410  94.638 117.019  0.00  0.00    -0.090 HD
ATOM     21  H   LIG d   1      -8.316  94.330 118.349  0.00  0.00    -0.090 HD
ENDBRANCH   5  18
BRANCH   3  22
ATOM     22  C   LIG d   1      -5.711  90.166 115.611  0.00  0.00     0.382 C 
ATOM     23  O   LIG d   1      -6.594  90.147 114.720  0.00  0.00    -0.241 OA
ATOM     24  O   LIG d   1      -4.846  89.270 115.637  0.00  0.00    -0.241 OA
ENDBRANCH   3  22
TORSDOF 7
ENDMDL
MODEL 3
REMARK VINA RESULT:      -5.2     14.967     17.220
REMARK  7 active torsions:
REMARK  status: ('A' for Active; 'I' for Inactive)
REMARK    1  A    between atoms: C_2  and  C_3 
REMARK    2  A    between atoms: C_3  and  O_6 
REMARK    3  A    between atoms: C_3  and  C_4 
REMARK    4  A    between atoms: C_7  and  O_6 
REMARK    5  A    between atoms: C_9  and  C_10 
REMARK    6  A    between atoms: N_15  and  C_14 
REMARK    7  A    between atoms: N_20  and  C_19 
REMARK       I    between atoms: C_22  and  N_20 
ROOT
ATOM      1  C   LIG d   1      -3.035  75.654 115.828  0.00  0.00     0.161 C 
ATOM      2  C   LIG d   1      -2.767  74.950 117.013  0.00  0.00     0.016 C 
ATOM      3  C   LIG d   1      -1.488  74.893 117.612  0.00  0.00     0.038 C 
ATOM      4  C   LIG d   1      -0.415  75.666 117.145  0.00  0.00     0.028 C 
ATOM      5  C   LIG d   1      -0.508  75.996 115.659  0.00  0.00    -0.047 C 
ATOM      6  C   LIG d   1      -1.902  76.595 115.365  0.00  0.00     0.091 C 
ENDROOT
BRANCH   1   7
ATOM      7  O   LIG d   1      -4.270  76.385 115.962  0.00  0.00    -0.368 OA
BRANCH   7   8
ATOM      8  C   LIG d   1      -5.481  75.654 115.649  0.00  0.00     0.119 C 
BRANCH   8   9
ATOM      9  C   LIG d   1      -5.454  75.338 114.141  0.00  0.00     0.028 C 
ATOM     10  C   LIG d   1      -6.184  76.404 113.306  0.00  0.00     0.006 C 
ENDBRANCH   8   9
BRANCH   8  11
ATOM     11  C   LIG d   1      -6.726  76.520 115.861  0.00  0.00     0.028 C 
ATOM     12  C   LIG d   1      -6.568  77.516 117.021  0.00  0.00     0.006 C 
ENDBRANCH   8  11
ENDBRANCH   7   8
ENDBRANCH   1   7
BRANCH   6  13
ATOM     13  N   LIG d   1      -2.108  76.868 113.918  0.00  0.00    -0.311 N 
ATOM     14  C   LIG d   1      -2.677  77.980 113.456  0.00  0.00     0.210 C 
ATOM     15  C   LIG d   1      -2.811  78.053 111.932  0.00  0.00     0.109 C 
ATOM     16  O   LIG d   1      -3.056  78.927 114.162  0.00  0.00    -0.276 OA
ATOM     17  H   LIG d   1      -1.802  76.166 113.274  0.00  0.00     0.149 HD
ENDBRANCH   6  13
BRANCH   5  18
ATOM     18  N   LIG d   1       0.597  76.919 115.338  0.00  0.00     0.381 N 
ATOM     19  H   LIG d   1       1.253  76.465 114.734  0.00  0.00    -0.090 HD
ATOM     20  H   LIG d   1       1.071  77.168 116.188  0.00  0.00    -0.090 HD
ATOM     21  H   LIG d   1       0.240  77.738 114.896  0.00  0.00    -0.090 HD
ENDBRANCH   5  18
BRANCH   3  22
ATOM     22  C   LIG d   1      -1.262  74.023 118.669  0.00  0.00     0.382 C 
ATOM     23  O   LIG d   1      -2.014  74.047 119.673  0.00  0.00    -0.241 OA
ATOM     24  O   LIG d   1      -0.290  73.245 118.650  0.00  0.00    -0.241 OA
ENDBRANCH   3  22
TORSDOF 7
ENDMDL
MODEL 4
REMARK VINA RESULT:      -5.0     27.037     29.132
REMARK  7 active torsions:
REMARK  status: ('A' for Active; 'I' for Inactive)
REMARK    1  A    between atoms: C_2  and  C_3 
REMARK    2  A    between atoms: C_3  and  O_6 
REMARK    3  A    between atoms: C_3  and  C_4 
REMARK    4  A    between atoms: C_7  and  O_6 
REMARK    5  A    between atoms: C_9  and  C_10 
REMARK    6  A    between atoms: N_15  and  C_14 
REMARK    7  A    between atoms: N_20  and  C_19 
REMARK       I    between atoms: C_22  and  N_20 
ROOT
ATOM      1  C   LIG d   1     -15.996  65.513 117.075  0.00  0.00     0.161 C 
ATOM      2  C   LIG d   1     -16.011  66.825 116.573  0.00  0.00     0.016 C 
ATOM      3  C   LIG d   1     -15.285  67.889 117.156  0.00  0.00     0.038 C 
ATOM      4  C   LIG d   1     -14.370  67.679 118.199  0.00  0.00     0.028 C 
ATOM      5  C   LIG d   1     -14.703  66.466 119.061  0.00  0.00    -0.047 C 
ATOM      6  C   LIG d   1     -14.917  65.241 118.144  0.00  0.00     0.091 C 
ENDROOT
BRANCH   1   7
ATOM      7  O   LIG d   1     -15.871  64.575 115.987  0.00  0.00    -0.368 OA
BRANCH   7   8
ATOM      8  C   LIG d   1     -17.089  63.902 115.583  0.00  0.00     0.119 C 
BRANCH   8   9
ATOM      9  C   LIG d   1     -17.043  62.475 116.161  0.00  0.00     0.028 C 
ATOM     10  C   LIG d   1     -17.584  61.424 115.176  0.00  0.00     0.006 C 
ENDBRANCH   8   9
BRANCH   8  11
ATOM     11  C   LIG d   1     -17.148  63.722 114.063  0.00  0.00     0.028 C 
ATOM     12  C   LIG d   1     -17.269  65.056 113.309  0.00  0.00     0.006 C 
ENDBRANCH   8  11
ENDBRANCH   7   8
ENDBRANCH   1   7
BRANCH   6  13
ATOM     13  N   LIG d   1     -15.329  64.031 118.901  0.00  0.00    -0.311 N 
ATOM     14  C   LIG d   1     -14.645  62.888 118.886  0.00  0.00     0.210 C 
ATOM     15  C   LIG d   1     -15.256  61.758 119.721  0.00  0.00     0.109 C 
ATOM     16  O   LIG d   1     -13.574  62.712 118.285  0.00  0.00    -0.276 OA
ATOM     17  H   LIG d   1     -16.170  64.094 119.441  0.00  0.00     0.149 HD
ENDBRANCH   6  13
BRANCH   5  18
ATOM     18  N   LIG d   1     -13.596  66.284 120.020  0.00  0.00     0.381 N 
ATOM     19  H   LIG d   1     -13.851  66.666 120.908  0.00  0.00    -0.090 HD
ATOM     20  H   LIG d   1     -12.790  66.780 119.683  0.00  0.00    -0.090 HD
ATOM     21  H   LIG d   1     -13.384  65.315 120.116  0.00  0.00    -0.090 HD
ENDBRANCH   5  18
BRANCH   3  22
ATOM     22  C   LIG d   1     -15.502  69.188 116.722  0.00  0.00     0.382 C 
ATOM     23  O   LIG d   1     -16.196  69.972 117.413  0.00  0.00    -0.241 OA
ATOM     24  O   LIG d   1     -15.049  69.572 115.627  0.00  0.00    -0.241 OA
ENDBRANCH   3  22
TORSDOF 7
ENDMDL
MODEL 5
REMARK VINA RESULT:      -4.7     27.800     29.598
REMARK  7 active torsions:
REMARK  status: ('A' for Active; 'I' for Inactive)
REMARK    1  A    between atoms: C_2  and  C_3 
REMARK    2  A    between atoms: C_3  and  O_6 
REMARK    3  A    between atoms: C_3  and  C_4 
REMARK    4  A    between atoms: C_7  and  O_6 
REMARK    5  A    between atoms: C_9  and  C_10 
REMARK    6  A    between atoms: N_15  and  C_14 
REMARK    7  A    between atoms: N_20  and  C_19 
REMARK       I    between atoms: C_22  and  N_20 
ROOT
ATOM      1  C   LIG d   1     -16.571  64.630 116.693  0.00  0.00     0.161 C 
ATOM      2  C   LIG d   1     -17.039  63.364 116.303  0.00  0.00     0.016 C 
ATOM      3  C   LIG d   1     -17.292  63.008 114.959  0.00  0.00     0.038 C 
ATOM      4  C   LIG d   1     -16.948  63.850 113.891  0.00  0.00     0.028 C 
ATOM      5  C   LIG d   1     -16.944  65.329 114.263  0.00  0.00    -0.047 C 
ATOM      6  C   LIG d   1     -16.084  65.525 115.533  0.00  0.00     0.091 C 
ENDROOT
BRANCH   1   7
ATOM      7  O   LIG d   1     -15.533  64.485 117.682  0.00  0.00    -0.368 OA
BRANCH   7   8
ATOM      8  C   LIG d   1     -15.976  64.332 119.053  0.00  0.00     0.119 C 
BRANCH   8   9
ATOM      9  C   LIG d   1     -15.472  65.556 119.842  0.00  0.00     0.028 C 
ATOM     10  C   LIG d   1     -14.363  66.318 119.096  0.00  0.00     0.006 C 
ENDBRANCH   8   9
BRANCH   8  11
ATOM     11  C   LIG d   1     -15.318  63.120 119.720  0.00  0.00     0.028 C 
ATOM     12  C   LIG d   1     -14.183  62.520 118.877  0.00  0.00     0.006 C 
ENDBRANCH   8  11
ENDBRANCH   7   8
ENDBRANCH   1   7
BRANCH   6  13
ATOM     13  N   LIG d   1     -16.096  66.931 116.014  0.00  0.00    -0.311 N 
ATOM     14  C   LIG d   1     -15.191  67.838 115.650  0.00  0.00     0.210 C 
ATOM     15  C   LIG d   1     -15.375  69.223 116.278  0.00  0.00     0.109 C 
ATOM     16  O   LIG d   1     -14.273  67.635 114.841  0.00  0.00    -0.276 OA
ATOM     17  H   LIG d   1     -16.825  67.189 116.650  0.00  0.00     0.149 HD
ENDBRANCH   6  13
BRANCH   5  18
ATOM     18  N   LIG d   1     -16.436  66.080 113.100  0.00  0.00     0.381 N 
ATOM     19  H   LIG d   1     -16.790  65.677 112.256  0.00  0.00    -0.090 HD
ATOM     20  H   LIG d   1     -15.433  66.015 113.084  0.00  0.00    -0.090 HD
ATOM     21  H   LIG d   1     -16.713  67.035 113.163  0.00  0.00    -0.090 HD
ENDBRANCH   5  18
BRANCH   3  22
ATOM     22  C   LIG d   1     -17.933  61.812 114.674  0.00  0.00     0.382 C 
ATOM     23  O   LIG d   1     -19.004  61.814 114.022  0.00  0.00    -0.241 OA
ATOM     24  O   LIG d   1     -17.476  60.733 115.099  0.00  0.00    -0.241 OA
ENDBRANCH   3  22
TORSDOF 7
ENDMDL
MODEL 6
REMARK VINA RESULT:      -4.6     10.208     11.641
REMARK  7 active torsions:
REMARK  status: ('A' for Active; 'I' for Inactive)
REMARK    1  A    between atoms: C_2  and  C_3 
REMARK    2  A    between atoms: C_3  and  O_6 
REMARK    3  A    between atoms: C_3  and  C_4 
REMARK    4  A    between atoms: C_7  and  O_6 
REMARK    5  A    between atoms: C_9  and  C_10 
REMARK    6  A    between atoms: N_15  and  C_14 
REMARK    7  A    between atoms: N_20  and  C_19 
REMARK       I    between atoms: C_22  and  N_20 
ROOT
ATOM      1  C   LIG d   1       1.675  85.733 115.035  0.00  0.00     0.161 C 
ATOM      2  C   LIG d   1       2.424  86.496 114.124  0.00  0.00     0.016 C 
ATOM      3  C   LIG d   1       3.688  87.051 114.429  0.00  0.00     0.038 C 
ATOM      4  C   LIG d   1       4.361  86.752 115.623  0.00  0.00     0.028 C 
ATOM      5  C   LIG d   1       3.424  86.400 116.774  0.00  0.00    -0.047 C 
ATOM      6  C   LIG d   1       2.441  85.304 116.303  0.00  0.00     0.091 C 
ENDROOT
BRANCH   1   7
ATOM      7  O   LIG d   1       1.122  84.580 114.369  0.00  0.00    -0.368 OA
BRANCH   7   8
ATOM      8  C   LIG d   1       1.900  84.047 113.269  0.00  0.00     0.119 C 
BRANCH   8   9
ATOM      9  C   LIG d   1       0.917  83.700 112.133  0.00  0.00     0.028 C 
ATOM     10  C   LIG d   1      -0.462  84.352 112.331  0.00  0.00     0.006 C 
ENDBRANCH   8   9
BRANCH   8  11
ATOM     11  C   LIG d   1       2.565  82.721 113.648  0.00  0.00     0.028 C 
ATOM     12  C   LIG d   1       4.051  82.881 114.006  0.00  0.00     0.006 C 
ENDBRANCH   8  11
ENDBRANCH   7   8
ENDBRANCH   1   7
BRANCH   6  13
ATOM     13  N   LIG d   1       1.435  84.961 117.342  0.00  0.00    -0.311 N 
ATOM     14  C   LIG d   1       1.074  83.711 117.629  0.00  0.00     0.210 C 
ATOM     15  C   LIG d   1       0.006  83.581 118.719  0.00  0.00     0.109 C 
ATOM     16  O   LIG d   1       1.560  82.697 117.106  0.00  0.00    -0.276 OA
ATOM     17  H   LIG d   1       1.013  85.722 117.837  0.00  0.00     0.149 HD
ENDBRANCH   6  13
BRANCH   5  18
ATOM     18  N   LIG d   1       4.258  85.978 117.915  0.00  0.00     0.381 N 
ATOM     19  H   LIG d   1       5.203  86.274 117.771  0.00  0.00    -0.090 HD
ATOM     20  H   LIG d   1       4.247  84.975 117.972  0.00  0.00    -0.090 HD
ATOM     21  H   LIG d   1       3.904  86.370 118.760  0.00  0.00    -0.090 HD
ENDBRANCH   5  18
BRANCH   3  22
ATOM     22  C   LIG d   1       4.275  87.948 113.549  0.00  0.00     0.382 C 
ATOM     23  O   LIG d   1       5.180  87.561 112.770  0.00  0.00    -0.241 OA
ATOM     24  O   LIG d   1       3.943  89.148 113.556  0.00  0.00    -0.241 OA
ENDBRANCH   3  22
TORSDOF 7
ENDMDL
MODEL 7
REMARK VINA RESULT:      -4.5     20.815     23.869
REMARK  7 active torsions:
REMARK  status: ('A' for Active; 'I' for Inactive)
REMARK    1  A    between atoms: C_2  and  C_3 
REMARK    2  A    between atoms: C_3  and  O_6 
REMARK    3  A    between atoms: C_3  and  C_4 
REMARK    4  A    between atoms: C_7  and  O_6 
REMARK    5  A    between atoms: C_9  and  C_10 
REMARK    6  A    between atoms: N_15  and  C_14 
REMARK    7  A    between atoms: N_20  and  C_19 
REMARK       I    between atoms: C_22  and  N_20 
ROOT
ATOM      1  C   LIG d   1      11.703  76.488 113.939  0.00  0.00     0.161 C 
ATOM      2  C   LIG d   1      10.536  77.174 114.317  0.00  0.00     0.016 C 
ATOM      3  C   LIG d   1       9.861  76.945 115.538  0.00  0.00     0.038 C 
ATOM      4  C   LIG d   1      10.394  76.117 116.537  0.00  0.00     0.028 C 
ATOM      5  C   LIG d   1      11.304  75.022 115.993  0.00  0.00    -0.047 C 
ATOM      6  C   LIG d   1      12.361  75.662 115.063  0.00  0.00     0.091 C 
ENDROOT
BRANCH   1   7
ATOM      7  O   LIG d   1      12.653  77.414 113.376  0.00  0.00    -0.368 OA
BRANCH   7   8
ATOM      8  C   LIG d   1      13.391  78.225 114.323  0.00  0.00     0.119 C 
BRANCH   8   9
ATOM      9  C   LIG d   1      13.066  79.701 114.021  0.00  0.00     0.028 C 
ATOM     10  C   LIG d   1      12.555  79.907 112.585  0.00  0.00     0.006 C 
ENDBRANCH   8   9
BRANCH   8  11
ATOM     11  C   LIG d   1      14.902  78.091 114.112  0.00  0.00     0.028 C 
ATOM     12  C   LIG d   1      15.259  77.311 112.837  0.00  0.00     0.006 C 
ENDBRANCH   8  11
ENDBRANCH   7   8
ENDBRANCH   1   7
BRANCH   6  13
ATOM     13  N   LIG d   1      13.240  74.650 114.422  0.00  0.00    -0.311 N 
ATOM     14  C   LIG d   1      14.439  74.315 114.895  0.00  0.00     0.210 C 
ATOM     15  C   LIG d   1      15.189  73.264 114.071  0.00  0.00     0.109 C 
ATOM     16  O   LIG d   1      14.939  74.765 115.938  0.00  0.00    -0.276 OA
ATOM     17  H   LIG d   1      12.899  74.212 113.588  0.00  0.00     0.149 HD
ENDBRANCH   6  13
BRANCH   5  18
ATOM     18  N   LIG d   1      11.899  74.322 117.147  0.00  0.00     0.381 N 
ATOM     19  H   LIG d   1      12.176  74.987 117.841  0.00  0.00    -0.090 HD
ATOM     20  H   LIG d   1      12.717  73.826 116.841  0.00  0.00    -0.090 HD
ATOM     21  H   LIG d   1      11.240  73.682 117.534  0.00  0.00    -0.090 HD
ENDBRANCH   5  18
BRANCH   3  22
ATOM     22  C   LIG d   1       8.617  77.519 115.753  0.00  0.00     0.382 C 
ATOM     23  O   LIG d   1       7.833  77.695 114.789  0.00  0.00    -0.241 OA
ATOM     24  O   LIG d   1       8.285  77.902 116.891  0.00  0.00    -0.241 OA
ENDBRANCH   3  22
TORSDOF 7
ENDMDL
MODEL 8
REMARK VINA RESULT:      -4.5      5.597      8.253
REMARK  7 active torsions:
REMARK  status: ('A' for Active; 'I' for Inactive)
REMARK    1  A    between atoms: C_2  and  C_3 
REMARK    2  A    between atoms: C_3  and  O_6 
REMARK    3  A    between atoms: C_3  and  C_4 
REMARK    4  A    between atoms: C_7  and  O_6 
REMARK    5  A    between atoms: C_9  and  C_10 
REMARK    6  A    between atoms: N_15  and  C_14 
REMARK    7  A    between atoms: N_20  and  C_19 
REMARK       I    between atoms: C_22  and  N_20 
ROOT
ATOM      1  C   LIG d   1       0.990  88.392 117.064  0.00  0.00     0.161 C 
ATOM      2  C   LIG d   1      -0.409  88.272 117.120  0.00  0.00     0.016 C 
ATOM      3  C   LIG d   1      -1.236  89.147 117.861  0.00  0.00     0.038 C 
ATOM      4  C   LIG d   1      -0.730  90.300 118.479  0.00  0.00     0.028 C 
ATOM      5  C   LIG d   1       0.740  90.182 118.870  0.00  0.00    -0.047 C 
ATOM      6  C   LIG d   1       1.549  89.709 117.641  0.00  0.00     0.091 C 
ENDROOT
BRANCH   1   7
ATOM      7  O   LIG d   1       1.442  88.206 115.709  0.00  0.00    -0.368 OA
BRANCH   7   8
ATOM      8  C   LIG d   1       2.441  87.176 115.505  0.00  0.00     0.119 C 
BRANCH   8   9
ATOM      9  C   LIG d   1       3.589  87.799 114.689  0.00  0.00     0.028 C 
ATOM     10  C   LIG d   1       4.974  87.440 115.255  0.00  0.00     0.006 C 
ENDBRANCH   8   9
BRANCH   8  11
ATOM     11  C   LIG d   1       1.897  86.038 114.636  0.00  0.00     0.028 C 
ATOM     12  C   LIG d   1       1.785  84.708 115.398  0.00  0.00     0.006 C 
ENDBRANCH   8  11
ENDBRANCH   7   8
ENDBRANCH   1   7
BRANCH   6  13
ATOM     13  N   LIG d   1       2.984  89.487 117.959  0.00  0.00    -0.311 N 
ATOM     14  C   LIG d   1       3.922  90.420 117.802  0.00  0.00     0.210 C 
ATOM     15  C   LIG d   1       5.342  89.977 118.171  0.00  0.00     0.109 C 
ATOM     16  O   LIG d   1       3.709  91.581 117.424  0.00  0.00    -0.276 OA
ATOM     17  H   LIG d   1       3.241  88.582 118.302  0.00  0.00     0.149 HD
ENDBRANCH   6  13
BRANCH   5  18
ATOM     18  N   LIG d   1       1.173  91.499 119.376  0.00  0.00     0.381 N 
ATOM     19  H   LIG d   1       0.395  92.127 119.396  0.00  0.00    -0.090 HD
ATOM     20  H   LIG d   1       1.866  91.874 118.752  0.00  0.00    -0.090 HD
ATOM     21  H   LIG d   1       1.555  91.403 120.291  0.00  0.00    -0.090 HD
ENDBRANCH   5  18
BRANCH   3  22
ATOM     22  C   LIG d   1      -2.580  88.849 118.023  0.00  0.00     0.382 C 
ATOM     23  O   LIG d   1      -2.965  88.217 119.037  0.00  0.00    -0.241 OA
ATOM     24  O   LIG d   1      -3.407  89.165 117.147  0.00  0.00    -0.241 OA
ENDBRANCH   3  22
TORSDOF 7
ENDMDL
MODEL 9
REMARK VINA RESULT:      -4.5     11.372     13.292
REMARK  7 active torsions:
REMARK  status: ('A' for Active; 'I' for Inactive)
REMARK    1  A    between atoms: C_2  and  C_3 
REMARK    2  A    between atoms: C_3  and  O_6 
REMARK    3  A    between atoms: C_3  and  C_4 
REMARK    4  A    between atoms: C_7  and  O_6 
REMARK    5  A    between atoms: C_9  and  C_10 
REMARK    6  A    between atoms: N_15  and  C_14 
REMARK    7  A    between atoms: N_20  and  C_19 
REMARK       I    between atoms: C_22  and  N_20 
ROOT
ATOM      1  C   LIG d   1       3.627  84.528 114.992  0.00  0.00     0.161 C 
ATOM      2  C   LIG d   1       3.369  85.616 114.141  0.00  0.00     0.016 C 
ATOM      3  C   LIG d   1       4.041  86.856 114.239  0.00  0.00     0.038 C 
ATOM      4  C   LIG d   1       5.130  87.044 115.103  0.00  0.00     0.028 C 
ATOM      5  C   LIG d   1       5.092  86.138 116.329  0.00  0.00    -0.047 C 
ATOM      6  C   LIG d   1       4.888  84.677 115.868  0.00  0.00     0.091 C 
ENDROOT
BRANCH   1   7
ATOM      7  O   LIG d   1       3.692  83.311 114.223  0.00  0.00    -0.368 OA
BRANCH   7   8
ATOM      8  C   LIG d   1       2.937  83.297 112.986  0.00  0.00     0.119 C 
BRANCH   8   9
ATOM      9  C   LIG d   1       1.540  82.728 113.303  0.00  0.00     0.028 C 
ATOM     10  C   LIG d   1       1.490  81.196 113.184  0.00  0.00     0.006 C 
ENDBRANCH   8   9
BRANCH   8  11
ATOM     11  C   LIG d   1       3.549  82.327 111.971  0.00  0.00     0.028 C 
ATOM     12  C   LIG d   1       5.084  82.278 112.043  0.00  0.00     0.006 C 
ENDBRANCH   8  11
ENDBRANCH   7   8
ENDBRANCH   1   7
BRANCH   6  13
ATOM     13  N   LIG d   1       4.756  83.735 117.010  0.00  0.00    -0.311 N 
ATOM     14  C   LIG d   1       5.760  82.984 117.461  0.00  0.00     0.210 C 
ATOM     15  C   LIG d   1       5.404  82.067 118.636  0.00  0.00     0.109 C 
ATOM     16  O   LIG d   1       6.919  83.015 117.021  0.00  0.00    -0.276 OA
ATOM     17  H   LIG d   1       3.858  83.670 117.447  0.00  0.00     0.149 HD
ENDBRANCH   6  13
BRANCH   5  18
ATOM     18  N   LIG d   1       6.352  86.340 117.071  0.00  0.00     0.381 N 
ATOM     19  H   LIG d   1       6.916  87.019 116.601  0.00  0.00    -0.090 HD
ATOM     20  H   LIG d   1       6.858  85.472 117.094  0.00  0.00    -0.090 HD
ATOM     21  H   LIG d   1       6.156  86.644 117.999  0.00  0.00    -0.090 HD
ENDBRANCH   5  18
BRANCH   3  22
ATOM     22  C   LIG d   1       3.597  87.938 113.493  0.00  0.00     0.382 C 
ATOM     23  O   LIG d   1       2.731  87.772 112.601  0.00  0.00    -0.241 OA
ATOM     24  O   LIG d   1       4.085  89.070 113.672  0.00  0.00    -0.241 OA
ENDBRANCH   3  22
TORSDOF 7
ENDMDL
