MODEL 1
REMARK VINA RESULT:      -4.6      0.000      0.000
REMARK  7 active torsions:
REMARK  status: ('A' for Active; 'I' for Inactive)
REMARK    1  A    between atoms: C_2  and  C_3 
REMARK    2  A    between atoms: C_3  and  O_6 
REMARK    3  A    between atoms: C_3  and  C_4 
REMARK    4  A    between atoms: C_7  and  O_6 
REMARK    5  A    between atoms: C_9  and  C_10 
REMARK    6  A    between atoms: N_15  and  C_14 
REMARK    7  A    between atoms: N_20  and  C_19 
REMARK       I    between atoms: C_22  and  N_20 
ROOT
ATOM      1  C   LIG d   1      -6.617  79.714 117.547  0.00  0.00     0.161 C 
ATOM      2  C   LIG d   1      -7.763  78.908 117.447  0.00  0.00     0.016 C 
ATOM      3  C   LIG d   1      -8.105  77.920 118.398  0.00  0.00     0.038 C 
ATOM      4  C   LIG d   1      -7.399  77.773 119.601  0.00  0.00     0.028 C 
ATOM      5  C   LIG d   1      -5.944  78.221 119.508  0.00  0.00    -0.047 C 
ATOM      6  C   LIG d   1      -5.895  79.645 118.909  0.00  0.00     0.091 C 
ENDROOT
BRANCH   1   7
ATOM      7  O   LIG d   1      -6.950  81.079 117.225  0.00  0.00    -0.368 OA
BRANCH   7   8
ATOM      8  C   LIG d   1      -7.917  81.721 118.093  0.00  0.00     0.119 C 
BRANCH   8   9
ATOM      9  C   LIG d   1      -8.984  82.374 117.194  0.00  0.00     0.028 C 
ATOM     10  C   LIG d   1     -10.398  81.837 117.476  0.00  0.00     0.006 C 
ENDBRANCH   8   9
BRANCH   8  11
ATOM     11  C   LIG d   1      -7.284  82.876 118.874  0.00  0.00     0.028 C 
ATOM     12  C   LIG d   1      -7.473  82.742 120.394  0.00  0.00     0.006 C 
ENDBRANCH   8  11
ENDBRANCH   7   8
ENDBRANCH   1   7
BRANCH   6  13
ATOM     13  N   LIG d   1      -4.504  80.126 118.705  0.00  0.00    -0.311 N 
ATOM     14  C   LIG d   1      -3.850  80.875 119.592  0.00  0.00     0.210 C 
ATOM     15  C   LIG d   1      -2.432  81.280 119.176  0.00  0.00     0.109 C 
ATOM     16  O   LIG d   1      -4.298  81.216 120.697  0.00  0.00    -0.276 OA
ATOM     17  H   LIG d   1      -4.053  79.870 117.849  0.00  0.00     0.149 HD
ENDBRANCH   6  13
BRANCH   5  18
ATOM     18  N   LIG d   1      -5.367  78.144 120.863  0.00  0.00     0.381 N 
ATOM     19  H   LIG d   1      -4.388  77.944 120.804  0.00  0.00    -0.090 HD
ATOM     20  H   LIG d   1      -5.811  77.395 121.364  0.00  0.00    -0.090 HD
ATOM     21  H   LIG d   1      -5.509  79.005 121.344  0.00  0.00    -0.090 HD
ENDBRANCH   5  18
BRANCH   3  22
ATOM     22  C   LIG d   1      -9.142  77.038 118.131  0.00  0.00     0.382 C 
ATOM     23  O   LIG d   1     -10.320  77.346 118.432  0.00  0.00    -0.241 OA
ATOM     24  O   LIG d   1      -8.908  75.921 117.632  0.00  0.00    -0.241 OA
ENDBRANCH   3  22
TORSDOF 7
ENDMDL
MODEL 2
REMARK VINA RESULT:      -4.5     20.424     22.264
REMARK  7 active torsions:
REMARK  status: ('A' for Active; 'I' for Inactive)
REMARK    1  A    between atoms: C_2  and  C_3 
REMARK    2  A    between atoms: C_3  and  O_6 
REMARK    3  A    between atoms: C_3  and  C_4 
REMARK    4  A    between atoms: C_7  and  O_6 
REMARK    5  A    between atoms: C_9  and  C_10 
REMARK    6  A    between atoms: N_15  and  C_14 
REMARK    7  A    between atoms: N_20  and  C_19 
REMARK       I    between atoms: C_22  and  N_20 
ROOT
ATOM      1  C   LIG d   1      -0.776  59.593 118.159  0.00  0.00     0.161 C 
ATOM      2  C   LIG d   1      -2.033  58.967 118.130  0.00  0.00     0.016 C 
ATOM      3  C   LIG d   1      -2.207  57.580 117.915  0.00  0.00     0.038 C 
ATOM      4  C   LIG d   1      -1.119  56.696 117.864  0.00  0.00     0.028 C 
ATOM      5  C   LIG d   1       0.172  57.350 117.384  0.00  0.00    -0.047 C 
ATOM      6  C   LIG d   1       0.427  58.628 118.217  0.00  0.00     0.091 C 
ENDROOT
BRANCH   1   7
ATOM      7  O   LIG d   1      -0.721  60.528 119.255  0.00  0.00    -0.368 OA
BRANCH   7   8
ATOM      8  C   LIG d   1      -0.481  59.959 120.566  0.00  0.00     0.119 C 
BRANCH   8   9
ATOM      9  C   LIG d   1      -1.732  60.230 121.424  0.00  0.00     0.028 C 
ATOM     10  C   LIG d   1      -1.438  61.162 122.612  0.00  0.00     0.006 C 
ENDBRANCH   8   9
BRANCH   8  11
ATOM     11  C   LIG d   1       0.666  60.677 121.284  0.00  0.00     0.028 C 
ATOM     12  C   LIG d   1       1.748  59.711 121.793  0.00  0.00     0.006 C 
ENDBRANCH   8  11
ENDBRANCH   7   8
ENDBRANCH   1   7
BRANCH   6  13
ATOM     13  N   LIG d   1       1.626  59.375 117.756  0.00  0.00    -0.311 N 
ATOM     14  C   LIG d   1       2.855  59.144 118.216  0.00  0.00     0.210 C 
ATOM     15  C   LIG d   1       3.946  60.040 117.622  0.00  0.00     0.109 C 
ATOM     16  O   LIG d   1       3.149  58.260 119.034  0.00  0.00    -0.276 OA
ATOM     17  H   LIG d   1       1.482  60.089 117.070  0.00  0.00     0.149 HD
ENDBRANCH   6  13
BRANCH   5  18
ATOM     18  N   LIG d   1       1.251  56.353 117.512  0.00  0.00     0.381 N 
ATOM     19  H   LIG d   1       2.133  56.779 117.307  0.00  0.00    -0.090 HD
ATOM     20  H   LIG d   1       1.095  55.617 116.845  0.00  0.00    -0.090 HD
ATOM     21  H   LIG d   1       1.262  55.978 118.434  0.00  0.00    -0.090 HD
ENDBRANCH   5  18
BRANCH   3  22
ATOM     22  C   LIG d   1      -3.480  57.071 117.708  0.00  0.00     0.382 C 
ATOM     23  O   LIG d   1      -4.471  57.840 117.715  0.00  0.00    -0.241 OA
ATOM     24  O   LIG d   1      -3.654  55.847 117.557  0.00  0.00    -0.241 OA
ENDBRANCH   3  22
TORSDOF 7
ENDMDL
MODEL 3
REMARK VINA RESULT:      -4.5     21.594     23.915
REMARK  7 active torsions:
REMARK  status: ('A' for Active; 'I' for Inactive)
REMARK    1  A    between atoms: C_2  and  C_3 
REMARK    2  A    between atoms: C_3  and  O_6 
REMARK    3  A    between atoms: C_3  and  C_4 
REMARK    4  A    between atoms: C_7  and  O_6 
REMARK    5  A    between atoms: C_9  and  C_10 
REMARK    6  A    between atoms: N_15  and  C_14 
REMARK    7  A    between atoms: N_20  and  C_19 
REMARK       I    between atoms: C_22  and  N_20 
ROOT
ATOM      1  C   LIG d   1      -0.488  56.946 118.981  0.00  0.00     0.161 C 
ATOM      2  C   LIG d   1      -1.756  56.384 118.762  0.00  0.00     0.016 C 
ATOM      3  C   LIG d   1      -2.926  57.155 118.570  0.00  0.00     0.038 C 
ATOM      4  C   LIG d   1      -2.881  58.550 118.433  0.00  0.00     0.028 C 
ATOM      5  C   LIG d   1      -1.698  59.191 119.150  0.00  0.00    -0.047 C 
ATOM      6  C   LIG d   1      -0.400  58.465 118.725  0.00  0.00     0.091 C 
ENDROOT
BRANCH   1   7
ATOM      7  O   LIG d   1       0.499  56.248 118.196  0.00  0.00    -0.368 OA
BRANCH   7   8
ATOM      8  C   LIG d   1       1.572  55.616 118.936  0.00  0.00     0.119 C 
BRANCH   8   9
ATOM      9  C   LIG d   1       2.898  56.021 118.265  0.00  0.00     0.028 C 
ATOM     10  C   LIG d   1       4.114  55.784 119.177  0.00  0.00     0.006 C 
ENDBRANCH   8   9
BRANCH   8  11
ATOM     11  C   LIG d   1       1.506  54.090 118.818  0.00  0.00     0.028 C 
ATOM     12  C   LIG d   1       0.794  53.430 120.009  0.00  0.00     0.006 C 
ENDBRANCH   8  11
ENDBRANCH   7   8
ENDBRANCH   1   7
BRANCH   6  13
ATOM     13  N   LIG d   1       0.796  58.975 119.444  0.00  0.00    -0.311 N 
ATOM     14  C   LIG d   1       1.858  59.491 118.828  0.00  0.00     0.210 C 
ATOM     15  C   LIG d   1       2.991  59.938 119.756  0.00  0.00     0.109 C 
ATOM     16  O   LIG d   1       1.956  59.650 117.602  0.00  0.00    -0.276 OA
ATOM     17  H   LIG d   1       0.788  58.913 120.444  0.00  0.00     0.149 HD
ENDBRANCH   6  13
BRANCH   5  18
ATOM     18  N   LIG d   1      -1.695  60.626 118.811  0.00  0.00     0.381 N 
ATOM     19  H   LIG d   1      -2.156  61.145 119.531  0.00  0.00    -0.090 HD
ATOM     20  H   LIG d   1      -2.201  60.759 117.953  0.00  0.00    -0.090 HD
ATOM     21  H   LIG d   1      -0.759  60.950 118.706  0.00  0.00    -0.090 HD
ENDBRANCH   5  18
BRANCH   3  22
ATOM     22  C   LIG d   1      -4.165  56.531 118.553  0.00  0.00     0.382 C 
ATOM     23  O   LIG d   1      -4.783  56.334 119.627  0.00  0.00    -0.241 OA
ATOM     24  O   LIG d   1      -4.652  56.123 117.481  0.00  0.00    -0.241 OA
ENDBRANCH   3  22
TORSDOF 7
ENDMDL
MODEL 4
REMARK VINA RESULT:      -4.4      2.367      4.395
REMARK  7 active torsions:
REMARK  status: ('A' for Active; 'I' for Inactive)
REMARK    1  A    between atoms: C_2  and  C_3 
REMARK    2  A    between atoms: C_3  and  O_6 
REMARK    3  A    between atoms: C_3  and  C_4 
REMARK    4  A    between atoms: C_7  and  O_6 
REMARK    5  A    between atoms: C_9  and  C_10 
REMARK    6  A    between atoms: N_15  and  C_14 
REMARK    7  A    between atoms: N_20  and  C_19 
REMARK       I    between atoms: C_22  and  N_20 
ROOT
ATOM      1  C   LIG d   1      -7.642  79.636 120.499  0.00  0.00     0.161 C 
ATOM      2  C   LIG d   1      -8.019  78.426 119.892  0.00  0.00     0.016 C 
ATOM      3  C   LIG d   1      -9.021  78.332 118.899  0.00  0.00     0.038 C 
ATOM      4  C   LIG d   1      -9.614  79.472 118.334  0.00  0.00     0.028 C 
ATOM      5  C   LIG d   1      -9.627  80.675 119.271  0.00  0.00    -0.047 C 
ATOM      6  C   LIG d   1      -8.199  80.903 119.816  0.00  0.00     0.091 C 
ENDROOT
BRANCH   1   7
ATOM      7  O   LIG d   1      -6.206  79.708 120.594  0.00  0.00    -0.368 OA
BRANCH   7   8
ATOM      8  C   LIG d   1      -5.463  78.997 119.574  0.00  0.00     0.119 C 
BRANCH   8   9
ATOM      9  C   LIG d   1      -4.204  78.410 120.242  0.00  0.00     0.028 C 
ATOM     10  C   LIG d   1      -3.476  77.401 119.338  0.00  0.00     0.006 C 
ENDBRANCH   8   9
BRANCH   8  11
ATOM     11  C   LIG d   1      -4.941  79.953 118.496  0.00  0.00     0.028 C 
ATOM     12  C   LIG d   1      -5.728  79.853 117.180  0.00  0.00     0.006 C 
ENDBRANCH   8  11
ENDBRANCH   7   8
ENDBRANCH   1   7
BRANCH   6  13
ATOM     13  N   LIG d   1      -8.140  82.010 120.806  0.00  0.00    -0.311 N 
ATOM     14  C   LIG d   1      -7.796  83.257 120.491  0.00  0.00     0.210 C 
ATOM     15  C   LIG d   1      -7.779  84.240 121.666  0.00  0.00     0.109 C 
ATOM     16  O   LIG d   1      -7.533  83.650 119.344  0.00  0.00    -0.276 OA
ATOM     17  H   LIG d   1      -8.368  81.786 121.755  0.00  0.00     0.149 HD
ENDBRANCH   6  13
BRANCH   5  18
ATOM     18  N   LIG d   1     -10.146  81.827 118.509  0.00  0.00     0.381 N 
ATOM     19  H   LIG d   1      -9.411  82.488 118.353  0.00  0.00    -0.090 HD
ATOM     20  H   LIG d   1     -10.865  82.276 119.047  0.00  0.00    -0.090 HD
ATOM     21  H   LIG d   1     -10.516  81.520 117.636  0.00  0.00    -0.090 HD
ENDBRANCH   5  18
BRANCH   3  22
ATOM     22  C   LIG d   1      -9.469  77.086 118.491  0.00  0.00     0.382 C 
ATOM     23  O   LIG d   1     -10.699  76.865 118.384  0.00  0.00    -0.241 OA
ATOM     24  O   LIG d   1      -8.660  76.165 118.270  0.00  0.00    -0.241 OA
ENDBRANCH   3  22
TORSDOF 7
ENDMDL
MODEL 5
REMARK VINA RESULT:      -4.2     19.661     21.639
REMARK  7 active torsions:
REMARK  status: ('A' for Active; 'I' for Inactive)
REMARK    1  A    between atoms: C_2  and  C_3 
REMARK    2  A    between atoms: C_3  and  O_6 
REMARK    3  A    between atoms: C_3  and  C_4 
REMARK    4  A    between atoms: C_7  and  O_6 
REMARK    5  A    between atoms: C_9  and  C_10 
REMARK    6  A    between atoms: N_15  and  C_14 
REMARK    7  A    between atoms: N_20  and  C_19 
REMARK       I    between atoms: C_22  and  N_20 
ROOT
ATOM      1  C   LIG d   1      -1.015  60.529 120.067  0.00  0.00     0.161 C 
ATOM      2  C   LIG d   1      -0.159  60.034 119.069  0.00  0.00     0.016 C 
ATOM      3  C   LIG d   1       1.175  59.636 119.315  0.00  0.00     0.038 C 
ATOM      4  C   LIG d   1       1.699  59.562 120.614  0.00  0.00     0.028 C 
ATOM      5  C   LIG d   1       1.037  60.529 121.590  0.00  0.00    -0.047 C 
ATOM      6  C   LIG d   1      -0.496  60.352 121.509  0.00  0.00     0.091 C 
ENDROOT
BRANCH   1   7
ATOM      7  O   LIG d   1      -2.321  59.937 119.927  0.00  0.00    -0.368 OA
BRANCH   7   8
ATOM      8  C   LIG d   1      -2.355  58.576 119.434  0.00  0.00     0.119 C 
BRANCH   8   9
ATOM      9  C   LIG d   1      -3.346  58.535 118.255  0.00  0.00     0.028 C 
ATOM     10  C   LIG d   1      -3.949  57.136 118.043  0.00  0.00     0.006 C 
ENDBRANCH   8   9
BRANCH   8  11
ATOM     11  C   LIG d   1      -2.930  57.617 120.481  0.00  0.00     0.028 C 
ATOM     12  C   LIG d   1      -3.611  58.349 121.648  0.00  0.00     0.006 C 
ENDBRANCH   8  11
ENDBRANCH   7   8
ENDBRANCH   1   7
BRANCH   6  13
ATOM     13  N   LIG d   1      -1.225  61.319 122.371  0.00  0.00    -0.311 N 
ATOM     14  C   LIG d   1      -1.607  61.047 123.618  0.00  0.00     0.210 C 
ATOM     15  C   LIG d   1      -2.363  62.178 124.323  0.00  0.00     0.109 C 
ATOM     16  O   LIG d   1      -1.363  59.990 124.217  0.00  0.00    -0.276 OA
ATOM     17  H   LIG d   1      -1.437  62.214 121.974  0.00  0.00     0.149 HD
ENDBRANCH   6  13
BRANCH   5  18
ATOM     18  N   LIG d   1       1.581  60.251 122.932  0.00  0.00     0.381 N 
ATOM     19  H   LIG d   1       1.748  59.269 123.033  0.00  0.00    -0.090 HD
ATOM     20  H   LIG d   1       0.905  60.528 123.622  0.00  0.00    -0.090 HD
ATOM     21  H   LIG d   1       2.430  60.754 123.067  0.00  0.00    -0.090 HD
ENDBRANCH   5  18
BRANCH   3  22
ATOM     22  C   LIG d   1       2.013  59.343 118.250  0.00  0.00     0.382 C 
ATOM     23  O   LIG d   1       1.922  59.996 117.183  0.00  0.00    -0.241 OA
ATOM     24  O   LIG d   1       2.828  58.404 118.326  0.00  0.00    -0.241 OA
ENDBRANCH   3  22
TORSDOF 7
ENDMDL
MODEL 6
REMARK VINA RESULT:      -4.2      3.508      5.367
REMARK  7 active torsions:
REMARK  status: ('A' for Active; 'I' for Inactive)
REMARK    1  A    between atoms: C_2  and  C_3 
REMARK    2  A    between atoms: C_3  and  O_6 
REMARK    3  A    between atoms: C_3  and  C_4 
REMARK    4  A    between atoms: C_7  and  O_6 
REMARK    5  A    between atoms: C_9  and  C_10 
REMARK    6  A    between atoms: N_15  and  C_14 
REMARK    7  A    between atoms: N_20  and  C_19 
REMARK       I    between atoms: C_22  and  N_20 
ROOT
ATOM      1  C   LIG d   1      -9.353  78.960 120.074  0.00  0.00     0.161 C 
ATOM      2  C   LIG d   1      -9.679  78.166 121.186  0.00  0.00     0.016 C 
ATOM      3  C   LIG d   1     -10.183  78.693 122.397  0.00  0.00     0.038 C 
ATOM      4  C   LIG d   1     -10.539  80.044 122.527  0.00  0.00     0.028 C 
ATOM      5  C   LIG d   1      -9.755  80.968 121.602  0.00  0.00    -0.047 C 
ATOM      6  C   LIG d   1      -9.839  80.422 120.158  0.00  0.00     0.091 C 
ENDROOT
BRANCH   1   7
ATOM      7  O   LIG d   1      -9.841  78.339 118.869  0.00  0.00    -0.368 OA
BRANCH   7   8
ATOM      8  C   LIG d   1      -8.841  77.993 117.879  0.00  0.00     0.119 C 
BRANCH   8   9
ATOM      9  C   LIG d   1      -8.926  76.472 117.646  0.00  0.00     0.028 C 
ATOM     10  C   LIG d   1      -7.773  75.710 118.321  0.00  0.00     0.006 C 
ENDBRANCH   8   9
BRANCH   8  11
ATOM     11  C   LIG d   1      -7.425  78.244 118.407  0.00  0.00     0.028 C 
ATOM     12  C   LIG d   1      -6.599  79.156 117.486  0.00  0.00     0.006 C 
ENDBRANCH   8  11
ENDBRANCH   7   8
ENDBRANCH   1   7
BRANCH   6  13
ATOM     13  N   LIG d   1      -9.029  81.222 119.202  0.00  0.00    -0.311 N 
ATOM     14  C   LIG d   1      -9.485  81.634 118.021  0.00  0.00     0.210 C 
ATOM     15  C   LIG d   1      -8.479  82.428 117.181  0.00  0.00     0.109 C 
ATOM     16  O   LIG d   1     -10.637  81.445 117.602  0.00  0.00    -0.276 OA
ATOM     17  H   LIG d   1      -8.092  81.446 119.475  0.00  0.00     0.149 HD
ENDBRANCH   6  13
BRANCH   5  18
ATOM     18  N   LIG d   1     -10.322  82.323 121.741  0.00  0.00     0.381 N 
ATOM     19  H   LIG d   1     -10.568  82.682 120.840  0.00  0.00    -0.090 HD
ATOM     20  H   LIG d   1      -9.626  82.927 122.141  0.00  0.00    -0.090 HD
ATOM     21  H   LIG d   1     -11.127  82.298 122.328  0.00  0.00    -0.090 HD
ENDBRANCH   5  18
BRANCH   3  22
ATOM     22  C   LIG d   1     -10.298  77.872 123.508  0.00  0.00     0.382 C 
ATOM     23  O   LIG d   1     -10.325  78.373 124.658  0.00  0.00    -0.241 OA
ATOM     24  O   LIG d   1     -10.331  76.633 123.378  0.00  0.00    -0.241 OA
ENDBRANCH   3  22
TORSDOF 7
ENDMDL
MODEL 7
REMARK VINA RESULT:      -4.1     10.235     12.259
REMARK  7 active torsions:
REMARK  status: ('A' for Active; 'I' for Inactive)
REMARK    1  A    between atoms: C_2  and  C_3 
REMARK    2  A    between atoms: C_3  and  O_6 
REMARK    3  A    between atoms: C_3  and  C_4 
REMARK    4  A    between atoms: C_7  and  O_6 
REMARK    5  A    between atoms: C_9  and  C_10 
REMARK    6  A    between atoms: N_15  and  C_14 
REMARK    7  A    between atoms: N_20  and  C_19 
REMARK       I    between atoms: C_22  and  N_20 
ROOT
ATOM      1  C   LIG d   1     -17.916  77.991 121.026  0.00  0.00     0.161 C 
ATOM      2  C   LIG d   1     -16.719  77.587 121.641  0.00  0.00     0.016 C 
ATOM      3  C   LIG d   1     -16.018  76.413 121.283  0.00  0.00     0.038 C 
ATOM      4  C   LIG d   1     -16.388  75.637 120.174  0.00  0.00     0.028 C 
ATOM      5  C   LIG d   1     -17.873  75.728 119.840  0.00  0.00    -0.047 C 
ATOM      6  C   LIG d   1     -18.275  77.217 119.740  0.00  0.00     0.091 C 
ENDROOT
BRANCH   1   7
ATOM      7  O   LIG d   1     -17.876  79.408 120.763  0.00  0.00    -0.368 OA
BRANCH   7   8
ATOM      8  C   LIG d   1     -18.709  80.236 121.611  0.00  0.00     0.119 C 
BRANCH   8   9
ATOM      9  C   LIG d   1     -19.266  81.378 120.738  0.00  0.00     0.028 C 
ATOM     10  C   LIG d   1     -20.368  80.899 119.778  0.00  0.00     0.006 C 
ENDBRANCH   8   9
BRANCH   8  11
ATOM     11  C   LIG d   1     -17.884  80.925 122.702  0.00  0.00     0.028 C 
ATOM     12  C   LIG d   1     -18.489  82.264 123.151  0.00  0.00     0.006 C 
ENDBRANCH   8  11
ENDBRANCH   7   8
ENDBRANCH   1   7
BRANCH   6  13
ATOM     13  N   LIG d   1     -19.730  77.397 119.499  0.00  0.00    -0.311 N 
ATOM     14  C   LIG d   1     -20.667  77.071 120.388  0.00  0.00     0.210 C 
ATOM     15  C   LIG d   1     -22.107  77.318 119.931  0.00  0.00     0.109 C 
ATOM     16  O   LIG d   1     -20.439  76.630 121.525  0.00  0.00    -0.276 OA
ATOM     17  H   LIG d   1     -20.003  77.778 118.614  0.00  0.00     0.149 HD
ENDBRANCH   6  13
BRANCH   5  18
ATOM     18  N   LIG d   1     -18.094  74.984 118.585  0.00  0.00     0.381 N 
ATOM     19  H   LIG d   1     -18.957  75.271 118.169  0.00  0.00    -0.090 HD
ATOM     20  H   LIG d   1     -18.156  74.004 118.795  0.00  0.00    -0.090 HD
ATOM     21  H   LIG d   1     -17.341  75.149 117.954  0.00  0.00    -0.090 HD
ENDBRANCH   5  18
BRANCH   3  22
ATOM     22  C   LIG d   1     -14.955  75.982 122.062  0.00  0.00     0.382 C 
ATOM     23  O   LIG d   1     -14.842  74.766 122.350  0.00  0.00    -0.241 OA
ATOM     24  O   LIG d   1     -14.134  76.800 122.518  0.00  0.00    -0.241 OA
ENDBRANCH   3  22
TORSDOF 7
ENDMDL
MODEL 8
REMARK VINA RESULT:      -4.1      3.151      4.969
REMARK  7 active torsions:
REMARK  status: ('A' for Active; 'I' for Inactive)
REMARK    1  A    between atoms: C_2  and  C_3 
REMARK    2  A    between atoms: C_3  and  O_6 
REMARK    3  A    between atoms: C_3  and  C_4 
REMARK    4  A    between atoms: C_7  and  O_6 
REMARK    5  A    between atoms: C_9  and  C_10 
REMARK    6  A    between atoms: N_15  and  C_14 
REMARK    7  A    between atoms: N_20  and  C_19 
REMARK       I    between atoms: C_22  and  N_20 
ROOT
ATOM      1  C   LIG d   1      -9.143  79.624 119.807  0.00  0.00     0.161 C 
ATOM      2  C   LIG d   1      -9.957  80.342 120.699  0.00  0.00     0.016 C 
ATOM      3  C   LIG d   1     -10.397  79.825 121.939  0.00  0.00     0.038 C 
ATOM      4  C   LIG d   1      -9.925  78.604 122.443  0.00  0.00     0.028 C 
ATOM      5  C   LIG d   1      -9.502  77.623 121.355  0.00  0.00    -0.047 C 
ATOM      6  C   LIG d   1      -8.528  78.334 120.389  0.00  0.00     0.091 C 
ENDROOT
BRANCH   1   7
ATOM      7  O   LIG d   1      -8.109  80.484 119.289  0.00  0.00    -0.368 OA
BRANCH   7   8
ATOM      8  C   LIG d   1      -8.046  80.608 117.847  0.00  0.00     0.119 C 
BRANCH   8   9
ATOM      9  C   LIG d   1      -6.599  80.298 117.418  0.00  0.00     0.028 C 
ATOM     10  C   LIG d   1      -5.600  80.440 118.578  0.00  0.00     0.006 C 
ENDBRANCH   8   9
BRANCH   8  11
ATOM     11  C   LIG d   1      -8.301  82.051 117.401  0.00  0.00     0.028 C 
ATOM     12  C   LIG d   1      -9.796  82.398 117.332  0.00  0.00     0.006 C 
ENDBRANCH   8  11
ENDBRANCH   7   8
ENDBRANCH   1   7
BRANCH   6  13
ATOM     13  N   LIG d   1      -8.131  77.470 119.246  0.00  0.00    -0.311 N 
ATOM     14  C   LIG d   1      -8.993  77.008 118.342  0.00  0.00     0.210 C 
ATOM     15  C   LIG d   1      -8.378  76.118 117.258  0.00  0.00     0.109 C 
ATOM     16  O   LIG d   1     -10.203  77.277 118.317  0.00  0.00    -0.276 OA
ATOM     17  H   LIG d   1      -7.162  77.228 119.172  0.00  0.00     0.149 HD
ENDBRANCH   6  13
BRANCH   5  18
ATOM     18  N   LIG d   1      -8.904  76.450 122.020  0.00  0.00     0.381 N 
ATOM     19  H   LIG d   1      -8.479  75.854 121.338  0.00  0.00    -0.090 HD
ATOM     20  H   LIG d   1      -9.631  75.933 122.482  0.00  0.00    -0.090 HD
ATOM     21  H   LIG d   1      -8.223  76.746 122.685  0.00  0.00    -0.090 HD
ENDBRANCH   5  18
BRANCH   3  22
ATOM     22  C   LIG d   1     -11.351  80.516 122.672  0.00  0.00     0.382 C 
ATOM     23  O   LIG d   1     -12.386  79.927 123.065  0.00  0.00    -0.241 OA
ATOM     24  O   LIG d   1     -11.209  81.731 122.907  0.00  0.00    -0.241 OA
ENDBRANCH   3  22
TORSDOF 7
ENDMDL
MODEL 9
REMARK VINA RESULT:      -4.1     14.964     17.142
REMARK  7 active torsions:
REMARK  status: ('A' for Active; 'I' for Inactive)
REMARK    1  A    between atoms: C_2  and  C_3 
REMARK    2  A    between atoms: C_3  and  O_6 
REMARK    3  A    between atoms: C_3  and  C_4 
REMARK    4  A    between atoms: C_7  and  O_6 
REMARK    5  A    between atoms: C_9  and  C_10 
REMARK    6  A    between atoms: N_15  and  C_14 
REMARK    7  A    between atoms: N_20  and  C_19 
REMARK       I    between atoms: C_22  and  N_20 
ROOT
ATOM      1  C   LIG d   1     -13.522  64.872 120.033  0.00  0.00     0.161 C 
ATOM      2  C   LIG d   1     -12.461  64.323 120.773  0.00  0.00     0.016 C 
ATOM      3  C   LIG d   1     -11.870  64.969 121.883  0.00  0.00     0.038 C 
ATOM      4  C   LIG d   1     -12.403  66.148 122.425  0.00  0.00     0.028 C 
ATOM      5  C   LIG d   1     -13.157  66.996 121.407  0.00  0.00    -0.047 C 
ATOM      6  C   LIG d   1     -14.189  66.105 120.678  0.00  0.00     0.091 C 
ENDROOT
BRANCH   1   7
ATOM      7  O   LIG d   1     -14.506  63.855 119.761  0.00  0.00    -0.368 OA
BRANCH   7   8
ATOM      8  C   LIG d   1     -14.693  63.506 118.367  0.00  0.00     0.119 C 
BRANCH   8   9
ATOM      9  C   LIG d   1     -16.154  63.830 118.001  0.00  0.00     0.028 C 
ATOM     10  C   LIG d   1     -17.080  63.837 119.229  0.00  0.00     0.006 C 
ENDBRANCH   8   9
BRANCH   8  11
ATOM     11  C   LIG d   1     -14.545  61.997 118.146  0.00  0.00     0.028 C 
ATOM     12  C   LIG d   1     -14.256  61.230 119.446  0.00  0.00     0.006 C 
ENDBRANCH   8  11
ENDBRANCH   7   8
ENDBRANCH   1   7
BRANCH   6  13
ATOM     13  N   LIG d   1     -14.912  66.837 119.605  0.00  0.00    -0.311 N 
ATOM     14  C   LIG d   1     -16.106  67.402 119.780  0.00  0.00     0.210 C 
ATOM     15  C   LIG d   1     -16.684  68.089 118.538  0.00  0.00     0.109 C 
ATOM     16  O   LIG d   1     -16.727  67.426 120.853  0.00  0.00    -0.276 OA
ATOM     17  H   LIG d   1     -14.467  66.893 118.710  0.00  0.00     0.149 HD
ENDBRANCH   6  13
BRANCH   5  18
ATOM     18  N   LIG d   1     -13.775  68.121 122.134  0.00  0.00     0.381 N 
ATOM     19  H   LIG d   1     -13.710  67.963 123.120  0.00  0.00    -0.090 HD
ATOM     20  H   LIG d   1     -14.748  68.172 121.886  0.00  0.00    -0.090 HD
ATOM     21  H   LIG d   1     -13.319  68.973 121.895  0.00  0.00    -0.090 HD
ENDBRANCH   5  18
BRANCH   3  22
ATOM     22  C   LIG d   1     -10.708  64.455 122.438  0.00  0.00     0.382 C 
ATOM     23  O   LIG d   1     -10.149  63.462 121.914  0.00  0.00    -0.241 OA
ATOM     24  O   LIG d   1     -10.236  64.945 123.481  0.00  0.00    -0.241 OA
ENDBRANCH   3  22
TORSDOF 7
ENDMDL
