MODEL 1
REMARK VINA RESULT:      -5.6      0.000      0.000
REMARK  7 active torsions:
REMARK  status: ('A' for Active; 'I' for Inactive)
REMARK    1  A    between atoms: C_2  and  C_3 
REMARK    2  A    between atoms: C_3  and  O_6 
REMARK    3  A    between atoms: C_3  and  C_4 
REMARK    4  A    between atoms: C_7  and  O_6 
REMARK    5  A    between atoms: C_9  and  C_10 
REMARK    6  A    between atoms: N_15  and  C_14 
REMARK    7  A    between atoms: N_20  and  C_19 
REMARK       I    between atoms: C_22  and  N_20 
ROOT
ATOM      1  C   LIG d   1       1.604  83.404 112.945  0.00  0.00     0.161 C 
ATOM      2  C   LIG d   1       1.616  84.451 112.008  0.00  0.00     0.016 C 
ATOM      3  C   LIG d   1       2.218  85.707 112.252  0.00  0.00     0.038 C 
ATOM      4  C   LIG d   1       2.985  85.950 113.401  0.00  0.00     0.028 C 
ATOM      5  C   LIG d   1       2.575  85.095 114.595  0.00  0.00    -0.047 C 
ATOM      6  C   LIG d   1       2.531  83.613 114.160  0.00  0.00     0.091 C 
ENDROOT
BRANCH   1   7
ATOM      7  O   LIG d   1       1.910  82.158 112.289  0.00  0.00    -0.368 OA
BRANCH   7   8
ATOM      8  C   LIG d   1       1.615  82.094 110.872  0.00  0.00     0.119 C 
BRANCH   8   9
ATOM      9  C   LIG d   1       0.465  81.086 110.683  0.00  0.00     0.028 C 
ATOM     10  C   LIG d   1       0.692  80.155 109.480  0.00  0.00     0.006 C 
ENDBRANCH   8   9
BRANCH   8  11
ATOM     11  C   LIG d   1       2.794  81.516 110.083  0.00  0.00     0.028 C 
ATOM     12  C   LIG d   1       3.740  82.601 109.544  0.00  0.00     0.006 C 
ENDBRANCH   8  11
ENDBRANCH   7   8
ENDBRANCH   1   7
BRANCH   6  13
ATOM     13  N   LIG d   1       2.057  82.717 115.247  0.00  0.00    -0.311 N 
ATOM     14  C   LIG d   1       2.877  82.030 116.041  0.00  0.00     0.210 C 
ATOM     15  C   LIG d   1       2.181  81.150 117.083  0.00  0.00     0.109 C 
ATOM     16  O   LIG d   1       4.115  82.090 116.001  0.00  0.00    -0.276 OA
ATOM     17  H   LIG d   1       1.067  82.633 115.370  0.00  0.00     0.149 HD
ENDBRANCH   6  13
BRANCH   5  18
ATOM     18  N   LIG d   1       3.543  85.351 115.679  0.00  0.00     0.381 N 
ATOM     19  H   LIG d   1       4.459  85.073 115.388  0.00  0.00    -0.090 HD
ATOM     20  H   LIG d   1       3.286  84.802 116.481  0.00  0.00    -0.090 HD
ATOM     21  H   LIG d   1       3.541  86.319 115.917  0.00  0.00    -0.090 HD
ENDBRANCH   5  18
BRANCH   3  22
ATOM     22  C   LIG d   1       2.022  86.748 111.358  0.00  0.00     0.382 C 
ATOM     23  O   LIG d   1       2.386  87.910 111.660  0.00  0.00    -0.241 OA
ATOM     24  O   LIG d   1       1.445  86.549 110.272  0.00  0.00    -0.241 OA
ENDBRANCH   3  22
TORSDOF 7
ENDMDL
MODEL 2
REMARK VINA RESULT:      -5.5      2.374      4.982
REMARK  7 active torsions:
REMARK  status: ('A' for Active; 'I' for Inactive)
REMARK    1  A    between atoms: C_2  and  C_3 
REMARK    2  A    between atoms: C_3  and  O_6 
REMARK    3  A    between atoms: C_3  and  C_4 
REMARK    4  A    between atoms: C_7  and  O_6 
REMARK    5  A    between atoms: C_9  and  C_10 
REMARK    6  A    between atoms: N_15  and  C_14 
REMARK    7  A    between atoms: N_20  and  C_19 
REMARK       I    between atoms: C_22  and  N_20 
ROOT
ATOM      1  C   LIG d   1       3.431  84.670 112.506  0.00  0.00     0.161 C 
ATOM      2  C   LIG d   1       3.858  85.943 112.917  0.00  0.00     0.016 C 
ATOM      3  C   LIG d   1       3.317  87.147 112.410  0.00  0.00     0.038 C 
ATOM      4  C   LIG d   1       2.199  87.158 111.562  0.00  0.00     0.028 C 
ATOM      5  C   LIG d   1       2.058  85.889 110.728  0.00  0.00    -0.047 C 
ATOM      6  C   LIG d   1       2.137  84.662 111.665  0.00  0.00     0.091 C 
ENDROOT
BRANCH   1   7
ATOM      7  O   LIG d   1       3.288  83.808 113.652  0.00  0.00    -0.368 OA
BRANCH   7   8
ATOM      8  C   LIG d   1       3.215  84.468 114.940  0.00  0.00     0.119 C 
BRANCH   8   9
ATOM      9  C   LIG d   1       3.870  83.535 115.977  0.00  0.00     0.028 C 
ATOM     10  C   LIG d   1       3.155  82.177 116.079  0.00  0.00     0.006 C 
ENDBRANCH   8   9
BRANCH   8  11
ATOM     11  C   LIG d   1       1.763  84.630 115.401  0.00  0.00     0.028 C 
ATOM     12  C   LIG d   1       1.359  86.100 115.591  0.00  0.00     0.006 C 
ENDBRANCH   8  11
ENDBRANCH   7   8
ENDBRANCH   1   7
BRANCH   6  13
ATOM     13  N   LIG d   1       2.092  83.377 110.920  0.00  0.00    -0.311 N 
ATOM     14  C   LIG d   1       0.962  82.731 110.640  0.00  0.00     0.210 C 
ATOM     15  C   LIG d   1       1.141  81.413 109.880  0.00  0.00     0.109 C 
ATOM     16  O   LIG d   1      -0.175  83.140 110.920  0.00  0.00    -0.276 OA
ATOM     17  H   LIG d   1       2.967  82.988 110.627  0.00  0.00     0.149 HD
ENDBRANCH   6  13
BRANCH   5  18
ATOM     18  N   LIG d   1       0.781  85.977 109.996  0.00  0.00     0.381 N 
ATOM     19  H   LIG d   1       0.052  86.262 110.619  0.00  0.00    -0.090 HD
ATOM     20  H   LIG d   1       0.551  85.068 109.635  0.00  0.00    -0.090 HD
ATOM     21  H   LIG d   1       0.862  86.629 109.247  0.00  0.00    -0.090 HD
ENDBRANCH   5  18
BRANCH   3  22
ATOM     22  C   LIG d   1       3.921  88.356 112.720  0.00  0.00     0.382 C 
ATOM     23  O   LIG d   1       3.216  89.351 113.017  0.00  0.00    -0.241 OA
ATOM     24  O   LIG d   1       5.159  88.476 112.663  0.00  0.00    -0.241 OA
ENDBRANCH   3  22
TORSDOF 7
ENDMDL
MODEL 3
REMARK VINA RESULT:      -5.3      2.608      3.541
REMARK  7 active torsions:
REMARK  status: ('A' for Active; 'I' for Inactive)
REMARK    1  A    between atoms: C_2  and  C_3 
REMARK    2  A    between atoms: C_3  and  O_6 
REMARK    3  A    between atoms: C_3  and  C_4 
REMARK    4  A    between atoms: C_7  and  O_6 
REMARK    5  A    between atoms: C_9  and  C_10 
REMARK    6  A    between atoms: N_15  and  C_14 
REMARK    7  A    between atoms: N_20  and  C_19 
REMARK       I    between atoms: C_22  and  N_20 
ROOT
ATOM      1  C   LIG d   1       2.581  86.348 114.110  0.00  0.00     0.161 C 
ATOM      2  C   LIG d   1       3.057  87.512 113.483  0.00  0.00     0.016 C 
ATOM      3  C   LIG d   1       4.245  88.175 113.872  0.00  0.00     0.038 C 
ATOM      4  C   LIG d   1       5.121  87.629 114.822  0.00  0.00     0.028 C 
ATOM      5  C   LIG d   1       4.429  86.722 115.834  0.00  0.00    -0.047 C 
ATOM      6  C   LIG d   1       3.581  85.677 115.074  0.00  0.00     0.091 C 
ENDROOT
BRANCH   1   7
ATOM      7  O   LIG d   1       2.134  85.406 113.114  0.00  0.00    -0.368 OA
BRANCH   7   8
ATOM      8  C   LIG d   1       1.628  85.974 111.881  0.00  0.00     0.119 C 
BRANCH   8   9
ATOM      9  C   LIG d   1       0.101  85.767 111.868  0.00  0.00     0.028 C 
ATOM     10  C   LIG d   1      -0.556  86.329 110.597  0.00  0.00     0.006 C 
ENDBRANCH   8   9
BRANCH   8  11
ATOM     11  C   LIG d   1       2.151  85.210 110.661  0.00  0.00     0.028 C 
ATOM     12  C   LIG d   1       3.578  84.674 110.859  0.00  0.00     0.006 C 
ENDBRANCH   8  11
ENDBRANCH   7   8
ENDBRANCH   1   7
BRANCH   6  13
ATOM     13  N   LIG d   1       2.804  84.802 115.990  0.00  0.00    -0.311 N 
ATOM     14  C   LIG d   1       3.021  83.494 116.115  0.00  0.00     0.210 C 
ATOM     15  C   LIG d   1       2.094  82.775 117.100  0.00  0.00     0.109 C 
ATOM     16  O   LIG d   1       3.914  82.866 115.527  0.00  0.00    -0.276 OA
ATOM     17  H   LIG d   1       2.079  85.235 116.529  0.00  0.00     0.149 HD
ENDBRANCH   6  13
BRANCH   5  18
ATOM     18  N   LIG d   1       5.476  86.114 116.677  0.00  0.00     0.381 N 
ATOM     19  H   LIG d   1       5.687  85.194 116.345  0.00  0.00    -0.090 HD
ATOM     20  H   LIG d   1       5.132  86.038 117.618  0.00  0.00    -0.090 HD
ATOM     21  H   LIG d   1       6.297  86.678 116.660  0.00  0.00    -0.090 HD
ENDBRANCH   5  18
BRANCH   3  22
ATOM     22  C   LIG d   1       4.545  89.418 113.337  0.00  0.00     0.382 C 
ATOM     23  O   LIG d   1       3.673  90.320 113.319  0.00  0.00    -0.241 OA
ATOM     24  O   LIG d   1       5.662  89.635 112.831  0.00  0.00    -0.241 OA
ENDBRANCH   3  22
TORSDOF 7
ENDMDL
MODEL 4
REMARK VINA RESULT:      -5.3      2.658      5.590
REMARK  7 active torsions:
REMARK  status: ('A' for Active; 'I' for Inactive)
REMARK    1  A    between atoms: C_2  and  C_3 
REMARK    2  A    between atoms: C_3  and  O_6 
REMARK    3  A    between atoms: C_3  and  C_4 
REMARK    4  A    between atoms: C_7  and  O_6 
REMARK    5  A    between atoms: C_9  and  C_10 
REMARK    6  A    between atoms: N_15  and  C_14 
REMARK    7  A    between atoms: N_20  and  C_19 
REMARK       I    between atoms: C_22  and  N_20 
ROOT
ATOM      1  C   LIG d   1       1.839  84.494 113.322  0.00  0.00     0.161 C 
ATOM      2  C   LIG d   1       0.995  83.418 112.998  0.00  0.00     0.016 C 
ATOM      3  C   LIG d   1       0.191  83.383 111.836  0.00  0.00     0.038 C 
ATOM      4  C   LIG d   1       0.290  84.361 110.835  0.00  0.00     0.028 C 
ATOM      5  C   LIG d   1       0.754  85.716 111.357  0.00  0.00    -0.047 C 
ATOM      6  C   LIG d   1       2.044  85.520 112.187  0.00  0.00     0.091 C 
ENDROOT
BRANCH   1   7
ATOM      7  O   LIG d   1       3.110  83.996 113.783  0.00  0.00    -0.368 OA
BRANCH   7   8
ATOM      8  C   LIG d   1       3.267  83.883 115.219  0.00  0.00     0.119 C 
BRANCH   8   9
ATOM      9  C   LIG d   1       2.184  84.762 115.874  0.00  0.00     0.028 C 
ATOM     10  C   LIG d   1       1.647  84.155 117.181  0.00  0.00     0.006 C 
ENDBRANCH   8   9
BRANCH   8  11
ATOM     11  C   LIG d   1       4.603  84.473 115.682  0.00  0.00     0.028 C 
ATOM     12  C   LIG d   1       4.559  86.002 115.831  0.00  0.00     0.006 C 
ENDBRANCH   8  11
ENDBRANCH   7   8
ENDBRANCH   1   7
BRANCH   6  13
ATOM     13  N   LIG d   1       2.519  86.785 112.805  0.00  0.00    -0.311 N 
ATOM     14  C   LIG d   1       3.670  87.371 112.483  0.00  0.00     0.210 C 
ATOM     15  C   LIG d   1       3.979  88.658 113.254  0.00  0.00     0.109 C 
ATOM     16  O   LIG d   1       4.450  86.965 111.608  0.00  0.00    -0.276 OA
ATOM     17  H   LIG d   1       1.932  87.200 113.503  0.00  0.00     0.149 HD
ENDBRANCH   6  13
BRANCH   5  18
ATOM     18  N   LIG d   1       0.946  86.601 110.192  0.00  0.00     0.381 N 
ATOM     19  H   LIG d   1       0.113  86.617 109.638  0.00  0.00    -0.090 HD
ATOM     20  H   LIG d   1       1.694  86.237 109.628  0.00  0.00    -0.090 HD
ATOM     21  H   LIG d   1       1.169  87.523 110.497  0.00  0.00    -0.090 HD
ENDBRANCH   5  18
BRANCH   3  22
ATOM     22  C   LIG d   1      -0.755  82.380 111.685  0.00  0.00     0.382 C 
ATOM     23  O   LIG d   1      -1.856  82.462 112.280  0.00  0.00    -0.241 OA
ATOM     24  O   LIG d   1      -0.503  81.373 110.996  0.00  0.00    -0.241 OA
ENDBRANCH   3  22
TORSDOF 7
ENDMDL
MODEL 5
REMARK VINA RESULT:      -5.2      2.176      5.148
REMARK  7 active torsions:
REMARK  status: ('A' for Active; 'I' for Inactive)
REMARK    1  A    between atoms: C_2  and  C_3 
REMARK    2  A    between atoms: C_3  and  O_6 
REMARK    3  A    between atoms: C_3  and  C_4 
REMARK    4  A    between atoms: C_7  and  O_6 
REMARK    5  A    between atoms: C_9  and  C_10 
REMARK    6  A    between atoms: N_15  and  C_14 
REMARK    7  A    between atoms: N_20  and  C_19 
REMARK       I    between atoms: C_22  and  N_20 
ROOT
ATOM      1  C   LIG d   1       3.815  85.565 113.397  0.00  0.00     0.161 C 
ATOM      2  C   LIG d   1       3.321  84.286 113.705  0.00  0.00     0.016 C 
ATOM      3  C   LIG d   1       2.504  84.018 114.828  0.00  0.00     0.038 C 
ATOM      4  C   LIG d   1       1.999  85.044 115.640  0.00  0.00     0.028 C 
ATOM      5  C   LIG d   1       2.881  86.288 115.663  0.00  0.00    -0.047 C 
ATOM      6  C   LIG d   1       3.184  86.715 114.209  0.00  0.00     0.091 C 
ENDROOT
BRANCH   1   7
ATOM      7  O   LIG d   1       3.678  85.814 111.984  0.00  0.00    -0.368 OA
BRANCH   7   8
ATOM      8  C   LIG d   1       2.482  85.290 111.358  0.00  0.00     0.119 C 
BRANCH   8   9
ATOM      9  C   LIG d   1       2.923  84.481 110.122  0.00  0.00     0.028 C 
ATOM     10  C   LIG d   1       2.651  82.975 110.280  0.00  0.00     0.006 C 
ENDBRANCH   8   9
BRANCH   8  11
ATOM     11  C   LIG d   1       1.600  86.416 110.811  0.00  0.00     0.028 C 
ATOM     12  C   LIG d   1       0.385  85.895 110.028  0.00  0.00     0.006 C 
ENDBRANCH   8  11
ENDBRANCH   7   8
ENDBRANCH   1   7
BRANCH   6  13
ATOM     13  N   LIG d   1       4.111  87.875 114.140  0.00  0.00    -0.311 N 
ATOM     14  C   LIG d   1       3.879  88.956 113.396  0.00  0.00     0.210 C 
ATOM     15  C   LIG d   1       4.972  90.027 113.454  0.00  0.00     0.109 C 
ATOM     16  O   LIG d   1       2.857  89.142 112.719  0.00  0.00    -0.276 OA
ATOM     17  H   LIG d   1       4.950  87.821 114.683  0.00  0.00     0.149 HD
ENDBRANCH   6  13
BRANCH   5  18
ATOM     18  N   LIG d   1       2.170  87.325 116.434  0.00  0.00     0.381 N 
ATOM     19  H   LIG d   1       1.472  86.899 117.011  0.00  0.00    -0.090 HD
ATOM     20  H   LIG d   1       1.712  87.949 115.794  0.00  0.00    -0.090 HD
ATOM     21  H   LIG d   1       2.814  87.831 117.000  0.00  0.00    -0.090 HD
ENDBRANCH   5  18
BRANCH   3  22
ATOM     22  C   LIG d   1       2.218  82.705 115.171  0.00  0.00     0.382 C 
ATOM     23  O   LIG d   1       2.006  82.402 116.370  0.00  0.00    -0.241 OA
ATOM     24  O   LIG d   1       2.212  81.812 114.302  0.00  0.00    -0.241 OA
ENDBRANCH   3  22
TORSDOF 7
ENDMDL
MODEL 6
REMARK VINA RESULT:      -5.2     26.788     28.072
REMARK  7 active torsions:
REMARK  status: ('A' for Active; 'I' for Inactive)
REMARK    1  A    between atoms: C_2  and  C_3 
REMARK    2  A    between atoms: C_3  and  O_6 
REMARK    3  A    between atoms: C_3  and  C_4 
REMARK    4  A    between atoms: C_7  and  O_6 
REMARK    5  A    between atoms: C_9  and  C_10 
REMARK    6  A    between atoms: N_15  and  C_14 
REMARK    7  A    between atoms: N_20  and  C_19 
REMARK       I    between atoms: C_22  and  N_20 
ROOT
ATOM      1  C   LIG d   1     -25.623  85.580 113.229  0.00  0.00     0.161 C 
ATOM      2  C   LIG d   1     -24.518  86.421 113.439  0.00  0.00     0.016 C 
ATOM      3  C   LIG d   1     -23.229  85.944 113.773  0.00  0.00     0.038 C 
ATOM      4  C   LIG d   1     -22.922  84.575 113.769  0.00  0.00     0.028 C 
ATOM      5  C   LIG d   1     -24.125  83.683 114.057  0.00  0.00    -0.047 C 
ATOM      6  C   LIG d   1     -25.281  84.080 113.111  0.00  0.00     0.091 C 
ENDROOT
BRANCH   1   7
ATOM      7  O   LIG d   1     -26.357  86.019 112.068  0.00  0.00    -0.368 OA
BRANCH   7   8
ATOM      8  C   LIG d   1     -27.104  87.252 112.215  0.00  0.00     0.119 C 
BRANCH   8   9
ATOM      9  C   LIG d   1     -28.507  87.016 111.623  0.00  0.00     0.028 C 
ATOM     10  C   LIG d   1     -28.639  85.635 110.958  0.00  0.00     0.006 C 
ENDBRANCH   8   9
BRANCH   8  11
ATOM     11  C   LIG d   1     -26.493  88.377 111.374  0.00  0.00     0.028 C 
ATOM     12  C   LIG d   1     -27.146  89.742 111.641  0.00  0.00     0.006 C 
ENDBRANCH   8  11
ENDBRANCH   7   8
ENDBRANCH   1   7
BRANCH   6  13
ATOM     13  N   LIG d   1     -26.525  83.313 113.384  0.00  0.00    -0.311 N 
ATOM     14  C   LIG d   1     -27.133  82.555 112.473  0.00  0.00     0.210 C 
ATOM     15  C   LIG d   1     -28.413  81.865 112.956  0.00  0.00     0.109 C 
ATOM     16  O   LIG d   1     -26.716  82.362 111.321  0.00  0.00    -0.276 OA
ATOM     17  H   LIG d   1     -26.914  83.387 114.303  0.00  0.00     0.149 HD
ENDBRANCH   6  13
BRANCH   5  18
ATOM     18  N   LIG d   1     -23.693  82.283 113.887  0.00  0.00     0.381 N 
ATOM     19  H   LIG d   1     -23.891  81.979 112.955  0.00  0.00    -0.090 HD
ATOM     20  H   LIG d   1     -24.209  81.704 114.525  0.00  0.00    -0.090 HD
ATOM     21  H   LIG d   1     -22.717  82.203 114.070  0.00  0.00    -0.090 HD
ENDBRANCH   5  18
BRANCH   3  22
ATOM     22  C   LIG d   1     -22.242  86.840 114.153  0.00  0.00     0.382 C 
ATOM     23  O   LIG d   1     -22.460  87.656 115.081  0.00  0.00    -0.241 OA
ATOM     24  O   LIG d   1     -21.152  86.872 113.551  0.00  0.00    -0.241 OA
ENDBRANCH   3  22
TORSDOF 7
ENDMDL
MODEL 7
REMARK VINA RESULT:      -5.0      4.028      6.244
REMARK  7 active torsions:
REMARK  status: ('A' for Active; 'I' for Inactive)
REMARK    1  A    between atoms: C_2  and  C_3 
REMARK    2  A    between atoms: C_3  and  O_6 
REMARK    3  A    between atoms: C_3  and  C_4 
REMARK    4  A    between atoms: C_7  and  O_6 
REMARK    5  A    between atoms: C_9  and  C_10 
REMARK    6  A    between atoms: N_15  and  C_14 
REMARK    7  A    between atoms: N_20  and  C_19 
REMARK       I    between atoms: C_22  and  N_20 
ROOT
ATOM      1  C   LIG d   1       1.564  87.143 115.155  0.00  0.00     0.161 C 
ATOM      2  C   LIG d   1       0.505  87.054 116.074  0.00  0.00     0.016 C 
ATOM      3  C   LIG d   1       0.248  88.031 117.063  0.00  0.00     0.038 C 
ATOM      4  C   LIG d   1       0.948  89.246 117.104  0.00  0.00     0.028 C 
ATOM      5  C   LIG d   1       2.352  89.157 116.516  0.00  0.00    -0.047 C 
ATOM      6  C   LIG d   1       2.269  88.514 115.113  0.00  0.00     0.091 C 
ENDROOT
BRANCH   1   7
ATOM      7  O   LIG d   1       1.102  86.776 113.840  0.00  0.00    -0.368 OA
BRANCH   7   8
ATOM      8  C   LIG d   1       1.798  85.675 113.205  0.00  0.00     0.119 C 
BRANCH   8   9
ATOM      9  C   LIG d   1       2.307  86.177 111.839  0.00  0.00     0.028 C 
ATOM     10  C   LIG d   1       3.783  85.818 111.595  0.00  0.00     0.006 C 
ENDBRANCH   8   9
BRANCH   8  11
ATOM     11  C   LIG d   1       0.842  84.523 112.883  0.00  0.00     0.028 C 
ATOM     12  C   LIG d   1       1.500  83.143 113.035  0.00  0.00     0.006 C 
ENDBRANCH   8  11
ENDBRANCH   7   8
ENDBRANCH   1   7
BRANCH   6  13
ATOM     13  N   LIG d   1       3.609  88.312 114.502  0.00  0.00    -0.311 N 
ATOM     14  C   LIG d   1       4.163  89.172 113.648  0.00  0.00     0.210 C 
ATOM     15  C   LIG d   1       5.541  88.763 113.121  0.00  0.00     0.109 C 
ATOM     16  O   LIG d   1       3.657  90.251 113.303  0.00  0.00    -0.276 OA
ATOM     17  H   LIG d   1       4.103  87.478 114.751  0.00  0.00     0.149 HD
ENDBRANCH   6  13
BRANCH   5  18
ATOM     18  N   LIG d   1       2.915  90.520 116.496  0.00  0.00     0.381 N 
ATOM     19  H   LIG d   1       3.914  90.474 116.487  0.00  0.00    -0.090 HD
ATOM     20  H   LIG d   1       2.629  91.002 117.330  0.00  0.00    -0.090 HD
ATOM     21  H   LIG d   1       2.590  91.011 115.692  0.00  0.00    -0.090 HD
ENDBRANCH   5  18
BRANCH   3  22
ATOM     22  C   LIG d   1      -0.691  87.779 118.051  0.00  0.00     0.382 C 
ATOM     23  O   LIG d   1      -1.911  87.961 117.817  0.00  0.00    -0.241 OA
ATOM     24  O   LIG d   1      -0.332  87.415 119.187  0.00  0.00    -0.241 OA
ENDBRANCH   3  22
TORSDOF 7
ENDMDL
MODEL 8
REMARK VINA RESULT:      -4.6     10.389     11.713
REMARK  7 active torsions:
REMARK  status: ('A' for Active; 'I' for Inactive)
REMARK    1  A    between atoms: C_2  and  C_3 
REMARK    2  A    between atoms: C_3  and  O_6 
REMARK    3  A    between atoms: C_3  and  C_4 
REMARK    4  A    between atoms: C_7  and  O_6 
REMARK    5  A    between atoms: C_9  and  C_10 
REMARK    6  A    between atoms: N_15  and  C_14 
REMARK    7  A    between atoms: N_20  and  C_19 
REMARK       I    between atoms: C_22  and  N_20 
ROOT
ATOM      1  C   LIG d   1      11.958  77.695 113.108  0.00  0.00     0.161 C 
ATOM      2  C   LIG d   1      11.502  78.960 112.703  0.00  0.00     0.016 C 
ATOM      3  C   LIG d   1      10.907  79.892 113.585  0.00  0.00     0.038 C 
ATOM      4  C   LIG d   1      10.865  79.678 114.971  0.00  0.00     0.028 C 
ATOM      5  C   LIG d   1      10.856  78.203 115.356  0.00  0.00    -0.047 C 
ATOM      6  C   LIG d   1      12.022  77.489 114.635  0.00  0.00     0.091 C 
ENDROOT
BRANCH   1   7
ATOM      7  O   LIG d   1      13.242  77.425 112.511  0.00  0.00    -0.368 OA
BRANCH   7   8
ATOM      8  C   LIG d   1      13.657  78.327 111.455  0.00  0.00     0.119 C 
BRANCH   8   9
ATOM      9  C   LIG d   1      13.795  77.496 110.165  0.00  0.00     0.028 C 
ATOM     10  C   LIG d   1      15.237  77.479 109.630  0.00  0.00     0.006 C 
ENDBRANCH   8   9
BRANCH   8  11
ATOM     11  C   LIG d   1      15.054  78.894 111.724  0.00  0.00     0.028 C 
ATOM     12  C   LIG d   1      15.053  79.995 112.796  0.00  0.00     0.006 C 
ENDBRANCH   8  11
ENDBRANCH   7   8
ENDBRANCH   1   7
BRANCH   6  13
ATOM     13  N   LIG d   1      12.035  76.025 114.892  0.00  0.00    -0.311 N 
ATOM     14  C   LIG d   1      12.774  75.454 115.842  0.00  0.00     0.210 C 
ATOM     15  C   LIG d   1      12.655  73.929 115.923  0.00  0.00     0.109 C 
ATOM     16  O   LIG d   1      13.491  76.068 116.645  0.00  0.00    -0.276 OA
ATOM     17  H   LIG d   1      11.458  75.454 114.306  0.00  0.00     0.149 HD
ENDBRANCH   6  13
BRANCH   5  18
ATOM     18  N   LIG d   1      10.951  78.126 116.826  0.00  0.00     0.381 N 
ATOM     19  H   LIG d   1      10.376  78.832 117.240  0.00  0.00    -0.090 HD
ATOM     20  H   LIG d   1      11.903  78.295 117.100  0.00  0.00    -0.090 HD
ATOM     21  H   LIG d   1      10.663  77.226 117.140  0.00  0.00    -0.090 HD
ENDBRANCH   5  18
BRANCH   3  22
ATOM     22  C   LIG d   1      10.309  81.035 113.076  0.00  0.00     0.382 C 
ATOM     23  O   LIG d   1       9.627  81.773 113.827  0.00  0.00    -0.241 OA
ATOM     24  O   LIG d   1      10.407  81.314 111.866  0.00  0.00    -0.241 OA
ENDBRANCH   3  22
TORSDOF 7
ENDMDL
MODEL 9
REMARK VINA RESULT:      -4.6      9.584     11.351
REMARK  7 active torsions:
REMARK  status: ('A' for Active; 'I' for Inactive)
REMARK    1  A    between atoms: C_2  and  C_3 
REMARK    2  A    between atoms: C_3  and  O_6 
REMARK    3  A    between atoms: C_3  and  C_4 
REMARK    4  A    between atoms: C_7  and  O_6 
REMARK    5  A    between atoms: C_9  and  C_10 
REMARK    6  A    between atoms: N_15  and  C_14 
REMARK    7  A    between atoms: N_20  and  C_19 
REMARK       I    between atoms: C_22  and  N_20 
ROOT
ATOM      1  C   LIG d   1      12.442  78.834 114.586  0.00  0.00     0.161 C 
ATOM      2  C   LIG d   1      11.091  78.472 114.718  0.00  0.00     0.016 C 
ATOM      3  C   LIG d   1      10.152  79.228 115.456  0.00  0.00     0.038 C 
ATOM      4  C   LIG d   1      10.468  80.485 115.991  0.00  0.00     0.028 C 
ATOM      5  C   LIG d   1      11.949  80.651 116.313  0.00  0.00    -0.047 C 
ATOM      6  C   LIG d   1      12.780  80.259 115.070  0.00  0.00     0.091 C 
ENDROOT
BRANCH   1   7
ATOM      7  O   LIG d   1      12.865  78.655 113.220  0.00  0.00    -0.368 OA
BRANCH   7   8
ATOM      8  C   LIG d   1      11.839  78.816 112.209  0.00  0.00     0.119 C 
BRANCH   8   9
ATOM      9  C   LIG d   1      12.189  77.874 111.041  0.00  0.00     0.028 C 
ATOM     10  C   LIG d   1      13.706  77.688 110.871  0.00  0.00     0.006 C 
ENDBRANCH   8   9
BRANCH   8  11
ATOM     11  C   LIG d   1      11.861  80.227 111.613  0.00  0.00     0.028 C 
ATOM     12  C   LIG d   1      10.652  81.073 112.041  0.00  0.00     0.006 C 
ENDBRANCH   8  11
ENDBRANCH   7   8
ENDBRANCH   1   7
BRANCH   6  13
ATOM     13  N   LIG d   1      14.243  80.313 115.326  0.00  0.00    -0.311 N 
ATOM     14  C   LIG d   1      15.133  80.700 114.414  0.00  0.00     0.210 C 
ATOM     15  C   LIG d   1      16.593  80.662 114.878  0.00  0.00     0.109 C 
ATOM     16  O   LIG d   1      14.850  81.103 113.276  0.00  0.00    -0.276 OA
ATOM     17  H   LIG d   1      14.558  80.033 116.234  0.00  0.00     0.149 HD
ENDBRANCH   6  13
BRANCH   5  18
ATOM     18  N   LIG d   1      12.161  82.050 116.732  0.00  0.00     0.381 N 
ATOM     19  H   LIG d   1      13.130  82.202 116.927  0.00  0.00    -0.090 HD
ATOM     20  H   LIG d   1      11.640  82.219 117.575  0.00  0.00    -0.090 HD
ATOM     21  H   LIG d   1      11.856  82.670 116.015  0.00  0.00    -0.090 HD
ENDBRANCH   5  18
BRANCH   3  22
ATOM     22  C   LIG d   1       8.890  78.707 115.700  0.00  0.00     0.382 C 
ATOM     23  O   LIG d   1       8.765  77.652 116.366  0.00  0.00    -0.241 OA
ATOM     24  O   LIG d   1       7.878  79.255 115.223  0.00  0.00    -0.241 OA
ENDBRANCH   3  22
TORSDOF 7
ENDMDL
