MODEL 1
REMARK VINA RESULT:      -6.3      0.000      0.000
REMARK  7 active torsions:
REMARK  status: ('A' for Active; 'I' for Inactive)
REMARK    1  A    between atoms: C_2  and  C_3 
REMARK    2  A    between atoms: C_3  and  O_6 
REMARK    3  A    between atoms: C_3  and  C_4 
REMARK    4  A    between atoms: C_7  and  O_6 
REMARK    5  A    between atoms: C_9  and  C_10 
REMARK    6  A    between atoms: N_15  and  C_14 
REMARK    7  A    between atoms: N_20  and  C_19 
REMARK       I    between atoms: C_22  and  N_20 
ROOT
ATOM      1  C   LIG d   1       0.937  83.704 109.370  0.00  0.00     0.161 C 
ATOM      2  C   LIG d   1       0.690  85.048 109.696  0.00  0.00     0.016 C 
ATOM      3  C   LIG d   1      -0.065  85.449 110.821  0.00  0.00     0.038 C 
ATOM      4  C   LIG d   1      -0.501  84.531 111.788  0.00  0.00     0.028 C 
ATOM      5  C   LIG d   1      -0.709  83.124 111.236  0.00  0.00    -0.047 C 
ATOM      6  C   LIG d   1       0.564  82.692 110.473  0.00  0.00     0.091 C 
ENDROOT
BRANCH   1   7
ATOM      7  O   LIG d   1       2.317  83.540 108.986  0.00  0.00    -0.368 OA
BRANCH   7   8
ATOM      8  C   LIG d   1       3.249  83.262 110.059  0.00  0.00     0.119 C 
BRANCH   8   9
ATOM      9  C   LIG d   1       3.895  84.600 110.469  0.00  0.00     0.028 C 
ATOM     10  C   LIG d   1       3.693  84.916 111.961  0.00  0.00     0.006 C 
ENDBRANCH   8   9
BRANCH   8  11
ATOM     11  C   LIG d   1       4.407  82.383 109.578  0.00  0.00     0.028 C 
ATOM     12  C   LIG d   1       4.103  80.881 109.692  0.00  0.00     0.006 C 
ENDBRANCH   8  11
ENDBRANCH   7   8
ENDBRANCH   1   7
BRANCH   6  13
ATOM     13  N   LIG d   1       0.414  81.360 109.830  0.00  0.00    -0.311 N 
ATOM     14  C   LIG d   1       0.694  80.213 110.447  0.00  0.00     0.210 C 
ATOM     15  C   LIG d   1       0.489  78.955 109.596  0.00  0.00     0.109 C 
ATOM     16  O   LIG d   1       1.060  80.115 111.627  0.00  0.00    -0.276 OA
ATOM     17  H   LIG d   1       0.092  81.345 108.883  0.00  0.00     0.149 HD
ENDBRANCH   6  13
BRANCH   5  18
ATOM     18  N   LIG d   1      -1.028  82.242 112.375  0.00  0.00     0.381 N 
ATOM     19  H   LIG d   1      -0.183  81.911 112.794  0.00  0.00    -0.090 HD
ATOM     20  H   LIG d   1      -1.544  81.449 112.037  0.00  0.00    -0.090 HD
ATOM     21  H   LIG d   1      -1.570  82.737 113.048  0.00  0.00    -0.090 HD
ENDBRANCH   5  18
BRANCH   3  22
ATOM     22  C   LIG d   1      -0.427  86.780 110.967  0.00  0.00     0.382 C 
ATOM     23  O   LIG d   1       0.455  87.651 111.165  0.00  0.00    -0.241 OA
ATOM     24  O   LIG d   1      -1.626  87.115 110.947  0.00  0.00    -0.241 OA
ENDBRANCH   3  22
TORSDOF 7
ENDMDL
MODEL 2
REMARK VINA RESULT:      -6.2      2.363      4.170
REMARK  7 active torsions:
REMARK  status: ('A' for Active; 'I' for Inactive)
REMARK    1  A    between atoms: C_2  and  C_3 
REMARK    2  A    between atoms: C_3  and  O_6 
REMARK    3  A    between atoms: C_3  and  C_4 
REMARK    4  A    between atoms: C_7  and  O_6 
REMARK    5  A    between atoms: C_9  and  C_10 
REMARK    6  A    between atoms: N_15  and  C_14 
REMARK    7  A    between atoms: N_20  and  C_19 
REMARK       I    between atoms: C_22  and  N_20 
ROOT
ATOM      1  C   LIG d   1       0.403  83.217 111.544  0.00  0.00     0.161 C 
ATOM      2  C   LIG d   1      -0.704  83.011 112.384  0.00  0.00     0.016 C 
ATOM      3  C   LIG d   1      -1.182  81.730 112.742  0.00  0.00     0.038 C 
ATOM      4  C   LIG d   1      -0.489  80.558 112.402  0.00  0.00     0.028 C 
ATOM      5  C   LIG d   1       0.347  80.695 111.134  0.00  0.00    -0.047 C 
ATOM      6  C   LIG d   1       1.238  81.952 111.254  0.00  0.00     0.091 C 
ENDROOT
BRANCH   1   7
ATOM      7  O   LIG d   1       1.240  84.258 112.085  0.00  0.00    -0.368 OA
BRANCH   7   8
ATOM      8  C   LIG d   1       1.305  85.486 111.320  0.00  0.00     0.119 C 
BRANCH   8   9
ATOM      9  C   LIG d   1       0.323  85.349 110.140  0.00  0.00     0.028 C 
ATOM     10  C   LIG d   1       1.026  85.451 108.776  0.00  0.00     0.006 C 
ENDBRANCH   8   9
BRANCH   8  11
ATOM     11  C   LIG d   1       2.684  85.673 110.680  0.00  0.00     0.028 C 
ATOM     12  C   LIG d   1       3.817  85.063 111.520  0.00  0.00     0.006 C 
ENDBRANCH   8  11
ENDBRANCH   7   8
ENDBRANCH   1   7
BRANCH   6  13
ATOM     13  N   LIG d   1       2.028  82.207 110.021  0.00  0.00    -0.311 N 
ATOM     14  C   LIG d   1       3.284  81.796 109.856  0.00  0.00     0.210 C 
ATOM     15  C   LIG d   1       3.920  82.182 108.517  0.00  0.00     0.109 C 
ATOM     16  O   LIG d   1       3.920  81.120 110.679  0.00  0.00    -0.276 OA
ATOM     17  H   LIG d   1       1.577  82.722 109.290  0.00  0.00     0.149 HD
ENDBRANCH   6  13
BRANCH   5  18
ATOM     18  N   LIG d   1       1.121  79.450 110.975  0.00  0.00     0.381 N 
ATOM     19  H   LIG d   1       1.638  79.480 110.119  0.00  0.00    -0.090 HD
ATOM     20  H   LIG d   1       0.484  78.674 110.932  0.00  0.00    -0.090 HD
ATOM     21  H   LIG d   1       1.745  79.335 111.744  0.00  0.00    -0.090 HD
ENDBRANCH   5  18
BRANCH   3  22
ATOM     22  C   LIG d   1      -2.389  81.610 113.414  0.00  0.00     0.382 C 
ATOM     23  O   LIG d   1      -3.244  80.778 113.024  0.00  0.00    -0.241 OA
ATOM     24  O   LIG d   1      -2.653  82.353 114.378  0.00  0.00    -0.241 OA
ENDBRANCH   3  22
TORSDOF 7
ENDMDL
MODEL 3
REMARK VINA RESULT:      -6.1      2.705      4.933
REMARK  7 active torsions:
REMARK  status: ('A' for Active; 'I' for Inactive)
REMARK    1  A    between atoms: C_2  and  C_3 
REMARK    2  A    between atoms: C_3  and  O_6 
REMARK    3  A    between atoms: C_3  and  C_4 
REMARK    4  A    between atoms: C_7  and  O_6 
REMARK    5  A    between atoms: C_9  and  C_10 
REMARK    6  A    between atoms: N_15  and  C_14 
REMARK    7  A    between atoms: N_20  and  C_19 
REMARK       I    between atoms: C_22  and  N_20 
ROOT
ATOM      1  C   LIG d   1       2.106  83.782 111.543  0.00  0.00     0.161 C 
ATOM      2  C   LIG d   1       1.087  82.816 111.532  0.00  0.00     0.016 C 
ATOM      3  C   LIG d   1      -0.120  82.949 112.256  0.00  0.00     0.038 C 
ATOM      4  C   LIG d   1      -0.456  84.134 112.926  0.00  0.00     0.028 C 
ATOM      5  C   LIG d   1       0.758  84.938 113.381  0.00  0.00    -0.047 C 
ATOM      6  C   LIG d   1       1.711  85.131 112.179  0.00  0.00     0.091 C 
ENDROOT
BRANCH   1   7
ATOM      7  O   LIG d   1       2.603  83.985 110.205  0.00  0.00    -0.368 OA
BRANCH   7   8
ATOM      8  C   LIG d   1       2.085  83.089 109.191  0.00  0.00     0.119 C 
BRANCH   8   9
ATOM      9  C   LIG d   1       3.289  82.373 108.548  0.00  0.00     0.028 C 
ATOM     10  C   LIG d   1       4.598  82.621 109.316  0.00  0.00     0.006 C 
ENDBRANCH   8   9
BRANCH   8  11
ATOM     11  C   LIG d   1       1.419  83.865 108.051  0.00  0.00     0.028 C 
ATOM     12  C   LIG d   1       1.006  85.288 108.459  0.00  0.00     0.006 C 
ENDBRANCH   8  11
ENDBRANCH   7   8
ENDBRANCH   1   7
BRANCH   6  13
ATOM     13  N   LIG d   1       2.964  85.835 112.557  0.00  0.00    -0.311 N 
ATOM     14  C   LIG d   1       3.381  86.956 111.971  0.00  0.00     0.210 C 
ATOM     15  C   LIG d   1       4.710  87.507 112.499  0.00  0.00     0.109 C 
ATOM     16  O   LIG d   1       2.759  87.565 111.087  0.00  0.00    -0.276 OA
ATOM     17  H   LIG d   1       3.514  85.427 113.287  0.00  0.00     0.149 HD
ENDBRANCH   6  13
BRANCH   5  18
ATOM     18  N   LIG d   1       0.266  86.211 113.940  0.00  0.00     0.381 N 
ATOM     19  H   LIG d   1      -0.727  86.169 114.055  0.00  0.00    -0.090 HD
ATOM     20  H   LIG d   1       0.478  86.952 113.296  0.00  0.00    -0.090 HD
ATOM     21  H   LIG d   1       0.702  86.389 114.818  0.00  0.00    -0.090 HD
ENDBRANCH   5  18
BRANCH   3  22
ATOM     22  C   LIG d   1      -0.988  81.872 112.348  0.00  0.00     0.382 C 
ATOM     23  O   LIG d   1      -0.595  80.721 112.041  0.00  0.00    -0.241 OA
ATOM     24  O   LIG d   1      -2.173  82.043 112.691  0.00  0.00    -0.241 OA
ENDBRANCH   3  22
TORSDOF 7
ENDMDL
MODEL 4
REMARK VINA RESULT:      -6.1      2.494      5.800
REMARK  7 active torsions:
REMARK  status: ('A' for Active; 'I' for Inactive)
REMARK    1  A    between atoms: C_2  and  C_3 
REMARK    2  A    between atoms: C_3  and  O_6 
REMARK    3  A    between atoms: C_3  and  C_4 
REMARK    4  A    between atoms: C_7  and  O_6 
REMARK    5  A    between atoms: C_9  and  C_10 
REMARK    6  A    between atoms: N_15  and  C_14 
REMARK    7  A    between atoms: N_20  and  C_19 
REMARK       I    between atoms: C_22  and  N_20 
ROOT
ATOM      1  C   LIG d   1       1.129  83.127 110.928  0.00  0.00     0.161 C 
ATOM      2  C   LIG d   1       0.653  81.874 110.507  0.00  0.00     0.016 C 
ATOM      3  C   LIG d   1       1.461  80.912 109.860  0.00  0.00     0.038 C 
ATOM      4  C   LIG d   1       2.848  81.078 109.726  0.00  0.00     0.028 C 
ATOM      5  C   LIG d   1       3.281  82.539 109.683  0.00  0.00    -0.047 C 
ATOM      6  C   LIG d   1       2.664  83.281 110.890  0.00  0.00     0.091 C 
ENDROOT
BRANCH   1   7
ATOM      7  O   LIG d   1       0.628  83.422 112.247  0.00  0.00    -0.368 OA
BRANCH   7   8
ATOM      8  C   LIG d   1      -0.407  84.432 112.325  0.00  0.00     0.119 C 
BRANCH   8   9
ATOM      9  C   LIG d   1      -0.635  84.973 110.900  0.00  0.00     0.028 C 
ATOM     10  C   LIG d   1      -1.001  86.466 110.890  0.00  0.00     0.006 C 
ENDBRANCH   8   9
BRANCH   8  11
ATOM     11  C   LIG d   1       0.053  85.639 113.148  0.00  0.00     0.028 C 
ATOM     12  C   LIG d   1       0.957  85.246 114.327  0.00  0.00     0.006 C 
ENDBRANCH   8  11
ENDBRANCH   7   8
ENDBRANCH   1   7
BRANCH   6  13
ATOM     13  N   LIG d   1       2.969  84.736 110.878  0.00  0.00    -0.311 N 
ATOM     14  C   LIG d   1       3.701  85.339 111.813  0.00  0.00     0.210 C 
ATOM     15  C   LIG d   1       3.878  86.849 111.622  0.00  0.00     0.109 C 
ATOM     16  O   LIG d   1       4.247  84.762 112.766  0.00  0.00    -0.276 OA
ATOM     17  H   LIG d   1       2.591  85.275 110.124  0.00  0.00     0.149 HD
ENDBRANCH   6  13
BRANCH   5  18
ATOM     18  N   LIG d   1       4.756  82.567 109.681  0.00  0.00     0.381 N 
ATOM     19  H   LIG d   1       5.085  83.170 110.408  0.00  0.00    -0.090 HD
ATOM     20  H   LIG d   1       5.073  82.932 108.800  0.00  0.00    -0.090 HD
ATOM     21  H   LIG d   1       5.115  81.647 109.816  0.00  0.00    -0.090 HD
ENDBRANCH   5  18
BRANCH   3  22
ATOM     22  C   LIG d   1       0.876  79.784 109.304  0.00  0.00     0.382 C 
ATOM     23  O   LIG d   1      -0.351  79.778 109.045  0.00  0.00    -0.241 OA
ATOM     24  O   LIG d   1       1.552  78.758 109.100  0.00  0.00    -0.241 OA
ENDBRANCH   3  22
TORSDOF 7
ENDMDL
MODEL 5
REMARK VINA RESULT:      -6.0      2.280      3.829
REMARK  7 active torsions:
REMARK  status: ('A' for Active; 'I' for Inactive)
REMARK    1  A    between atoms: C_2  and  C_3 
REMARK    2  A    between atoms: C_3  and  O_6 
REMARK    3  A    between atoms: C_3  and  C_4 
REMARK    4  A    between atoms: C_7  and  O_6 
REMARK    5  A    between atoms: C_9  and  C_10 
REMARK    6  A    between atoms: N_15  and  C_14 
REMARK    7  A    between atoms: N_20  and  C_19 
REMARK       I    between atoms: C_22  and  N_20 
ROOT
ATOM      1  C   LIG d   1       1.384  83.090 110.426  0.00  0.00     0.161 C 
ATOM      2  C   LIG d   1       1.556  83.414 109.070  0.00  0.00     0.016 C 
ATOM      3  C   LIG d   1       1.156  84.647 108.507  0.00  0.00     0.038 C 
ATOM      4  C   LIG d   1       0.689  85.707 109.300  0.00  0.00     0.028 C 
ATOM      5  C   LIG d   1       0.028  85.249 110.595  0.00  0.00    -0.047 C 
ATOM      6  C   LIG d   1       0.979  84.275 111.327  0.00  0.00     0.091 C 
ENDROOT
BRANCH   1   7
ATOM      7  O   LIG d   1       2.576  82.459 110.933  0.00  0.00    -0.368 OA
BRANCH   7   8
ATOM      8  C   LIG d   1       2.512  81.022 111.108  0.00  0.00     0.119 C 
BRANCH   8   9
ATOM      9  C   LIG d   1       3.359  80.381 109.992  0.00  0.00     0.028 C 
ATOM     10  C   LIG d   1       4.419  81.345 109.432  0.00  0.00     0.006 C 
ENDBRANCH   8   9
BRANCH   8  11
ATOM     11  C   LIG d   1       1.090  80.497 110.891  0.00  0.00     0.028 C 
ATOM     12  C   LIG d   1       1.042  79.273 109.964  0.00  0.00     0.006 C 
ENDBRANCH   8  11
ENDBRANCH   7   8
ENDBRANCH   1   7
BRANCH   6  13
ATOM     13  N   LIG d   1       0.374  83.713 112.563  0.00  0.00    -0.311 N 
ATOM     14  C   LIG d   1      -0.820  83.122 112.592  0.00  0.00     0.210 C 
ATOM     15  C   LIG d   1      -1.265  82.631 113.973  0.00  0.00     0.109 C 
ATOM     16  O   LIG d   1      -1.537  82.929 111.599  0.00  0.00    -0.276 OA
ATOM     17  H   LIG d   1       0.902  83.799 113.409  0.00  0.00     0.149 HD
ENDBRANCH   6  13
BRANCH   5  18
ATOM     18  N   LIG d   1      -0.286  86.454 111.385  0.00  0.00     0.381 N 
ATOM     19  H   LIG d   1       0.362  87.183 111.164  0.00  0.00    -0.090 HD
ATOM     20  H   LIG d   1      -0.194  86.235 112.362  0.00  0.00    -0.090 HD
ATOM     21  H   LIG d   1      -1.216  86.756 111.192  0.00  0.00    -0.090 HD
ENDBRANCH   5  18
BRANCH   3  22
ATOM     22  C   LIG d   1       1.183  84.816 107.131  0.00  0.00     0.382 C 
ATOM     23  O   LIG d   1       0.772  85.887 106.623  0.00  0.00    -0.241 OA
ATOM     24  O   LIG d   1       1.571  83.895 106.389  0.00  0.00    -0.241 OA
ENDBRANCH   3  22
TORSDOF 7
ENDMDL
MODEL 6
REMARK VINA RESULT:      -5.8      2.283      3.441
REMARK  7 active torsions:
REMARK  status: ('A' for Active; 'I' for Inactive)
REMARK    1  A    between atoms: C_2  and  C_3 
REMARK    2  A    between atoms: C_3  and  O_6 
REMARK    3  A    between atoms: C_3  and  C_4 
REMARK    4  A    between atoms: C_7  and  O_6 
REMARK    5  A    between atoms: C_9  and  C_10 
REMARK    6  A    between atoms: N_15  and  C_14 
REMARK    7  A    between atoms: N_20  and  C_19 
REMARK       I    between atoms: C_22  and  N_20 
ROOT
ATOM      1  C   LIG d   1       1.189  84.053 111.196  0.00  0.00     0.161 C 
ATOM      2  C   LIG d   1       2.074  85.130 111.020  0.00  0.00     0.016 C 
ATOM      3  C   LIG d   1       2.189  86.200 111.936  0.00  0.00     0.038 C 
ATOM      4  C   LIG d   1       1.531  86.190 113.175  0.00  0.00     0.028 C 
ATOM      5  C   LIG d   1       0.244  85.371 113.170  0.00  0.00    -0.047 C 
ATOM      6  C   LIG d   1       0.544  83.968 112.595  0.00  0.00     0.091 C 
ENDROOT
BRANCH   1   7
ATOM      7  O   LIG d   1       1.856  82.815 110.876  0.00  0.00    -0.368 OA
BRANCH   7   8
ATOM      8  C   LIG d   1       1.696  82.338 109.517  0.00  0.00     0.119 C 
BRANCH   8   9
ATOM      9  C   LIG d   1       0.990  80.970 109.587  0.00  0.00     0.028 C 
ATOM     10  C   LIG d   1       1.113  80.316 110.974  0.00  0.00     0.006 C 
ENDBRANCH   8   9
BRANCH   8  11
ATOM     11  C   LIG d   1       3.051  82.061 108.860  0.00  0.00     0.028 C 
ATOM     12  C   LIG d   1       4.237  82.347 109.796  0.00  0.00     0.006 C 
ENDBRANCH   8  11
ENDBRANCH   7   8
ENDBRANCH   1   7
BRANCH   6  13
ATOM     13  N   LIG d   1      -0.678  83.130 112.477  0.00  0.00    -0.311 N 
ATOM     14  C   LIG d   1      -1.082  82.285 113.424  0.00  0.00     0.210 C 
ATOM     15  C   LIG d   1      -2.357  81.504 113.092  0.00  0.00     0.109 C 
ATOM     16  O   LIG d   1      -0.523  82.133 114.521  0.00  0.00    -0.276 OA
ATOM     17  H   LIG d   1      -1.208  83.214 111.632  0.00  0.00     0.149 HD
ENDBRANCH   6  13
BRANCH   5  18
ATOM     18  N   LIG d   1      -0.264  85.332 114.554  0.00  0.00     0.381 N 
ATOM     19  H   LIG d   1      -0.538  86.250 114.841  0.00  0.00    -0.090 HD
ATOM     20  H   LIG d   1       0.472  85.018 115.162  0.00  0.00    -0.090 HD
ATOM     21  H   LIG d   1      -1.042  84.712 114.615  0.00  0.00    -0.090 HD
ENDBRANCH   5  18
BRANCH   3  22
ATOM     22  C   LIG d   1       2.939  87.316 111.598  0.00  0.00     0.382 C 
ATOM     23  O   LIG d   1       2.371  88.418 111.402  0.00  0.00    -0.241 OA
ATOM     24  O   LIG d   1       4.172  87.226 111.444  0.00  0.00    -0.241 OA
ENDBRANCH   3  22
TORSDOF 7
ENDMDL
MODEL 7
REMARK VINA RESULT:      -5.8      2.509      4.130
REMARK  7 active torsions:
REMARK  status: ('A' for Active; 'I' for Inactive)
REMARK    1  A    between atoms: C_2  and  C_3 
REMARK    2  A    between atoms: C_3  and  O_6 
REMARK    3  A    between atoms: C_3  and  C_4 
REMARK    4  A    between atoms: C_7  and  O_6 
REMARK    5  A    between atoms: C_9  and  C_10 
REMARK    6  A    between atoms: N_15  and  C_14 
REMARK    7  A    between atoms: N_20  and  C_19 
REMARK       I    between atoms: C_22  and  N_20 
ROOT
ATOM      1  C   LIG d   1       0.278  83.279 111.416  0.00  0.00     0.161 C 
ATOM      2  C   LIG d   1      -0.813  83.057 112.273  0.00  0.00     0.016 C 
ATOM      3  C   LIG d   1      -1.217  81.771 112.701  0.00  0.00     0.038 C 
ATOM      4  C   LIG d   1      -0.461  80.624 112.420  0.00  0.00     0.028 C 
ATOM      5  C   LIG d   1       0.362  80.740 111.141  0.00  0.00    -0.047 C 
ATOM      6  C   LIG d   1       1.182  82.049 111.188  0.00  0.00     0.091 C 
ENDROOT
BRANCH   1   7
ATOM      7  O   LIG d   1       1.057  84.392 111.895  0.00  0.00    -0.368 OA
BRANCH   7   8
ATOM      8  C   LIG d   1       2.185  84.062 112.743  0.00  0.00     0.119 C 
BRANCH   8   9
ATOM      9  C   LIG d   1       1.916  84.674 114.131  0.00  0.00     0.028 C 
ATOM     10  C   LIG d   1       0.892  85.821 114.079  0.00  0.00     0.006 C 
ENDBRANCH   8   9
BRANCH   8  11
ATOM     11  C   LIG d   1       3.470  84.733 112.247  0.00  0.00     0.028 C 
ATOM     12  C   LIG d   1       3.261  85.539 110.955  0.00  0.00     0.006 C 
ENDBRANCH   8  11
ENDBRANCH   7   8
ENDBRANCH   1   7
BRANCH   6  13
ATOM     13  N   LIG d   1       1.951  82.282 109.938  0.00  0.00    -0.311 N 
ATOM     14  C   LIG d   1       3.225  81.927 109.784  0.00  0.00     0.210 C 
ATOM     15  C   LIG d   1       3.835  82.277 108.423  0.00  0.00     0.109 C 
ATOM     16  O   LIG d   1       3.899  81.326 110.634  0.00  0.00    -0.276 OA
ATOM     17  H   LIG d   1       1.471  82.736 109.185  0.00  0.00     0.149 HD
ENDBRANCH   6  13
BRANCH   5  18
ATOM     18  N   LIG d   1       1.204  79.533 111.042  0.00  0.00     0.381 N 
ATOM     19  H   LIG d   1       1.769  79.581 110.218  0.00  0.00    -0.090 HD
ATOM     20  H   LIG d   1       0.610  78.726 110.970  0.00  0.00    -0.090 HD
ATOM     21  H   LIG d   1       1.785  79.456 111.848  0.00  0.00    -0.090 HD
ENDBRANCH   5  18
BRANCH   3  22
ATOM     22  C   LIG d   1      -2.413  81.620 113.386  0.00  0.00     0.382 C 
ATOM     23  O   LIG d   1      -2.644  82.314 114.406  0.00  0.00    -0.241 OA
ATOM     24  O   LIG d   1      -3.245  80.767 113.024  0.00  0.00    -0.241 OA
ENDBRANCH   3  22
TORSDOF 7
ENDMDL
MODEL 8
REMARK VINA RESULT:      -5.7      2.240      3.936
REMARK  7 active torsions:
REMARK  status: ('A' for Active; 'I' for Inactive)
REMARK    1  A    between atoms: C_2  and  C_3 
REMARK    2  A    between atoms: C_3  and  O_6 
REMARK    3  A    between atoms: C_3  and  C_4 
REMARK    4  A    between atoms: C_7  and  O_6 
REMARK    5  A    between atoms: C_9  and  C_10 
REMARK    6  A    between atoms: N_15  and  C_14 
REMARK    7  A    between atoms: N_20  and  C_19 
REMARK       I    between atoms: C_22  and  N_20 
ROOT
ATOM      1  C   LIG d   1       0.278  83.047 111.336  0.00  0.00     0.161 C 
ATOM      2  C   LIG d   1       0.384  84.447 111.380  0.00  0.00     0.016 C 
ATOM      3  C   LIG d   1       1.115  85.203 110.435  0.00  0.00     0.038 C 
ATOM      4  C   LIG d   1       1.669  84.618 109.287  0.00  0.00     0.028 C 
ATOM      5  C   LIG d   1       2.017  83.144 109.466  0.00  0.00    -0.047 C 
ATOM      6  C   LIG d   1       0.783  82.402 110.028  0.00  0.00     0.091 C 
ENDROOT
BRANCH   1   7
ATOM      7  O   LIG d   1      -1.083  82.651 111.597  0.00  0.00    -0.368 OA
BRANCH   7   8
ATOM      8  C   LIG d   1      -1.339  82.067 112.898  0.00  0.00     0.119 C 
BRANCH   8   9
ATOM      9  C   LIG d   1      -0.202  82.514 113.837  0.00  0.00     0.028 C 
ATOM     10  C   LIG d   1       0.468  81.328 114.553  0.00  0.00     0.006 C 
ENDBRANCH   8   9
BRANCH   8  11
ATOM     11  C   LIG d   1      -1.248  80.539 112.850  0.00  0.00     0.028 C 
ATOM     12  C   LIG d   1      -2.611  79.855 113.042  0.00  0.00     0.006 C 
ENDBRANCH   8  11
ENDBRANCH   7   8
ENDBRANCH   1   7
BRANCH   6  13
ATOM     13  N   LIG d   1       1.064  80.970 110.312  0.00  0.00    -0.311 N 
ATOM     14  C   LIG d   1       0.461  79.966 109.679  0.00  0.00     0.210 C 
ATOM     15  C   LIG d   1       0.882  78.566 110.139  0.00  0.00     0.109 C 
ATOM     16  O   LIG d   1      -0.359  80.100 108.758  0.00  0.00    -0.276 OA
ATOM     17  H   LIG d   1       1.739  80.770 111.024  0.00  0.00     0.149 HD
ENDBRANCH   6  13
BRANCH   5  18
ATOM     18  N   LIG d   1       2.455  82.627 108.156  0.00  0.00     0.381 N 
ATOM     19  H   LIG d   1       1.678  82.221 107.675  0.00  0.00    -0.090 HD
ATOM     20  H   LIG d   1       3.144  81.911 108.303  0.00  0.00    -0.090 HD
ATOM     21  H   LIG d   1       2.844  83.365 107.611  0.00  0.00    -0.090 HD
ENDBRANCH   5  18
BRANCH   3  22
ATOM     22  C   LIG d   1       1.332  86.555 110.656  0.00  0.00     0.382 C 
ATOM     23  O   LIG d   1       0.390  87.285 111.050  0.00  0.00    -0.241 OA
ATOM     24  O   LIG d   1       2.445  87.062 110.423  0.00  0.00    -0.241 OA
ENDBRANCH   3  22
TORSDOF 7
ENDMDL
MODEL 9
REMARK VINA RESULT:      -5.6      1.787      2.413
REMARK  7 active torsions:
REMARK  status: ('A' for Active; 'I' for Inactive)
REMARK    1  A    between atoms: C_2  and  C_3 
REMARK    2  A    between atoms: C_3  and  O_6 
REMARK    3  A    between atoms: C_3  and  C_4 
REMARK    4  A    between atoms: C_7  and  O_6 
REMARK    5  A    between atoms: C_9  and  C_10 
REMARK    6  A    between atoms: N_15  and  C_14 
REMARK    7  A    between atoms: N_20  and  C_19 
REMARK       I    between atoms: C_22  and  N_20 
ROOT
ATOM      1  C   LIG d   1       0.484  83.128 110.373  0.00  0.00     0.161 C 
ATOM      2  C   LIG d   1       1.076  84.390 110.199  0.00  0.00     0.016 C 
ATOM      3  C   LIG d   1       1.314  85.291 111.262  0.00  0.00     0.038 C 
ATOM      4  C   LIG d   1       1.112  84.927 112.602  0.00  0.00     0.028 C 
ATOM      5  C   LIG d   1       0.045  83.853 112.784  0.00  0.00    -0.047 C 
ATOM      6  C   LIG d   1       0.360  82.669 111.841  0.00  0.00     0.091 C 
ENDROOT
BRANCH   1   7
ATOM      7  O   LIG d   1       1.197  82.143 109.599  0.00  0.00    -0.368 OA
BRANCH   7   8
ATOM      8  C   LIG d   1       2.371  81.569 110.225  0.00  0.00     0.119 C 
BRANCH   8   9
ATOM      9  C   LIG d   1       3.578  81.882 109.319  0.00  0.00     0.028 C 
ATOM     10  C   LIG d   1       4.409  83.068 109.838  0.00  0.00     0.006 C 
ENDBRANCH   8   9
BRANCH   8  11
ATOM     11  C   LIG d   1       2.286  80.040 110.272  0.00  0.00     0.028 C 
ATOM     12  C   LIG d   1       1.049  79.490 109.545  0.00  0.00     0.006 C 
ENDBRANCH   8  11
ENDBRANCH   7   8
ENDBRANCH   1   7
BRANCH   6  13
ATOM     13  N   LIG d   1      -0.682  81.610 111.895  0.00  0.00    -0.311 N 
ATOM     14  C   LIG d   1      -0.644  80.587 112.747  0.00  0.00     0.210 C 
ATOM     15  C   LIG d   1      -1.806  79.597 112.621  0.00  0.00     0.109 C 
ATOM     16  O   LIG d   1       0.225  80.422 113.616  0.00  0.00    -0.276 OA
ATOM     17  H   LIG d   1      -1.440  81.683 111.245  0.00  0.00     0.149 HD
ENDBRANCH   6  13
BRANCH   5  18
ATOM     18  N   LIG d   1       0.036  83.471 114.209  0.00  0.00     0.381 N 
ATOM     19  H   LIG d   1      -0.378  84.202 114.752  0.00  0.00    -0.090 HD
ATOM     20  H   LIG d   1       0.984  83.346 114.518  0.00  0.00    -0.090 HD
ATOM     21  H   LIG d   1      -0.476  82.625 114.331  0.00  0.00    -0.090 HD
ENDBRANCH   5  18
BRANCH   3  22
ATOM     22  C   LIG d   1       1.721  86.588 110.986  0.00  0.00     0.382 C 
ATOM     23  O   LIG d   1       2.875  86.801 110.542  0.00  0.00    -0.241 OA
ATOM     24  O   LIG d   1       0.966  87.550 111.217  0.00  0.00    -0.241 OA
ENDBRANCH   3  22
TORSDOF 7
ENDMDL
