MODEL 1
REMARK VINA RESULT:      -6.6      0.000      0.000
REMARK  7 active torsions:
REMARK  status: ('A' for Active; 'I' for Inactive)
REMARK    1  A    between atoms: C_2  and  C_3 
REMARK    2  A    between atoms: C_3  and  O_6 
REMARK    3  A    between atoms: C_3  and  C_4 
REMARK    4  A    between atoms: C_7  and  O_6 
REMARK    5  A    between atoms: C_9  and  C_10 
REMARK    6  A    between atoms: N_15  and  C_14 
REMARK    7  A    between atoms: N_20  and  C_19 
REMARK       I    between atoms: C_22  and  N_20 
ROOT
ATOM      1  C   LIG d   1       1.418  83.153 111.544  0.00  0.00     0.161 C 
ATOM      2  C   LIG d   1       2.338  82.984 110.496  0.00  0.00     0.016 C 
ATOM      3  C   LIG d   1       2.297  81.897 109.593  0.00  0.00     0.038 C 
ATOM      4  C   LIG d   1       1.235  80.980 109.583  0.00  0.00     0.028 C 
ATOM      5  C   LIG d   1       0.558  80.824 110.941  0.00  0.00    -0.047 C 
ATOM      6  C   LIG d   1       0.188  82.224 111.481  0.00  0.00     0.091 C 
ENDROOT
BRANCH   1   7
ATOM      7  O   LIG d   1       1.003  84.532 111.611  0.00  0.00    -0.368 OA
BRANCH   7   8
ATOM      8  C   LIG d   1       1.618  85.430 110.655  0.00  0.00     0.119 C 
BRANCH   8   9
ATOM      9  C   LIG d   1       2.172  86.634 111.442  0.00  0.00     0.028 C 
ATOM     10  C   LIG d   1       3.621  86.413 111.909  0.00  0.00     0.006 C 
ENDBRANCH   8   9
BRANCH   8  11
ATOM     11  C   LIG d   1       0.580  86.017 109.694  0.00  0.00     0.028 C 
ATOM     12  C   LIG d   1      -0.780  86.264 110.365  0.00  0.00     0.006 C 
ENDBRANCH   8  11
ENDBRANCH   7   8
ENDBRANCH   1   7
BRANCH   6  13
ATOM     13  N   LIG d   1      -0.403  82.168 112.844  0.00  0.00    -0.311 N 
ATOM     14  C   LIG d   1      -1.715  82.200 113.076  0.00  0.00     0.210 C 
ATOM     15  C   LIG d   1      -2.111  82.151 114.555  0.00  0.00     0.109 C 
ATOM     16  O   LIG d   1      -2.588  82.231 112.196  0.00  0.00    -0.276 OA
ATOM     17  H   LIG d   1       0.232  82.110 113.615  0.00  0.00     0.149 HD
ENDBRANCH   6  13
BRANCH   5  18
ATOM     18  N   LIG d   1      -0.614  79.948 110.756  0.00  0.00     0.381 N 
ATOM     19  H   LIG d   1      -1.050  80.146 109.878  0.00  0.00    -0.090 HD
ATOM     20  H   LIG d   1      -1.278  80.134 111.487  0.00  0.00    -0.090 HD
ATOM     21  H   LIG d   1      -0.334  78.992 110.787  0.00  0.00    -0.090 HD
ENDBRANCH   5  18
BRANCH   3  22
ATOM     22  C   LIG d   1       3.348  81.696 108.711  0.00  0.00     0.382 C 
ATOM     23  O   LIG d   1       4.028  80.644 108.775  0.00  0.00    -0.241 OA
ATOM     24  O   LIG d   1       3.652  82.573 107.880  0.00  0.00    -0.241 OA
ENDBRANCH   3  22
TORSDOF 7
ENDMDL
MODEL 2
REMARK VINA RESULT:      -6.4      2.398      5.082
REMARK  7 active torsions:
REMARK  status: ('A' for Active; 'I' for Inactive)
REMARK    1  A    between atoms: C_2  and  C_3 
REMARK    2  A    between atoms: C_3  and  O_6 
REMARK    3  A    between atoms: C_3  and  C_4 
REMARK    4  A    between atoms: C_7  and  O_6 
REMARK    5  A    between atoms: C_9  and  C_10 
REMARK    6  A    between atoms: N_15  and  C_14 
REMARK    7  A    between atoms: N_20  and  C_19 
REMARK       I    between atoms: C_22  and  N_20 
ROOT
ATOM      1  C   LIG d   1       2.470  82.710 111.564  0.00  0.00     0.161 C 
ATOM      2  C   LIG d   1       2.491  84.052 111.978  0.00  0.00     0.016 C 
ATOM      3  C   LIG d   1       2.125  85.131 111.141  0.00  0.00     0.038 C 
ATOM      4  C   LIG d   1       1.564  84.927 109.872  0.00  0.00     0.028 C 
ATOM      5  C   LIG d   1       1.995  83.616 109.223  0.00  0.00    -0.047 C 
ATOM      6  C   LIG d   1       1.755  82.459 110.220  0.00  0.00     0.091 C 
ENDROOT
BRANCH   1   7
ATOM      7  O   LIG d   1       1.893  81.888 112.599  0.00  0.00    -0.368 OA
BRANCH   7   8
ATOM      8  C   LIG d   1       0.448  81.916 112.704  0.00  0.00     0.119 C 
BRANCH   8   9
ATOM      9  C   LIG d   1       0.093  82.654 114.010  0.00  0.00     0.028 C 
ATOM     10  C   LIG d   1      -1.288  82.252 114.554  0.00  0.00     0.006 C 
ENDBRANCH   8   9
BRANCH   8  11
ATOM     11  C   LIG d   1      -0.126  80.506 112.866  0.00  0.00     0.028 C 
ATOM     12  C   LIG d   1      -1.014  80.085 111.685  0.00  0.00     0.006 C 
ENDBRANCH   8  11
ENDBRANCH   7   8
ENDBRANCH   1   7
BRANCH   6  13
ATOM     13  N   LIG d   1       2.228  81.152 109.696  0.00  0.00    -0.311 N 
ATOM     14  C   LIG d   1       1.474  80.344 108.951  0.00  0.00     0.210 C 
ATOM     15  C   LIG d   1       2.149  79.035 108.531  0.00  0.00     0.109 C 
ATOM     16  O   LIG d   1       0.323  80.603 108.570  0.00  0.00    -0.276 OA
ATOM     17  H   LIG d   1       3.162  80.877 109.930  0.00  0.00     0.149 HD
ENDBRANCH   6  13
BRANCH   5  18
ATOM     18  N   LIG d   1       1.231  83.467 107.970  0.00  0.00     0.381 N 
ATOM     19  H   LIG d   1       0.426  82.894 108.130  0.00  0.00    -0.090 HD
ATOM     20  H   LIG d   1       1.811  83.011 107.287  0.00  0.00    -0.090 HD
ATOM     21  H   LIG d   1       0.950  84.361 107.633  0.00  0.00    -0.090 HD
ENDBRANCH   5  18
BRANCH   3  22
ATOM     22  C   LIG d   1       2.356  86.433 111.557  0.00  0.00     0.382 C 
ATOM     23  O   LIG d   1       1.389  87.193 111.805  0.00  0.00    -0.241 OA
ATOM     24  O   LIG d   1       3.519  86.871 111.645  0.00  0.00    -0.241 OA
ENDBRANCH   3  22
TORSDOF 7
ENDMDL
MODEL 3
REMARK VINA RESULT:      -6.4      1.579      4.912
REMARK  7 active torsions:
REMARK  status: ('A' for Active; 'I' for Inactive)
REMARK    1  A    between atoms: C_2  and  C_3 
REMARK    2  A    between atoms: C_3  and  O_6 
REMARK    3  A    between atoms: C_3  and  C_4 
REMARK    4  A    between atoms: C_7  and  O_6 
REMARK    5  A    between atoms: C_9  and  C_10 
REMARK    6  A    between atoms: N_15  and  C_14 
REMARK    7  A    between atoms: N_20  and  C_19 
REMARK       I    between atoms: C_22  and  N_20 
ROOT
ATOM      1  C   LIG d   1       0.758  82.933 111.619  0.00  0.00     0.161 C 
ATOM      2  C   LIG d   1      -0.347  82.768 112.470  0.00  0.00     0.016 C 
ATOM      3  C   LIG d   1      -1.169  81.617 112.463  0.00  0.00     0.038 C 
ATOM      4  C   LIG d   1      -0.848  80.481 111.705  0.00  0.00     0.028 C 
ATOM      5  C   LIG d   1      -0.029  80.797 110.458  0.00  0.00    -0.047 C 
ATOM      6  C   LIG d   1       1.189  81.658 110.863  0.00  0.00     0.091 C 
ENDROOT
BRANCH   1   7
ATOM      7  O   LIG d   1       1.869  83.475 112.360  0.00  0.00    -0.368 OA
BRANCH   7   8
ATOM      8  C   LIG d   1       2.053  84.910 112.274  0.00  0.00     0.119 C 
BRANCH   8   9
ATOM      9  C   LIG d   1       2.240  85.264 110.786  0.00  0.00     0.028 C 
ATOM     10  C   LIG d   1       1.120  86.175 110.255  0.00  0.00     0.006 C 
ENDBRANCH   8   9
BRANCH   8  11
ATOM     11  C   LIG d   1       3.351  85.347 112.960  0.00  0.00     0.028 C 
ATOM     12  C   LIG d   1       3.879  86.691 112.434  0.00  0.00     0.006 C 
ENDBRANCH   8  11
ENDBRANCH   7   8
ENDBRANCH   1   7
BRANCH   6  13
ATOM     13  N   LIG d   1       1.998  82.082 109.690  0.00  0.00    -0.311 N 
ATOM     14  C   LIG d   1       3.073  81.421 109.264  0.00  0.00     0.210 C 
ATOM     15  C   LIG d   1       3.773  82.041 108.050  0.00  0.00     0.109 C 
ATOM     16  O   LIG d   1       3.494  80.363 109.755  0.00  0.00    -0.276 OA
ATOM     17  H   LIG d   1       1.709  82.914 109.213  0.00  0.00     0.149 HD
ENDBRANCH   6  13
BRANCH   5  18
ATOM     18  N   LIG d   1       0.351  79.513 109.838  0.00  0.00     0.381 N 
ATOM     19  H   LIG d   1       1.238  79.216 110.191  0.00  0.00    -0.090 HD
ATOM     20  H   LIG d   1       0.435  79.644 108.845  0.00  0.00    -0.090 HD
ATOM     21  H   LIG d   1      -0.340  78.823 110.032  0.00  0.00    -0.090 HD
ENDBRANCH   5  18
BRANCH   3  22
ATOM     22  C   LIG d   1      -2.348  81.611 113.193  0.00  0.00     0.382 C 
ATOM     23  O   LIG d   1      -2.344  81.229 114.388  0.00  0.00    -0.241 OA
ATOM     24  O   LIG d   1      -3.424  81.940 112.657  0.00  0.00    -0.241 OA
ENDBRANCH   3  22
TORSDOF 7
ENDMDL
MODEL 4
REMARK VINA RESULT:      -6.3      2.431      5.269
REMARK  7 active torsions:
REMARK  status: ('A' for Active; 'I' for Inactive)
REMARK    1  A    between atoms: C_2  and  C_3 
REMARK    2  A    between atoms: C_3  and  O_6 
REMARK    3  A    between atoms: C_3  and  C_4 
REMARK    4  A    between atoms: C_7  and  O_6 
REMARK    5  A    between atoms: C_9  and  C_10 
REMARK    6  A    between atoms: N_15  and  C_14 
REMARK    7  A    between atoms: N_20  and  C_19 
REMARK       I    between atoms: C_22  and  N_20 
ROOT
ATOM      1  C   LIG d   1       1.933  82.480 112.263  0.00  0.00     0.161 C 
ATOM      2  C   LIG d   1       0.905  81.523 112.255  0.00  0.00     0.016 C 
ATOM      3  C   LIG d   1      -0.465  81.854 112.147  0.00  0.00     0.038 C 
ATOM      4  C   LIG d   1      -0.893  83.164 111.884  0.00  0.00     0.028 C 
ATOM      5  C   LIG d   1       0.075  84.229 112.387  0.00  0.00    -0.047 C 
ATOM      6  C   LIG d   1       1.494  83.905 111.866  0.00  0.00     0.091 C 
ENDROOT
BRANCH   1   7
ATOM      7  O   LIG d   1       3.018  82.038 111.422  0.00  0.00    -0.368 OA
BRANCH   7   8
ATOM      8  C   LIG d   1       2.652  81.583 110.096  0.00  0.00     0.119 C 
BRANCH   8   9
ATOM      9  C   LIG d   1       3.506  80.339 109.782  0.00  0.00     0.028 C 
ATOM     10  C   LIG d   1       2.715  79.261 109.022  0.00  0.00     0.006 C 
ENDBRANCH   8   9
BRANCH   8  11
ATOM     11  C   LIG d   1       3.031  82.615 109.029  0.00  0.00     0.028 C 
ATOM     12  C   LIG d   1       1.810  83.349 108.452  0.00  0.00     0.006 C 
ENDBRANCH   8  11
ENDBRANCH   7   8
ENDBRANCH   1   7
BRANCH   6  13
ATOM     13  N   LIG d   1       2.517  84.851 112.381  0.00  0.00    -0.311 N 
ATOM     14  C   LIG d   1       2.873  85.964 111.743  0.00  0.00     0.210 C 
ATOM     15  C   LIG d   1       3.962  86.789 112.438  0.00  0.00     0.109 C 
ATOM     16  O   LIG d   1       2.369  86.364 110.683  0.00  0.00    -0.276 OA
ATOM     17  H   LIG d   1       2.955  84.620 113.251  0.00  0.00     0.149 HD
ENDBRANCH   6  13
BRANCH   5  18
ATOM     18  N   LIG d   1      -0.425  85.538 111.927  0.00  0.00     0.381 N 
ATOM     19  H   LIG d   1       0.295  86.227 112.020  0.00  0.00    -0.090 HD
ATOM     20  H   LIG d   1      -1.200  85.812 112.505  0.00  0.00    -0.090 HD
ATOM     21  H   LIG d   1      -0.716  85.477 110.976  0.00  0.00    -0.090 HD
ENDBRANCH   5  18
BRANCH   3  22
ATOM     22  C   LIG d   1      -1.426  80.873 112.341  0.00  0.00     0.382 C 
ATOM     23  O   LIG d   1      -1.108  79.662 112.275  0.00  0.00    -0.241 OA
ATOM     24  O   LIG d   1      -2.616  81.185 112.537  0.00  0.00    -0.241 OA
ENDBRANCH   3  22
TORSDOF 7
ENDMDL
MODEL 5
REMARK VINA RESULT:      -6.3      2.046      4.477
REMARK  7 active torsions:
REMARK  status: ('A' for Active; 'I' for Inactive)
REMARK    1  A    between atoms: C_2  and  C_3 
REMARK    2  A    between atoms: C_3  and  O_6 
REMARK    3  A    between atoms: C_3  and  C_4 
REMARK    4  A    between atoms: C_7  and  O_6 
REMARK    5  A    between atoms: C_9  and  C_10 
REMARK    6  A    between atoms: N_15  and  C_14 
REMARK    7  A    between atoms: N_20  and  C_19 
REMARK       I    between atoms: C_22  and  N_20 
ROOT
ATOM      1  C   LIG d   1       0.912  83.167 110.248  0.00  0.00     0.161 C 
ATOM      2  C   LIG d   1       1.622  84.379 110.279  0.00  0.00     0.016 C 
ATOM      3  C   LIG d   1       1.866  85.107 111.466  0.00  0.00     0.038 C 
ATOM      4  C   LIG d   1       1.545  84.593 112.731  0.00  0.00     0.028 C 
ATOM      5  C   LIG d   1       0.379  83.611 112.707  0.00  0.00    -0.047 C 
ATOM      6  C   LIG d   1       0.651  82.535 111.631  0.00  0.00     0.091 C 
ENDROOT
BRANCH   1   7
ATOM      7  O   LIG d   1       1.586  82.228 109.387  0.00  0.00    -0.368 OA
BRANCH   7   8
ATOM      8  C   LIG d   1       2.611  81.415 110.010  0.00  0.00     0.119 C 
BRANCH   8   9
ATOM      9  C   LIG d   1       3.971  81.876 109.451  0.00  0.00     0.028 C 
ATOM     10  C   LIG d   1       3.916  82.172 107.943  0.00  0.00     0.006 C 
ENDBRANCH   8   9
BRANCH   8  11
ATOM     11  C   LIG d   1       2.482  79.945 109.599  0.00  0.00     0.028 C 
ATOM     12  C   LIG d   1       1.299  79.693 108.651  0.00  0.00     0.006 C 
ENDBRANCH   8  11
ENDBRANCH   7   8
ENDBRANCH   1   7
BRANCH   6  13
ATOM     13  N   LIG d   1      -0.480  81.582 111.483  0.00  0.00    -0.311 N 
ATOM     14  C   LIG d   1      -0.624  80.493 112.237  0.00  0.00     0.210 C 
ATOM     15  C   LIG d   1      -1.850  79.636 111.906  0.00  0.00     0.109 C 
ATOM     16  O   LIG d   1       0.129  80.173 113.168  0.00  0.00    -0.276 OA
ATOM     17  H   LIG d   1      -1.155  81.782 110.772  0.00  0.00     0.149 HD
ENDBRANCH   6  13
BRANCH   5  18
ATOM     18  N   LIG d   1       0.241  83.049 114.064  0.00  0.00     0.381 N 
ATOM     19  H   LIG d   1       0.990  83.373 114.642  0.00  0.00    -0.090 HD
ATOM     20  H   LIG d   1       0.296  82.048 114.009  0.00  0.00    -0.090 HD
ATOM     21  H   LIG d   1      -0.633  83.320 114.458  0.00  0.00    -0.090 HD
ENDBRANCH   5  18
BRANCH   3  22
ATOM     22  C   LIG d   1       2.402  86.384 111.391  0.00  0.00     0.382 C 
ATOM     23  O   LIG d   1       3.647  86.542 111.398  0.00  0.00    -0.241 OA
ATOM     24  O   LIG d   1       1.657  87.381 111.360  0.00  0.00    -0.241 OA
ENDBRANCH   3  22
TORSDOF 7
ENDMDL
MODEL 6
REMARK VINA RESULT:      -6.1      2.506      5.377
REMARK  7 active torsions:
REMARK  status: ('A' for Active; 'I' for Inactive)
REMARK    1  A    between atoms: C_2  and  C_3 
REMARK    2  A    between atoms: C_3  and  O_6 
REMARK    3  A    between atoms: C_3  and  C_4 
REMARK    4  A    between atoms: C_7  and  O_6 
REMARK    5  A    between atoms: C_9  and  C_10 
REMARK    6  A    between atoms: N_15  and  C_14 
REMARK    7  A    between atoms: N_20  and  C_19 
REMARK       I    between atoms: C_22  and  N_20 
ROOT
ATOM      1  C   LIG d   1      -0.396  80.774 111.332  0.00  0.00     0.161 C 
ATOM      2  C   LIG d   1      -1.173  79.605 111.282  0.00  0.00     0.016 C 
ATOM      3  C   LIG d   1      -2.250  79.348 112.161  0.00  0.00     0.038 C 
ATOM      4  C   LIG d   1      -2.721  80.317 113.059  0.00  0.00     0.028 C 
ATOM      5  C   LIG d   1      -1.652  81.314 113.491  0.00  0.00    -0.047 C 
ATOM      6  C   LIG d   1      -0.966  81.891 112.232  0.00  0.00     0.091 C 
ENDROOT
BRANCH   1   7
ATOM      7  O   LIG d   1      -0.173  81.271 109.997  0.00  0.00    -0.368 OA
BRANCH   7   8
ATOM      8  C   LIG d   1       1.180  81.154 109.492  0.00  0.00     0.119 C 
BRANCH   8   9
ATOM      9  C   LIG d   1       1.541  82.494 108.822  0.00  0.00     0.028 C 
ATOM     10  C   LIG d   1       2.850  83.089 109.368  0.00  0.00     0.006 C 
ENDBRANCH   8   9
BRANCH   8  11
ATOM     11  C   LIG d   1       1.270  80.107 108.377  0.00  0.00     0.028 C 
ATOM     12  C   LIG d   1       2.320  79.022 108.663  0.00  0.00     0.006 C 
ENDBRANCH   8  11
ENDBRANCH   7   8
ENDBRANCH   1   7
BRANCH   6  13
ATOM     13  N   LIG d   1       0.151  82.813 112.567  0.00  0.00    -0.311 N 
ATOM     14  C   LIG d   1       0.303  84.013 112.011  0.00  0.00     0.210 C 
ATOM     15  C   LIG d   1       1.534  84.794 112.483  0.00  0.00     0.109 C 
ATOM     16  O   LIG d   1      -0.483  84.519 111.195  0.00  0.00    -0.276 OA
ATOM     17  H   LIG d   1       0.818  82.494 113.242  0.00  0.00     0.149 HD
ENDBRANCH   6  13
BRANCH   5  18
ATOM     18  N   LIG d   1      -2.311  82.346 114.314  0.00  0.00     0.381 N 
ATOM     19  H   LIG d   1      -2.167  82.148 115.284  0.00  0.00    -0.090 HD
ATOM     20  H   LIG d   1      -3.298  82.325 114.131  0.00  0.00    -0.090 HD
ATOM     21  H   LIG d   1      -1.943  83.245 114.093  0.00  0.00    -0.090 HD
ENDBRANCH   5  18
BRANCH   3  22
ATOM     22  C   LIG d   1      -2.841  78.094 112.174  0.00  0.00     0.382 C 
ATOM     23  O   LIG d   1      -2.126  77.063 112.207  0.00  0.00    -0.241 OA
ATOM     24  O   LIG d   1      -4.080  77.979 112.110  0.00  0.00    -0.241 OA
ENDBRANCH   3  22
TORSDOF 7
ENDMDL
MODEL 7
REMARK VINA RESULT:      -5.6      1.933      4.395
REMARK  7 active torsions:
REMARK  status: ('A' for Active; 'I' for Inactive)
REMARK    1  A    between atoms: C_2  and  C_3 
REMARK    2  A    between atoms: C_3  and  O_6 
REMARK    3  A    between atoms: C_3  and  C_4 
REMARK    4  A    between atoms: C_7  and  O_6 
REMARK    5  A    between atoms: C_9  and  C_10 
REMARK    6  A    between atoms: N_15  and  C_14 
REMARK    7  A    between atoms: N_20  and  C_19 
REMARK       I    between atoms: C_22  and  N_20 
ROOT
ATOM      1  C   LIG d   1       0.291  82.186 110.589  0.00  0.00     0.161 C 
ATOM      2  C   LIG d   1       0.185  83.559 110.311  0.00  0.00     0.016 C 
ATOM      3  C   LIG d   1      -0.245  84.514 111.260  0.00  0.00     0.038 C 
ATOM      4  C   LIG d   1      -0.455  84.179 112.606  0.00  0.00     0.028 C 
ATOM      5  C   LIG d   1      -0.847  82.720 112.813  0.00  0.00    -0.047 C 
ATOM      6  C   LIG d   1       0.173  81.818 112.083  0.00  0.00     0.091 C 
ENDROOT
BRANCH   1   7
ATOM      7  O   LIG d   1       1.521  81.670 110.042  0.00  0.00    -0.368 OA
BRANCH   7   8
ATOM      8  C   LIG d   1       2.593  82.629 109.867  0.00  0.00     0.119 C 
BRANCH   8   9
ATOM      9  C   LIG d   1       3.395  82.206 108.622  0.00  0.00     0.028 C 
ATOM     10  C   LIG d   1       3.666  80.692 108.585  0.00  0.00     0.006 C 
ENDBRANCH   8   9
BRANCH   8  11
ATOM     11  C   LIG d   1       3.588  82.570 111.030  0.00  0.00     0.028 C 
ATOM     12  C   LIG d   1       3.435  83.748 112.006  0.00  0.00     0.006 C 
ENDBRANCH   8  11
ENDBRANCH   7   8
ENDBRANCH   1   7
BRANCH   6  13
ATOM     13  N   LIG d   1      -0.184  80.378 112.164  0.00  0.00    -0.311 N 
ATOM     14  C   LIG d   1      -1.435  79.938 112.289  0.00  0.00     0.210 C 
ATOM     15  C   LIG d   1      -1.580  78.416 112.376  0.00  0.00     0.109 C 
ATOM     16  O   LIG d   1      -2.441  80.663 112.304  0.00  0.00    -0.276 OA
ATOM     17  H   LIG d   1       0.569  79.718 112.128  0.00  0.00     0.149 HD
ENDBRANCH   6  13
BRANCH   5  18
ATOM     18  N   LIG d   1      -0.900  82.475 114.267  0.00  0.00     0.381 N 
ATOM     19  H   LIG d   1      -1.853  82.431 114.569  0.00  0.00    -0.090 HD
ATOM     20  H   LIG d   1      -0.454  83.240 114.742  0.00  0.00    -0.090 HD
ATOM     21  H   LIG d   1      -0.434  81.622 114.486  0.00  0.00    -0.090 HD
ENDBRANCH   5  18
BRANCH   3  22
ATOM     22  C   LIG d   1      -0.508  85.814 110.856  0.00  0.00     0.382 C 
ATOM     23  O   LIG d   1      -0.574  86.734 111.707  0.00  0.00    -0.241 OA
ATOM     24  O   LIG d   1      -0.724  86.072 109.656  0.00  0.00    -0.241 OA
ENDBRANCH   3  22
TORSDOF 7
ENDMDL
MODEL 8
REMARK VINA RESULT:      -4.9      2.008      4.595
REMARK  7 active torsions:
REMARK  status: ('A' for Active; 'I' for Inactive)
REMARK    1  A    between atoms: C_2  and  C_3 
REMARK    2  A    between atoms: C_3  and  O_6 
REMARK    3  A    between atoms: C_3  and  C_4 
REMARK    4  A    between atoms: C_7  and  O_6 
REMARK    5  A    between atoms: C_9  and  C_10 
REMARK    6  A    between atoms: N_15  and  C_14 
REMARK    7  A    between atoms: N_20  and  C_19 
REMARK       I    between atoms: C_22  and  N_20 
ROOT
ATOM      1  C   LIG d   1       0.787  82.495 111.324  0.00  0.00     0.161 C 
ATOM      2  C   LIG d   1       1.567  81.532 110.662  0.00  0.00     0.016 C 
ATOM      3  C   LIG d   1       2.822  81.817 110.076  0.00  0.00     0.038 C 
ATOM      4  C   LIG d   1       3.455  83.058 110.245  0.00  0.00     0.028 C 
ATOM      5  C   LIG d   1       2.481  84.208 110.473  0.00  0.00    -0.047 C 
ATOM      6  C   LIG d   1       1.511  83.826 111.615  0.00  0.00     0.091 C 
ENDROOT
BRANCH   1   7
ATOM      7  O   LIG d   1       0.253  81.938 112.541  0.00  0.00    -0.368 OA
BRANCH   7   8
ATOM      8  C   LIG d   1      -1.140  81.541 112.504  0.00  0.00     0.119 C 
BRANCH   8   9
ATOM      9  C   LIG d   1      -1.852  82.241 113.678  0.00  0.00     0.028 C 
ATOM     10  C   LIG d   1      -2.764  81.285 114.465  0.00  0.00     0.006 C 
ENDBRANCH   8   9
BRANCH   8  11
ATOM     11  C   LIG d   1      -1.299  80.041 112.770  0.00  0.00     0.028 C 
ATOM     12  C   LIG d   1      -1.666  79.248 111.506  0.00  0.00     0.006 C 
ENDBRANCH   8  11
ENDBRANCH   7   8
ENDBRANCH   1   7
BRANCH   6  13
ATOM     13  N   LIG d   1       0.471  84.863 111.846  0.00  0.00    -0.311 N 
ATOM     14  C   LIG d   1      -0.118  85.543 110.863  0.00  0.00     0.210 C 
ATOM     15  C   LIG d   1      -1.148  86.580 111.321  0.00  0.00     0.109 C 
ATOM     16  O   LIG d   1       0.093  85.363 109.654  0.00  0.00    -0.276 OA
ATOM     17  H   LIG d   1       0.217  85.050 112.796  0.00  0.00     0.149 HD
ENDBRANCH   6  13
BRANCH   5  18
ATOM     18  N   LIG d   1       3.277  85.414 110.771  0.00  0.00     0.381 N 
ATOM     19  H   LIG d   1       4.103  85.159 111.274  0.00  0.00    -0.090 HD
ATOM     20  H   LIG d   1       2.732  86.029 111.349  0.00  0.00    -0.090 HD
ATOM     21  H   LIG d   1       3.525  85.876 109.924  0.00  0.00    -0.090 HD
ENDBRANCH   5  18
BRANCH   3  22
ATOM     22  C   LIG d   1       3.439  80.866 109.278  0.00  0.00     0.382 C 
ATOM     23  O   LIG d   1       3.853  81.180 108.135  0.00  0.00    -0.241 OA
ATOM     24  O   LIG d   1       3.548  79.688 109.667  0.00  0.00    -0.241 OA
ENDBRANCH   3  22
TORSDOF 7
ENDMDL
MODEL 9
REMARK VINA RESULT:      -4.0     28.485     29.541
REMARK  7 active torsions:
REMARK  status: ('A' for Active; 'I' for Inactive)
REMARK    1  A    between atoms: C_2  and  C_3 
REMARK    2  A    between atoms: C_3  and  O_6 
REMARK    3  A    between atoms: C_3  and  C_4 
REMARK    4  A    between atoms: C_7  and  O_6 
REMARK    5  A    between atoms: C_9  and  C_10 
REMARK    6  A    between atoms: N_15  and  C_14 
REMARK    7  A    between atoms: N_20  and  C_19 
REMARK       I    between atoms: C_22  and  N_20 
ROOT
ATOM      1  C   LIG d   1     -21.190  63.483 109.505  0.00  0.00     0.161 C 
ATOM      2  C   LIG d   1     -20.202  62.838 108.743  0.00  0.00     0.016 C 
ATOM      3  C   LIG d   1     -20.010  63.070 107.361  0.00  0.00     0.038 C 
ATOM      4  C   LIG d   1     -20.700  64.081 106.676  0.00  0.00     0.028 C 
ATOM      5  C   LIG d   1     -22.058  64.408 107.287  0.00  0.00    -0.047 C 
ATOM      6  C   LIG d   1     -21.879  64.670 108.799  0.00  0.00     0.091 C 
ENDROOT
BRANCH   1   7
ATOM      7  O   LIG d   1     -20.637  63.903 110.768  0.00  0.00    -0.368 OA
BRANCH   7   8
ATOM      8  C   LIG d   1     -21.126  63.208 111.941  0.00  0.00     0.119 C 
BRANCH   8   9
ATOM      9  C   LIG d   1     -21.685  64.269 112.909  0.00  0.00     0.028 C 
ATOM     10  C   LIG d   1     -20.889  65.584 112.861  0.00  0.00     0.006 C 
ENDBRANCH   8   9
BRANCH   8  11
ATOM     11  C   LIG d   1     -19.985  62.527 112.701  0.00  0.00     0.028 C 
ATOM     12  C   LIG d   1     -19.694  61.106 112.192  0.00  0.00     0.006 C 
ENDBRANCH   8  11
ENDBRANCH   7   8
ENDBRANCH   1   7
BRANCH   6  13
ATOM     13  N   LIG d   1     -23.172  64.915 109.490  0.00  0.00    -0.311 N 
ATOM     14  C   LIG d   1     -23.464  66.052 110.117  0.00  0.00     0.210 C 
ATOM     15  C   LIG d   1     -24.845  66.089 110.780  0.00  0.00     0.109 C 
ATOM     16  O   LIG d   1     -22.724  67.047 110.160  0.00  0.00    -0.276 OA
ATOM     17  H   LIG d   1     -23.843  64.172 109.478  0.00  0.00     0.149 HD
ENDBRANCH   6  13
BRANCH   5  18
ATOM     18  N   LIG d   1     -22.606  65.568 106.560  0.00  0.00     0.381 N 
ATOM     19  H   LIG d   1     -23.001  66.219 107.209  0.00  0.00    -0.090 HD
ATOM     20  H   LIG d   1     -23.337  65.252 105.946  0.00  0.00    -0.090 HD
ATOM     21  H   LIG d   1     -21.887  66.010 106.031  0.00  0.00    -0.090 HD
ENDBRANCH   5  18
BRANCH   3  22
ATOM     22  C   LIG d   1     -19.146  62.258 106.642  0.00  0.00     0.382 C 
ATOM     23  O   LIG d   1     -19.227  62.210 105.391  0.00  0.00    -0.241 OA
ATOM     24  O   LIG d   1     -18.317  61.538 107.231  0.00  0.00    -0.241 OA
ENDBRANCH   3  22
TORSDOF 7
ENDMDL
