MODEL 1
REMARK VINA RESULT:      -5.0      0.000      0.000
REMARK  7 active torsions:
REMARK  status: ('A' for Active; 'I' for Inactive)
REMARK    1  A    between atoms: C_2  and  C_3 
REMARK    2  A    between atoms: C_3  and  O_6 
REMARK    3  A    between atoms: C_3  and  C_4 
REMARK    4  A    between atoms: C_7  and  O_6 
REMARK    5  A    between atoms: C_9  and  C_10 
REMARK    6  A    between atoms: N_15  and  C_14 
REMARK    7  A    between atoms: N_20  and  C_19 
REMARK       I    between atoms: C_22  and  N_20 
ROOT
ATOM      1  C   LIG d   1     -10.826  77.261 119.506  0.00  0.00     0.161 C 
ATOM      2  C   LIG d   1     -11.664  76.392 120.225  0.00  0.00     0.016 C 
ATOM      3  C   LIG d   1     -12.415  76.792 121.354  0.00  0.00     0.038 C 
ATOM      4  C   LIG d   1     -12.495  78.135 121.754  0.00  0.00     0.028 C 
ATOM      5  C   LIG d   1     -11.270  78.956 121.366  0.00  0.00    -0.047 C 
ATOM      6  C   LIG d   1     -10.987  78.754 119.860  0.00  0.00     0.091 C 
ENDROOT
BRANCH   1   7
ATOM      7  O   LIG d   1     -11.011  77.058 118.091  0.00  0.00    -0.368 OA
BRANCH   7   8
ATOM      8  C   LIG d   1      -9.933  76.381 117.399  0.00  0.00     0.119 C 
BRANCH   8   9
ATOM      9  C   LIG d   1     -10.370  74.920 117.180  0.00  0.00     0.028 C 
ATOM     10  C   LIG d   1      -9.396  73.914 117.818  0.00  0.00     0.006 C 
ENDBRANCH   8   9
BRANCH   8  11
ATOM     11  C   LIG d   1      -8.675  76.302 118.268  0.00  0.00     0.028 C 
ATOM     12  C   LIG d   1      -7.501  77.111 117.692  0.00  0.00     0.006 C 
ENDBRANCH   8  11
ENDBRANCH   7   8
ENDBRANCH   1   7
BRANCH   6  13
ATOM     13  N   LIG d   1      -9.755  79.457 119.415  0.00  0.00    -0.311 N 
ATOM     14  C   LIG d   1      -9.761  80.477 118.559  0.00  0.00     0.210 C 
ATOM     15  C   LIG d   1      -8.380  81.044 118.219  0.00  0.00     0.109 C 
ATOM     16  O   LIG d   1     -10.782  80.986 118.073  0.00  0.00    -0.276 OA
ATOM     17  H   LIG d   1      -8.884  79.129 119.785  0.00  0.00     0.149 HD
ENDBRANCH   6  13
BRANCH   5  18
ATOM     18  N   LIG d   1     -11.546  80.362 121.719  0.00  0.00     0.381 N 
ATOM     19  H   LIG d   1     -12.503  80.579 121.522  0.00  0.00    -0.090 HD
ATOM     20  H   LIG d   1     -10.965  80.958 121.157  0.00  0.00    -0.090 HD
ATOM     21  H   LIG d   1     -11.356  80.514 122.685  0.00  0.00    -0.090 HD
ENDBRANCH   5  18
BRANCH   3  22
ATOM     22  C   LIG d   1     -13.064  75.837 122.122  0.00  0.00     0.382 C 
ATOM     23  O   LIG d   1     -14.158  75.360 121.735  0.00  0.00    -0.241 OA
ATOM     24  O   LIG d   1     -12.591  75.479 123.217  0.00  0.00    -0.241 OA
ENDBRANCH   3  22
TORSDOF 7
ENDMDL
MODEL 2
REMARK VINA RESULT:      -5.0      1.682      4.980
REMARK  7 active torsions:
REMARK  status: ('A' for Active; 'I' for Inactive)
REMARK    1  A    between atoms: C_2  and  C_3 
REMARK    2  A    between atoms: C_3  and  O_6 
REMARK    3  A    between atoms: C_3  and  C_4 
REMARK    4  A    between atoms: C_7  and  O_6 
REMARK    5  A    between atoms: C_9  and  C_10 
REMARK    6  A    between atoms: N_15  and  C_14 
REMARK    7  A    between atoms: N_20  and  C_19 
REMARK       I    between atoms: C_22  and  N_20 
ROOT
ATOM      1  C   LIG d   1     -10.032  77.986 119.090  0.00  0.00     0.161 C 
ATOM      2  C   LIG d   1      -9.188  78.883 118.415  0.00  0.00     0.016 C 
ATOM      3  C   LIG d   1      -9.054  80.245 118.771  0.00  0.00     0.038 C 
ATOM      4  C   LIG d   1      -9.645  80.769 119.931  0.00  0.00     0.028 C 
ATOM      5  C   LIG d   1     -10.907  80.026 120.356  0.00  0.00    -0.047 C 
ATOM      6  C   LIG d   1     -10.599  78.513 120.425  0.00  0.00     0.091 C 
ENDROOT
BRANCH   1   7
ATOM      7  O   LIG d   1      -9.350  76.734 119.296  0.00  0.00    -0.368 OA
BRANCH   7   8
ATOM      8  C   LIG d   1      -9.876  75.595 118.570  0.00  0.00     0.119 C 
BRANCH   8   9
ATOM      9  C   LIG d   1      -8.785  75.130 117.585  0.00  0.00     0.028 C 
ATOM     10  C   LIG d   1      -8.886  73.630 117.264  0.00  0.00     0.006 C 
ENDBRANCH   8   9
BRANCH   8  11
ATOM     11  C   LIG d   1     -11.068  75.994 117.696  0.00  0.00     0.028 C 
ATOM     12  C   LIG d   1     -12.380  75.323 118.135  0.00  0.00     0.006 C 
ENDBRANCH   8  11
ENDBRANCH   7   8
ENDBRANCH   1   7
BRANCH   6  13
ATOM     13  N   LIG d   1     -11.803  77.705 120.753  0.00  0.00    -0.311 N 
ATOM     14  C   LIG d   1     -11.800  76.714 121.643  0.00  0.00     0.210 C 
ATOM     15  C   LIG d   1     -13.142  75.996 121.815  0.00  0.00     0.109 C 
ATOM     16  O   LIG d   1     -10.822  76.383 122.330  0.00  0.00    -0.276 OA
ATOM     17  H   LIG d   1     -12.648  77.926 120.264  0.00  0.00     0.149 HD
ENDBRANCH   6  13
BRANCH   5  18
ATOM     18  N   LIG d   1     -11.340  80.588 121.650  0.00  0.00     0.381 N 
ATOM     19  H   LIG d   1     -11.271  81.586 121.626  0.00  0.00    -0.090 HD
ATOM     20  H   LIG d   1     -10.731  80.247 122.372  0.00  0.00    -0.090 HD
ATOM     21  H   LIG d   1     -12.279  80.317 121.842  0.00  0.00    -0.090 HD
ENDBRANCH   5  18
BRANCH   3  22
ATOM     22  C   LIG d   1      -8.353  81.107 117.942  0.00  0.00     0.382 C 
ATOM     23  O   LIG d   1      -8.968  81.976 117.278  0.00  0.00    -0.241 OA
ATOM     24  O   LIG d   1      -7.119  80.998 117.814  0.00  0.00    -0.241 OA
ENDBRANCH   3  22
TORSDOF 7
ENDMDL
MODEL 3
REMARK VINA RESULT:      -4.9      2.227      4.451
REMARK  7 active torsions:
REMARK  status: ('A' for Active; 'I' for Inactive)
REMARK    1  A    between atoms: C_2  and  C_3 
REMARK    2  A    between atoms: C_3  and  O_6 
REMARK    3  A    between atoms: C_3  and  C_4 
REMARK    4  A    between atoms: C_7  and  O_6 
REMARK    5  A    between atoms: C_9  and  C_10 
REMARK    6  A    between atoms: N_15  and  C_14 
REMARK    7  A    between atoms: N_20  and  C_19 
REMARK       I    between atoms: C_22  and  N_20 
ROOT
ATOM      1  C   LIG d   1     -10.272  76.692 118.000  0.00  0.00     0.161 C 
ATOM      2  C   LIG d   1      -9.886  75.342 118.002  0.00  0.00     0.016 C 
ATOM      3  C   LIG d   1      -8.640  74.889 118.493  0.00  0.00     0.038 C 
ATOM      4  C   LIG d   1      -7.750  75.746 119.159  0.00  0.00     0.028 C 
ATOM      5  C   LIG d   1      -7.877  77.203 118.730  0.00  0.00    -0.047 C 
ATOM      6  C   LIG d   1      -9.361  77.627 118.823  0.00  0.00     0.091 C 
ENDROOT
BRANCH   1   7
ATOM      7  O   LIG d   1     -11.640  76.811 118.441  0.00  0.00    -0.368 OA
BRANCH   7   8
ATOM      8  C   LIG d   1     -12.032  75.952 119.540  0.00  0.00     0.119 C 
BRANCH   8   9
ATOM      9  C   LIG d   1     -13.401  75.341 119.185  0.00  0.00     0.028 C 
ATOM     10  C   LIG d   1     -14.289  75.132 120.423  0.00  0.00     0.006 C 
ENDBRANCH   8   9
BRANCH   8  11
ATOM     11  C   LIG d   1     -12.267  76.759 120.820  0.00  0.00     0.028 C 
ATOM     12  C   LIG d   1     -11.144  76.578 121.854  0.00  0.00     0.006 C 
ENDBRANCH   8  11
ENDBRANCH   7   8
ENDBRANCH   1   7
BRANCH   6  13
ATOM     13  N   LIG d   1      -9.586  79.014 118.341  0.00  0.00    -0.311 N 
ATOM     14  C   LIG d   1     -10.278  79.925 119.024  0.00  0.00     0.210 C 
ATOM     15  C   LIG d   1     -10.407  81.288 118.337  0.00  0.00     0.109 C 
ATOM     16  O   LIG d   1     -10.769  79.743 120.149  0.00  0.00    -0.276 OA
ATOM     17  H   LIG d   1      -9.196  79.257 117.451  0.00  0.00     0.149 HD
ENDBRANCH   6  13
BRANCH   5  18
ATOM     18  N   LIG d   1      -6.992  78.002 119.598  0.00  0.00     0.381 N 
ATOM     19  H   LIG d   1      -7.476  78.252 120.437  0.00  0.00    -0.090 HD
ATOM     20  H   LIG d   1      -6.740  78.847 119.116  0.00  0.00    -0.090 HD
ATOM     21  H   LIG d   1      -6.173  77.482 119.821  0.00  0.00    -0.090 HD
ENDBRANCH   5  18
BRANCH   3  22
ATOM     22  C   LIG d   1      -8.256  73.573 118.285  0.00  0.00     0.382 C 
ATOM     23  O   LIG d   1      -8.482  73.022 117.181  0.00  0.00    -0.241 OA
ATOM     24  O   LIG d   1      -7.727  72.917 119.201  0.00  0.00    -0.241 OA
ENDBRANCH   3  22
TORSDOF 7
ENDMDL
MODEL 4
REMARK VINA RESULT:      -4.9      3.124      5.289
REMARK  7 active torsions:
REMARK  status: ('A' for Active; 'I' for Inactive)
REMARK    1  A    between atoms: C_2  and  C_3 
REMARK    2  A    between atoms: C_3  and  O_6 
REMARK    3  A    between atoms: C_3  and  C_4 
REMARK    4  A    between atoms: C_7  and  O_6 
REMARK    5  A    between atoms: C_9  and  C_10 
REMARK    6  A    between atoms: N_15  and  C_14 
REMARK    7  A    between atoms: N_20  and  C_19 
REMARK       I    between atoms: C_22  and  N_20 
ROOT
ATOM      1  C   LIG d   1      -8.331  75.228 119.812  0.00  0.00     0.161 C 
ATOM      2  C   LIG d   1      -7.806  74.035 119.288  0.00  0.00     0.016 C 
ATOM      3  C   LIG d   1      -8.383  73.342 118.199  0.00  0.00     0.038 C 
ATOM      4  C   LIG d   1      -9.447  73.880 117.458  0.00  0.00     0.028 C 
ATOM      5  C   LIG d   1     -10.325  74.832 118.263  0.00  0.00    -0.047 C 
ATOM      6  C   LIG d   1      -9.426  75.887 118.947  0.00  0.00     0.091 C 
ENDROOT
BRANCH   1   7
ATOM      7  O   LIG d   1      -7.264  76.162 120.067  0.00  0.00    -0.368 OA
BRANCH   7   8
ATOM      8  C   LIG d   1      -6.848  76.976 118.944  0.00  0.00     0.119 C 
BRANCH   8   9
ATOM      9  C   LIG d   1      -5.377  76.630 118.640  0.00  0.00     0.028 C 
ATOM     10  C   LIG d   1      -4.591  76.250 119.906  0.00  0.00     0.006 C 
ENDBRANCH   8   9
BRANCH   8  11
ATOM     11  C   LIG d   1      -6.848  78.465 119.304  0.00  0.00     0.028 C 
ATOM     12  C   LIG d   1      -7.242  78.723 120.767  0.00  0.00     0.006 C 
ENDBRANCH   8  11
ENDBRANCH   7   8
ENDBRANCH   1   7
BRANCH   6  13
ATOM     13  N   LIG d   1     -10.197  76.808 119.822  0.00  0.00    -0.311 N 
ATOM     14  C   LIG d   1     -10.643  77.997 119.423  0.00  0.00     0.210 C 
ATOM     15  C   LIG d   1     -11.399  78.796 120.489  0.00  0.00     0.109 C 
ATOM     16  O   LIG d   1     -10.513  78.453 118.277  0.00  0.00    -0.276 OA
ATOM     17  H   LIG d   1     -10.376  76.504 120.759  0.00  0.00     0.149 HD
ENDBRANCH   6  13
BRANCH   5  18
ATOM     18  N   LIG d   1     -11.308  75.423 117.335  0.00  0.00     0.381 N 
ATOM     19  H   LIG d   1     -12.093  74.812 117.239  0.00  0.00    -0.090 HD
ATOM     20  H   LIG d   1     -10.879  75.531 116.433  0.00  0.00    -0.090 HD
ATOM     21  H   LIG d   1     -11.608  76.310 117.676  0.00  0.00    -0.090 HD
ENDBRANCH   5  18
BRANCH   3  22
ATOM     22  C   LIG d   1      -7.921  72.078 117.866  0.00  0.00     0.382 C 
ATOM     23  O   LIG d   1      -6.876  71.952 117.183  0.00  0.00    -0.241 OA
ATOM     24  O   LIG d   1      -8.561  71.063 118.201  0.00  0.00    -0.241 OA
ENDBRANCH   3  22
TORSDOF 7
ENDMDL
MODEL 5
REMARK VINA RESULT:      -4.9      2.272      4.968
REMARK  7 active torsions:
REMARK  status: ('A' for Active; 'I' for Inactive)
REMARK    1  A    between atoms: C_2  and  C_3 
REMARK    2  A    between atoms: C_3  and  O_6 
REMARK    3  A    between atoms: C_3  and  C_4 
REMARK    4  A    between atoms: C_7  and  O_6 
REMARK    5  A    between atoms: C_9  and  C_10 
REMARK    6  A    between atoms: N_15  and  C_14 
REMARK    7  A    between atoms: N_20  and  C_19 
REMARK       I    between atoms: C_22  and  N_20 
ROOT
ATOM      1  C   LIG d   1     -10.085  76.317 118.128  0.00  0.00     0.161 C 
ATOM      2  C   LIG d   1      -8.939  77.067 117.811  0.00  0.00     0.016 C 
ATOM      3  C   LIG d   1      -8.598  78.277 118.457  0.00  0.00     0.038 C 
ATOM      4  C   LIG d   1      -9.304  78.746 119.575  0.00  0.00     0.028 C 
ATOM      5  C   LIG d   1     -10.759  78.288 119.609  0.00  0.00    -0.047 C 
ATOM      6  C   LIG d   1     -10.807  76.754 119.420  0.00  0.00     0.091 C 
ENDROOT
BRANCH   1   7
ATOM      7  O   LIG d   1      -9.750  74.917 118.191  0.00  0.00    -0.368 OA
BRANCH   7   8
ATOM      8  C   LIG d   1      -8.338  74.596 118.143  0.00  0.00     0.119 C 
BRANCH   8   9
ATOM      9  C   LIG d   1      -8.166  73.405 117.181  0.00  0.00     0.028 C 
ATOM     10  C   LIG d   1      -7.935  72.078 117.924  0.00  0.00     0.006 C 
ENDBRANCH   8   9
BRANCH   8  11
ATOM     11  C   LIG d   1      -7.834  74.097 119.500  0.00  0.00     0.028 C 
ATOM     12  C   LIG d   1      -7.222  75.216 120.357  0.00  0.00     0.006 C 
ENDBRANCH   8  11
ENDBRANCH   7   8
ENDBRANCH   1   7
BRANCH   6  13
ATOM     13  N   LIG d   1     -12.197  76.234 119.356  0.00  0.00    -0.311 N 
ATOM     14  C   LIG d   1     -12.876  75.824 120.426  0.00  0.00     0.210 C 
ATOM     15  C   LIG d   1     -14.289  75.305 120.135  0.00  0.00     0.109 C 
ATOM     16  O   LIG d   1     -12.455  75.869 121.591  0.00  0.00    -0.276 OA
ATOM     17  H   LIG d   1     -12.627  76.192 118.453  0.00  0.00     0.149 HD
ENDBRANCH   6  13
BRANCH   5  18
ATOM     18  N   LIG d   1     -11.336  78.731 120.892  0.00  0.00     0.381 N 
ATOM     19  H   LIG d   1     -12.334  78.744 120.827  0.00  0.00    -0.090 HD
ATOM     20  H   LIG d   1     -11.020  79.665 121.085  0.00  0.00    -0.090 HD
ATOM     21  H   LIG d   1     -11.051  78.118 121.624  0.00  0.00    -0.090 HD
ENDBRANCH   5  18
BRANCH   3  22
ATOM     22  C   LIG d   1      -7.563  79.054 117.959  0.00  0.00     0.382 C 
ATOM     23  O   LIG d   1      -7.660  80.305 117.964  0.00  0.00    -0.241 OA
ATOM     24  O   LIG d   1      -6.553  78.518 117.464  0.00  0.00    -0.241 OA
ENDBRANCH   3  22
TORSDOF 7
ENDMDL
MODEL 6
REMARK VINA RESULT:      -4.8      1.833      4.924
REMARK  7 active torsions:
REMARK  status: ('A' for Active; 'I' for Inactive)
REMARK    1  A    between atoms: C_2  and  C_3 
REMARK    2  A    between atoms: C_3  and  O_6 
REMARK    3  A    between atoms: C_3  and  C_4 
REMARK    4  A    between atoms: C_7  and  O_6 
REMARK    5  A    between atoms: C_9  and  C_10 
REMARK    6  A    between atoms: N_15  and  C_14 
REMARK    7  A    between atoms: N_20  and  C_19 
REMARK       I    between atoms: C_22  and  N_20 
ROOT
ATOM      1  C   LIG d   1      -9.636  77.808 118.729  0.00  0.00     0.161 C 
ATOM      2  C   LIG d   1      -8.695  78.785 118.364  0.00  0.00     0.016 C 
ATOM      3  C   LIG d   1      -8.721  80.111 118.854  0.00  0.00     0.038 C 
ATOM      4  C   LIG d   1      -9.607  80.511 119.865  0.00  0.00     0.028 C 
ATOM      5  C   LIG d   1     -10.898  79.698 119.896  0.00  0.00    -0.047 C 
ATOM      6  C   LIG d   1     -10.543  78.194 119.916  0.00  0.00     0.091 C 
ENDROOT
BRANCH   1   7
ATOM      7  O   LIG d   1      -8.965  76.560 118.995  0.00  0.00    -0.368 OA
BRANCH   7   8
ATOM      8  C   LIG d   1      -8.731  75.705 117.850  0.00  0.00     0.119 C 
BRANCH   8   9
ATOM      9  C   LIG d   1     -10.097  75.423 117.195  0.00  0.00     0.028 C 
ATOM     10  C   LIG d   1     -10.947  74.435 118.013  0.00  0.00     0.006 C 
ENDBRANCH   8   9
BRANCH   8  11
ATOM     11  C   LIG d   1      -8.196  74.335 118.277  0.00  0.00     0.028 C 
ATOM     12  C   LIG d   1      -7.646  74.331 119.713  0.00  0.00     0.006 C 
ENDBRANCH   8  11
ENDBRANCH   7   8
ENDBRANCH   1   7
BRANCH   6  13
ATOM     13  N   LIG d   1     -11.749  77.327 119.861  0.00  0.00    -0.311 N 
ATOM     14  C   LIG d   1     -12.096  76.492 120.839  0.00  0.00     0.210 C 
ATOM     15  C   LIG d   1     -13.364  75.675 120.572  0.00  0.00     0.109 C 
ATOM     16  O   LIG d   1     -11.492  76.374 121.916  0.00  0.00    -0.276 OA
ATOM     17  H   LIG d   1     -12.313  77.382 119.036  0.00  0.00     0.149 HD
ENDBRANCH   6  13
BRANCH   5  18
ATOM     18  N   LIG d   1     -11.666  80.127 121.080  0.00  0.00     0.381 N 
ATOM     19  H   LIG d   1     -12.615  79.822 120.997  0.00  0.00    -0.090 HD
ATOM     20  H   LIG d   1     -11.660  81.130 121.126  0.00  0.00    -0.090 HD
ATOM     21  H   LIG d   1     -11.259  79.747 121.906  0.00  0.00    -0.090 HD
ENDBRANCH   5  18
BRANCH   3  22
ATOM     22  C   LIG d   1      -7.880  81.065 118.301  0.00  0.00     0.382 C 
ATOM     23  O   LIG d   1      -8.150  82.284 118.420  0.00  0.00    -0.241 OA
ATOM     24  O   LIG d   1      -6.877  80.719 117.648  0.00  0.00    -0.241 OA
ENDBRANCH   3  22
TORSDOF 7
ENDMDL
MODEL 7
REMARK VINA RESULT:      -4.7     14.798     16.838
REMARK  7 active torsions:
REMARK  status: ('A' for Active; 'I' for Inactive)
REMARK    1  A    between atoms: C_2  and  C_3 
REMARK    2  A    between atoms: C_3  and  O_6 
REMARK    3  A    between atoms: C_3  and  C_4 
REMARK    4  A    between atoms: C_7  and  O_6 
REMARK    5  A    between atoms: C_9  and  C_10 
REMARK    6  A    between atoms: N_15  and  C_14 
REMARK    7  A    between atoms: N_20  and  C_19 
REMARK       I    between atoms: C_22  and  N_20 
ROOT
ATOM      1  C   LIG d   1      -5.281  92.462 120.345  0.00  0.00     0.161 C 
ATOM      2  C   LIG d   1      -6.635  92.364 119.982  0.00  0.00     0.016 C 
ATOM      3  C   LIG d   1      -7.461  93.487 119.746  0.00  0.00     0.038 C 
ATOM      4  C   LIG d   1      -6.946  94.791 119.711  0.00  0.00     0.028 C 
ATOM      5  C   LIG d   1      -5.697  94.973 120.567  0.00  0.00    -0.047 C 
ATOM      6  C   LIG d   1      -4.674  93.873 120.202  0.00  0.00     0.091 C 
ENDROOT
BRANCH   1   7
ATOM      7  O   LIG d   1      -4.504  91.504 119.598  0.00  0.00    -0.368 OA
BRANCH   7   8
ATOM      8  C   LIG d   1      -3.929  91.980 118.357  0.00  0.00     0.119 C 
BRANCH   8   9
ATOM      9  C   LIG d   1      -4.726  91.343 117.202  0.00  0.00     0.028 C 
ATOM     10  C   LIG d   1      -4.604  89.810 117.181  0.00  0.00     0.006 C 
ENDBRANCH   8   9
BRANCH   8  11
ATOM     11  C   LIG d   1      -2.492  91.480 118.181  0.00  0.00     0.028 C 
ATOM     12  C   LIG d   1      -1.857  91.014 119.501  0.00  0.00     0.006 C 
ENDBRANCH   8  11
ENDBRANCH   7   8
ENDBRANCH   1   7
BRANCH   6  13
ATOM     13  N   LIG d   1      -3.456  93.927 121.053  0.00  0.00    -0.311 N 
ATOM     14  C   LIG d   1      -2.328  94.529 120.681  0.00  0.00     0.210 C 
ATOM     15  C   LIG d   1      -1.187  94.450 121.700  0.00  0.00     0.109 C 
ATOM     16  O   LIG d   1      -2.174  95.148 119.617  0.00  0.00    -0.276 OA
ATOM     17  H   LIG d   1      -3.504  93.477 121.946  0.00  0.00     0.149 HD
ENDBRANCH   6  13
BRANCH   5  18
ATOM     18  N   LIG d   1      -5.188  96.337 120.330  0.00  0.00     0.381 N 
ATOM     19  H   LIG d   1      -4.516  96.575 121.031  0.00  0.00    -0.090 HD
ATOM     20  H   LIG d   1      -5.954  96.985 120.394  0.00  0.00    -0.090 HD
ATOM     21  H   LIG d   1      -4.771  96.393 119.427  0.00  0.00    -0.090 HD
ENDBRANCH   5  18
BRANCH   3  22
ATOM     22  C   LIG d   1      -8.826  93.313 119.582  0.00  0.00     0.382 C 
ATOM     23  O   LIG d   1      -9.452  94.013 118.750  0.00  0.00    -0.241 OA
ATOM     24  O   LIG d   1      -9.449  92.497 120.288  0.00  0.00    -0.241 OA
ENDBRANCH   3  22
TORSDOF 7
ENDMDL
MODEL 8
REMARK VINA RESULT:      -4.6      1.863      2.543
REMARK  7 active torsions:
REMARK  status: ('A' for Active; 'I' for Inactive)
REMARK    1  A    between atoms: C_2  and  C_3 
REMARK    2  A    between atoms: C_3  and  O_6 
REMARK    3  A    between atoms: C_3  and  C_4 
REMARK    4  A    between atoms: C_7  and  O_6 
REMARK    5  A    between atoms: C_9  and  C_10 
REMARK    6  A    between atoms: N_15  and  C_14 
REMARK    7  A    between atoms: N_20  and  C_19 
REMARK       I    between atoms: C_22  and  N_20 
ROOT
ATOM      1  C   LIG d   1      -9.673  77.812 119.291  0.00  0.00     0.161 C 
ATOM      2  C   LIG d   1      -9.476  76.894 120.336  0.00  0.00     0.016 C 
ATOM      3  C   LIG d   1      -9.988  77.080 121.641  0.00  0.00     0.038 C 
ATOM      4  C   LIG d   1     -10.865  78.130 121.951  0.00  0.00     0.028 C 
ATOM      5  C   LIG d   1     -10.684  79.354 121.060  0.00  0.00    -0.047 C 
ATOM      6  C   LIG d   1     -10.721  78.907 119.580  0.00  0.00     0.091 C 
ENDROOT
BRANCH   1   7
ATOM      7  O   LIG d   1     -10.008  77.107 118.079  0.00  0.00    -0.368 OA
BRANCH   7   8
ATOM      8  C   LIG d   1     -10.585  75.789 118.247  0.00  0.00     0.119 C 
BRANCH   8   9
ATOM      9  C   LIG d   1      -9.959  74.869 117.180  0.00  0.00     0.028 C 
ATOM     10  C   LIG d   1      -9.214  73.675 117.799  0.00  0.00     0.006 C 
ENDBRANCH   8   9
BRANCH   8  11
ATOM     11  C   LIG d   1     -12.087  75.796 117.945  0.00  0.00     0.028 C 
ATOM     12  C   LIG d   1     -12.939  75.373 119.152  0.00  0.00     0.006 C 
ENDBRANCH   8  11
ENDBRANCH   7   8
ENDBRANCH   1   7
BRANCH   6  13
ATOM     13  N   LIG d   1     -10.467  80.031 118.642  0.00  0.00    -0.311 N 
ATOM     14  C   LIG d   1      -9.380  80.799 118.695  0.00  0.00     0.210 C 
ATOM     15  C   LIG d   1      -9.325  81.915 117.647  0.00  0.00     0.109 C 
ATOM     16  O   LIG d   1      -8.441  80.642 119.490  0.00  0.00    -0.276 OA
ATOM     17  H   LIG d   1     -11.163  80.210 117.945  0.00  0.00     0.149 HD
ENDBRANCH   6  13
BRANCH   5  18
ATOM     18  N   LIG d   1     -11.750  80.315 121.400  0.00  0.00     0.381 N 
ATOM     19  H   LIG d   1     -11.426  81.249 121.247  0.00  0.00    -0.090 HD
ATOM     20  H   LIG d   1     -11.978  80.216 122.374  0.00  0.00    -0.090 HD
ATOM     21  H   LIG d   1     -12.557  80.140 120.843  0.00  0.00    -0.090 HD
ENDBRANCH   5  18
BRANCH   3  22
ATOM     22  C   LIG d   1      -9.589  76.231 122.662  0.00  0.00     0.382 C 
ATOM     23  O   LIG d   1      -8.378  75.932 122.792  0.00  0.00    -0.241 OA
ATOM     24  O   LIG d   1     -10.432  75.725 123.428  0.00  0.00    -0.241 OA
ENDBRANCH   3  22
TORSDOF 7
ENDMDL
MODEL 9
REMARK VINA RESULT:      -4.5      2.832      5.725
REMARK  7 active torsions:
REMARK  status: ('A' for Active; 'I' for Inactive)
REMARK    1  A    between atoms: C_2  and  C_3 
REMARK    2  A    between atoms: C_3  and  O_6 
REMARK    3  A    between atoms: C_3  and  C_4 
REMARK    4  A    between atoms: C_7  and  O_6 
REMARK    5  A    between atoms: C_9  and  C_10 
REMARK    6  A    between atoms: N_15  and  C_14 
REMARK    7  A    between atoms: N_20  and  C_19 
REMARK       I    between atoms: C_22  and  N_20 
ROOT
ATOM      1  C   LIG d   1      -9.679  81.282 118.735  0.00  0.00     0.161 C 
ATOM      2  C   LIG d   1      -9.748  82.501 119.430  0.00  0.00     0.016 C 
ATOM      3  C   LIG d   1     -10.164  82.607 120.777  0.00  0.00     0.038 C 
ATOM      4  C   LIG d   1     -10.398  81.475 121.572  0.00  0.00     0.028 C 
ATOM      5  C   LIG d   1     -10.829  80.251 120.771  0.00  0.00    -0.047 C 
ATOM      6  C   LIG d   1      -9.824  80.025 119.619  0.00  0.00     0.091 C 
ENDROOT
BRANCH   1   7
ATOM      7  O   LIG d   1      -8.457  81.221 117.974  0.00  0.00    -0.368 OA
BRANCH   7   8
ATOM      8  C   LIG d   1      -7.258  80.892 118.718  0.00  0.00     0.119 C 
BRANCH   8   9
ATOM      9  C   LIG d   1      -6.296  82.090 118.599  0.00  0.00     0.028 C 
ATOM     10  C   LIG d   1      -5.383  81.989 117.366  0.00  0.00     0.006 C 
ENDBRANCH   8   9
BRANCH   8  11
ATOM     11  C   LIG d   1      -6.516  79.712 118.085  0.00  0.00     0.028 C 
ATOM     12  C   LIG d   1      -5.944  78.739 119.128  0.00  0.00     0.006 C 
ENDBRANCH   8  11
ENDBRANCH   7   8
ENDBRANCH   1   7
BRANCH   6  13
ATOM     13  N   LIG d   1     -10.218  78.897 118.735  0.00  0.00    -0.311 N 
ATOM     14  C   LIG d   1      -9.783  77.650 118.901  0.00  0.00     0.210 C 
ATOM     15  C   LIG d   1     -10.296  76.643 117.867  0.00  0.00     0.109 C 
ATOM     16  O   LIG d   1      -9.046  77.275 119.826  0.00  0.00    -0.276 OA
ATOM     17  H   LIG d   1     -10.839  79.106 117.978  0.00  0.00     0.149 HD
ENDBRANCH   6  13
BRANCH   5  18
ATOM     18  N   LIG d   1     -10.904  79.112 121.705  0.00  0.00     0.381 N 
ATOM     19  H   LIG d   1     -11.483  79.351 122.485  0.00  0.00    -0.090 HD
ATOM     20  H   LIG d   1      -9.981  78.911 122.047  0.00  0.00    -0.090 HD
ATOM     21  H   LIG d   1     -11.275  78.313 121.239  0.00  0.00    -0.090 HD
ENDBRANCH   5  18
BRANCH   3  22
ATOM     22  C   LIG d   1     -10.389  83.859 121.330  0.00  0.00     0.382 C 
ATOM     23  O   LIG d   1     -11.532  84.372 121.274  0.00  0.00    -0.241 OA
ATOM     24  O   LIG d   1      -9.453  84.499 121.845  0.00  0.00    -0.241 OA
ENDBRANCH   3  22
TORSDOF 7
ENDMDL
