MODEL 1
REMARK VINA RESULT:      -6.1      0.000      0.000
REMARK  7 active torsions:
REMARK  status: ('A' for Active; 'I' for Inactive)
REMARK    1  A    between atoms: C_2  and  C_3 
REMARK    2  A    between atoms: C_3  and  O_6 
REMARK    3  A    between atoms: C_3  and  C_4 
REMARK    4  A    between atoms: C_7  and  O_6 
REMARK    5  A    between atoms: C_9  and  C_10 
REMARK    6  A    between atoms: N_15  and  C_14 
REMARK    7  A    between atoms: N_20  and  C_19 
REMARK       I    between atoms: C_22  and  N_20 
ROOT
ATOM      1  C   LIG d   1      -7.412  75.497 117.509  0.00  0.00     0.161 C 
ATOM      2  C   LIG d   1      -7.043  75.318 116.166  0.00  0.00     0.016 C 
ATOM      3  C   LIG d   1      -5.701  75.211 115.735  0.00  0.00     0.038 C 
ATOM      4  C   LIG d   1      -4.636  75.124 116.644  0.00  0.00     0.028 C 
ATOM      5  C   LIG d   1      -4.920  75.807 117.977  0.00  0.00    -0.047 C 
ATOM      6  C   LIG d   1      -6.270  75.293 118.527  0.00  0.00     0.091 C 
ENDROOT
BRANCH   1   7
ATOM      7  O   LIG d   1      -8.527  74.641 117.829  0.00  0.00    -0.368 OA
BRANCH   7   8
ATOM      8  C   LIG d   1      -9.268  74.112 116.701  0.00  0.00     0.119 C 
BRANCH   8   9
ATOM      9  C   LIG d   1     -10.663  74.767 116.717  0.00  0.00     0.028 C 
ATOM     10  C   LIG d   1     -10.918  75.574 118.001  0.00  0.00     0.006 C 
ENDBRANCH   8   9
BRANCH   8  11
ATOM     11  C   LIG d   1      -9.524  72.610 116.857  0.00  0.00     0.028 C 
ATOM     12  C   LIG d   1      -8.252  71.767 116.671  0.00  0.00     0.006 C 
ENDBRANCH   8  11
ENDBRANCH   7   8
ENDBRANCH   1   7
BRANCH   6  13
ATOM     13  N   LIG d   1      -6.665  75.973 119.788  0.00  0.00    -0.311 N 
ATOM     14  C   LIG d   1      -7.062  75.321 120.879  0.00  0.00     0.210 C 
ATOM     15  C   LIG d   1      -7.442  76.214 122.064  0.00  0.00     0.109 C 
ATOM     16  O   LIG d   1      -7.105  74.086 120.989  0.00  0.00    -0.276 OA
ATOM     17  H   LIG d   1      -6.629  76.974 119.797  0.00  0.00     0.149 HD
ENDBRANCH   6  13
BRANCH   5  18
ATOM     18  N   LIG d   1      -3.784  75.521 118.875  0.00  0.00     0.381 N 
ATOM     19  H   LIG d   1      -2.962  75.981 118.538  0.00  0.00    -0.090 HD
ATOM     20  H   LIG d   1      -3.613  74.531 118.878  0.00  0.00    -0.090 HD
ATOM     21  H   LIG d   1      -3.993  75.832 119.798  0.00  0.00    -0.090 HD
ENDBRANCH   5  18
BRANCH   3  22
ATOM     22  C   LIG d   1      -5.410  75.230 114.380  0.00  0.00     0.382 C 
ATOM     23  O   LIG d   1      -5.005  74.187 113.811  0.00  0.00    -0.241 OA
ATOM     24  O   LIG d   1      -5.506  76.287 113.728  0.00  0.00    -0.241 OA
ENDBRANCH   3  22
TORSDOF 7
ENDMDL
MODEL 2
REMARK VINA RESULT:      -6.1      2.710      4.972
REMARK  7 active torsions:
REMARK  status: ('A' for Active; 'I' for Inactive)
REMARK    1  A    between atoms: C_2  and  C_3 
REMARK    2  A    between atoms: C_3  and  O_6 
REMARK    3  A    between atoms: C_3  and  C_4 
REMARK    4  A    between atoms: C_7  and  O_6 
REMARK    5  A    between atoms: C_9  and  C_10 
REMARK    6  A    between atoms: N_15  and  C_14 
REMARK    7  A    between atoms: N_20  and  C_19 
REMARK       I    between atoms: C_22  and  N_20 
ROOT
ATOM      1  C   LIG d   1      -7.662  75.073 118.573  0.00  0.00     0.161 C 
ATOM      2  C   LIG d   1      -7.513  73.851 117.896  0.00  0.00     0.016 C 
ATOM      3  C   LIG d   1      -8.532  73.269 117.107  0.00  0.00     0.038 C 
ATOM      4  C   LIG d   1      -9.725  73.949 116.817  0.00  0.00     0.028 C 
ATOM      5  C   LIG d   1     -10.121  74.960 117.888  0.00  0.00    -0.047 C 
ATOM      6  C   LIG d   1      -8.915  75.882 118.178  0.00  0.00     0.091 C 
ENDROOT
BRANCH   1   7
ATOM      7  O   LIG d   1      -6.475  75.873 118.403  0.00  0.00    -0.368 OA
BRANCH   7   8
ATOM      8  C   LIG d   1      -6.479  76.789 117.281  0.00  0.00     0.119 C 
BRANCH   8   9
ATOM      9  C   LIG d   1      -5.687  76.125 116.138  0.00  0.00     0.028 C 
ATOM     10  C   LIG d   1      -6.557  75.862 114.897  0.00  0.00     0.006 C 
ENDBRANCH   8   9
BRANCH   8  11
ATOM     11  C   LIG d   1      -5.716  78.076 117.609  0.00  0.00     0.028 C 
ATOM     12  C   LIG d   1      -6.633  79.305 117.707  0.00  0.00     0.006 C 
ENDBRANCH   8  11
ENDBRANCH   7   8
ENDBRANCH   1   7
BRANCH   6  13
ATOM     13  N   LIG d   1      -9.191  76.847 119.275  0.00  0.00    -0.311 N 
ATOM     14  C   LIG d   1      -9.740  78.044 119.077  0.00  0.00     0.210 C 
ATOM     15  C   LIG d   1      -9.919  78.891 120.341  0.00  0.00     0.109 C 
ATOM     16  O   LIG d   1     -10.124  78.473 117.978  0.00  0.00    -0.276 OA
ATOM     17  H   LIG d   1      -8.939  76.568 120.202  0.00  0.00     0.149 HD
ENDBRANCH   6  13
BRANCH   5  18
ATOM     18  N   LIG d   1     -11.303  75.691 117.394  0.00  0.00     0.381 N 
ATOM     19  H   LIG d   1     -11.952  75.049 116.984  0.00  0.00    -0.090 HD
ATOM     20  H   LIG d   1     -11.011  76.341 116.686  0.00  0.00    -0.090 HD
ATOM     21  H   LIG d   1     -11.739  76.181 118.145  0.00  0.00    -0.090 HD
ENDBRANCH   5  18
BRANCH   3  22
ATOM     22  C   LIG d   1      -8.379  71.976 116.631  0.00  0.00     0.382 C 
ATOM     23  O   LIG d   1      -9.207  71.089 116.949  0.00  0.00    -0.241 OA
ATOM     24  O   LIG d   1      -7.398  71.675 115.925  0.00  0.00    -0.241 OA
ENDBRANCH   3  22
TORSDOF 7
ENDMDL
MODEL 3
REMARK VINA RESULT:      -6.1      1.416      2.247
REMARK  7 active torsions:
REMARK  status: ('A' for Active; 'I' for Inactive)
REMARK    1  A    between atoms: C_2  and  C_3 
REMARK    2  A    between atoms: C_3  and  O_6 
REMARK    3  A    between atoms: C_3  and  C_4 
REMARK    4  A    between atoms: C_7  and  O_6 
REMARK    5  A    between atoms: C_9  and  C_10 
REMARK    6  A    between atoms: N_15  and  C_14 
REMARK    7  A    between atoms: N_20  and  C_19 
REMARK       I    between atoms: C_22  and  N_20 
ROOT
ATOM      1  C   LIG d   1      -7.645  75.465 116.964  0.00  0.00     0.161 C 
ATOM      2  C   LIG d   1      -6.909  75.114 115.820  0.00  0.00     0.016 C 
ATOM      3  C   LIG d   1      -5.703  75.751 115.445  0.00  0.00     0.038 C 
ATOM      4  C   LIG d   1      -5.070  76.687 116.276  0.00  0.00     0.028 C 
ATOM      5  C   LIG d   1      -6.034  77.435 117.191  0.00  0.00    -0.047 C 
ATOM      6  C   LIG d   1      -6.912  76.408 117.941  0.00  0.00     0.091 C 
ENDROOT
BRANCH   1   7
ATOM      7  O   LIG d   1      -8.082  74.274 117.648  0.00  0.00    -0.368 OA
BRANCH   7   8
ATOM      8  C   LIG d   1      -9.497  73.974 117.566  0.00  0.00     0.119 C 
BRANCH   8   9
ATOM      9  C   LIG d   1      -9.654  72.722 116.682  0.00  0.00     0.028 C 
ATOM     10  C   LIG d   1      -8.438  71.784 116.772  0.00  0.00     0.006 C 
ENDBRANCH   8   9
BRANCH   8  11
ATOM     11  C   LIG d   1     -10.260  75.083 116.837  0.00  0.00     0.028 C 
ATOM     12  C   LIG d   1     -11.161  75.902 117.775  0.00  0.00     0.006 C 
ENDBRANCH   8  11
ENDBRANCH   7   8
ENDBRANCH   1   7
BRANCH   6  13
ATOM     13  N   LIG d   1      -7.940  77.058 118.795  0.00  0.00    -0.311 N 
ATOM     14  C   LIG d   1      -8.215  76.666 120.038  0.00  0.00     0.210 C 
ATOM     15  C   LIG d   1      -9.324  77.460 120.736  0.00  0.00     0.109 C 
ATOM     16  O   LIG d   1      -7.623  75.758 120.641  0.00  0.00    -0.276 OA
ATOM     17  H   LIG d   1      -8.447  77.824 118.396  0.00  0.00     0.149 HD
ENDBRANCH   6  13
BRANCH   5  18
ATOM     18  N   LIG d   1      -5.227  78.276 118.096  0.00  0.00     0.381 N 
ATOM     19  H   LIG d   1      -5.606  78.238 119.021  0.00  0.00    -0.090 HD
ATOM     20  H   LIG d   1      -5.267  79.228 117.777  0.00  0.00    -0.090 HD
ATOM     21  H   LIG d   1      -4.282  77.960 118.104  0.00  0.00    -0.090 HD
ENDBRANCH   5  18
BRANCH   3  22
ATOM     22  C   LIG d   1      -5.140  75.481 114.207  0.00  0.00     0.382 C 
ATOM     23  O   LIG d   1      -5.091  74.301 113.784  0.00  0.00    -0.241 OA
ATOM     24  O   LIG d   1      -4.640  76.398 113.528  0.00  0.00    -0.241 OA
ENDBRANCH   3  22
TORSDOF 7
ENDMDL
MODEL 4
REMARK VINA RESULT:      -6.0      1.520      1.534
REMARK  7 active torsions:
REMARK  status: ('A' for Active; 'I' for Inactive)
REMARK    1  A    between atoms: C_2  and  C_3 
REMARK    2  A    between atoms: C_3  and  O_6 
REMARK    3  A    between atoms: C_3  and  C_4 
REMARK    4  A    between atoms: C_7  and  O_6 
REMARK    5  A    between atoms: C_9  and  C_10 
REMARK    6  A    between atoms: N_15  and  C_14 
REMARK    7  A    between atoms: N_20  and  C_19 
REMARK       I    between atoms: C_22  and  N_20 
ROOT
ATOM      1  C   LIG d   1      -7.729  76.089 116.814  0.00  0.00     0.161 C 
ATOM      2  C   LIG d   1      -7.047  75.600 115.687  0.00  0.00     0.016 C 
ATOM      3  C   LIG d   1      -5.702  75.922 115.391  0.00  0.00     0.038 C 
ATOM      4  C   LIG d   1      -4.896  76.638 116.289  0.00  0.00     0.028 C 
ATOM      5  C   LIG d   1      -5.686  77.575 117.197  0.00  0.00    -0.047 C 
ATOM      6  C   LIG d   1      -6.833  76.781 117.862  0.00  0.00     0.091 C 
ENDROOT
BRANCH   1   7
ATOM      7  O   LIG d   1      -8.486  75.026 117.425  0.00  0.00    -0.368 OA
BRANCH   7   8
ATOM      8  C   LIG d   1      -9.394  74.307 116.554  0.00  0.00     0.119 C 
BRANCH   8   9
ATOM      9  C   LIG d   1     -10.797  74.915 116.745  0.00  0.00     0.028 C 
ATOM     10  C   LIG d   1     -10.929  75.684 118.071  0.00  0.00     0.006 C 
ENDBRANCH   8   9
BRANCH   8  11
ATOM     11  C   LIG d   1      -9.527  72.841 116.975  0.00  0.00     0.028 C 
ATOM     12  C   LIG d   1      -8.286  72.005 116.623  0.00  0.00     0.006 C 
ENDBRANCH   8  11
ENDBRANCH   7   8
ENDBRANCH   1   7
BRANCH   6  13
ATOM     13  N   LIG d   1      -7.706  77.642 118.702  0.00  0.00    -0.311 N 
ATOM     14  C   LIG d   1      -8.102  77.309 119.929  0.00  0.00     0.210 C 
ATOM     15  C   LIG d   1      -9.015  78.331 120.614  0.00  0.00     0.109 C 
ATOM     16  O   LIG d   1      -7.757  76.279 120.529  0.00  0.00    -0.276 OA
ATOM     17  H   LIG d   1      -8.007  78.510 118.305  0.00  0.00     0.149 HD
ENDBRANCH   6  13
BRANCH   5  18
ATOM     18  N   LIG d   1      -4.741  78.152 118.171  0.00  0.00     0.381 N 
ATOM     19  H   LIG d   1      -3.801  77.971 117.880  0.00  0.00    -0.090 HD
ATOM     20  H   LIG d   1      -4.885  77.712 119.063  0.00  0.00    -0.090 HD
ATOM     21  H   LIG d   1      -4.889  79.134 118.249  0.00  0.00    -0.090 HD
ENDBRANCH   5  18
BRANCH   3  22
ATOM     22  C   LIG d   1      -5.163  75.560 114.166  0.00  0.00     0.382 C 
ATOM     23  O   LIG d   1      -5.099  74.349 113.843  0.00  0.00    -0.241 OA
ATOM     24  O   LIG d   1      -4.698  76.425 113.400  0.00  0.00    -0.241 OA
ENDBRANCH   3  22
TORSDOF 7
ENDMDL
MODEL 5
REMARK VINA RESULT:      -6.0      2.520      4.956
REMARK  7 active torsions:
REMARK  status: ('A' for Active; 'I' for Inactive)
REMARK    1  A    between atoms: C_2  and  C_3 
REMARK    2  A    between atoms: C_3  and  O_6 
REMARK    3  A    between atoms: C_3  and  C_4 
REMARK    4  A    between atoms: C_7  and  O_6 
REMARK    5  A    between atoms: C_9  and  C_10 
REMARK    6  A    between atoms: N_15  and  C_14 
REMARK    7  A    between atoms: N_20  and  C_19 
REMARK       I    between atoms: C_22  and  N_20 
ROOT
ATOM      1  C   LIG d   1      -7.468  75.055 118.322  0.00  0.00     0.161 C 
ATOM      2  C   LIG d   1      -7.401  73.777 117.743  0.00  0.00     0.016 C 
ATOM      3  C   LIG d   1      -8.482  73.176 117.057  0.00  0.00     0.038 C 
ATOM      4  C   LIG d   1      -9.662  73.879 116.772  0.00  0.00     0.028 C 
ATOM      5  C   LIG d   1      -9.963  74.988 117.773  0.00  0.00    -0.047 C 
ATOM      6  C   LIG d   1      -8.710  75.881 117.926  0.00  0.00     0.091 C 
ENDROOT
BRANCH   1   7
ATOM      7  O   LIG d   1      -6.263  75.789 118.028  0.00  0.00    -0.368 OA
BRANCH   7   8
ATOM      8  C   LIG d   1      -5.272  75.094 117.233  0.00  0.00     0.119 C 
BRANCH   8   9
ATOM      9  C   LIG d   1      -3.927  75.193 117.980  0.00  0.00     0.028 C 
ATOM     10  C   LIG d   1      -2.966  74.050 117.613  0.00  0.00     0.006 C 
ENDBRANCH   8   9
BRANCH   8  11
ATOM     11  C   LIG d   1      -5.043  75.794 115.890  0.00  0.00     0.028 C 
ATOM     12  C   LIG d   1      -5.383  74.901 114.687  0.00  0.00     0.006 C 
ENDBRANCH   8  11
ENDBRANCH   7   8
ENDBRANCH   1   7
BRANCH   6  13
ATOM     13  N   LIG d   1      -8.891  76.942 118.950  0.00  0.00    -0.311 N 
ATOM     14  C   LIG d   1      -8.548  78.214 118.757  0.00  0.00     0.210 C 
ATOM     15  C   LIG d   1      -8.801  79.141 119.950  0.00  0.00     0.109 C 
ATOM     16  O   LIG d   1      -8.088  78.670 117.699  0.00  0.00    -0.276 OA
ATOM     17  H   LIG d   1      -9.286  76.666 119.828  0.00  0.00     0.149 HD
ENDBRANCH   6  13
BRANCH   5  18
ATOM     18  N   LIG d   1     -11.142  75.726 117.281  0.00  0.00     0.381 N 
ATOM     19  H   LIG d   1     -11.202  76.613 117.738  0.00  0.00    -0.090 HD
ATOM     20  H   LIG d   1     -11.969  75.201 117.501  0.00  0.00    -0.090 HD
ATOM     21  H   LIG d   1     -11.075  75.856 116.295  0.00  0.00    -0.090 HD
ENDBRANCH   5  18
BRANCH   3  22
ATOM     22  C   LIG d   1      -8.402  71.843 116.683  0.00  0.00     0.382 C 
ATOM     23  O   LIG d   1      -7.427  71.439 116.004  0.00  0.00    -0.241 OA
ATOM     24  O   LIG d   1      -9.315  71.049 116.978  0.00  0.00    -0.241 OA
ENDBRANCH   3  22
TORSDOF 7
ENDMDL
MODEL 6
REMARK VINA RESULT:      -5.8      2.203      2.499
REMARK  7 active torsions:
REMARK  status: ('A' for Active; 'I' for Inactive)
REMARK    1  A    between atoms: C_2  and  C_3 
REMARK    2  A    between atoms: C_3  and  O_6 
REMARK    3  A    between atoms: C_3  and  C_4 
REMARK    4  A    between atoms: C_7  and  O_6 
REMARK    5  A    between atoms: C_9  and  C_10 
REMARK    6  A    between atoms: N_15  and  C_14 
REMARK    7  A    between atoms: N_20  and  C_19 
REMARK       I    between atoms: C_22  and  N_20 
ROOT
ATOM      1  C   LIG d   1      -7.429  76.704 116.888  0.00  0.00     0.161 C 
ATOM      2  C   LIG d   1      -6.934  76.095 115.723  0.00  0.00     0.016 C 
ATOM      3  C   LIG d   1      -5.563  76.074 115.378  0.00  0.00     0.038 C 
ATOM      4  C   LIG d   1      -4.571  76.534 116.256  0.00  0.00     0.028 C 
ATOM      5  C   LIG d   1      -5.063  77.611 117.216  0.00  0.00    -0.047 C 
ATOM      6  C   LIG d   1      -6.350  77.113 117.913  0.00  0.00     0.091 C 
ENDROOT
BRANCH   1   7
ATOM      7  O   LIG d   1      -8.410  75.849 117.508  0.00  0.00    -0.368 OA
BRANCH   7   8
ATOM      8  C   LIG d   1      -8.932  74.777 116.685  0.00  0.00     0.119 C 
BRANCH   8   9
ATOM      9  C   LIG d   1     -10.463  74.763 116.860  0.00  0.00     0.028 C 
ATOM     10  C   LIG d   1     -10.955  75.867 117.811  0.00  0.00     0.006 C 
ENDBRANCH   8   9
BRANCH   8  11
ATOM     11  C   LIG d   1      -8.455  73.409 117.182  0.00  0.00     0.028 C 
ATOM     12  C   LIG d   1      -9.413  72.270 116.803  0.00  0.00     0.006 C 
ENDBRANCH   8  11
ENDBRANCH   7   8
ENDBRANCH   1   7
BRANCH   6  13
ATOM     13  N   LIG d   1      -6.944  78.140 118.807  0.00  0.00    -0.311 N 
ATOM     14  C   LIG d   1      -7.158  79.401 118.435  0.00  0.00     0.210 C 
ATOM     15  C   LIG d   1      -7.762  80.301 119.518  0.00  0.00     0.109 C 
ATOM     16  O   LIG d   1      -6.936  79.851 117.301  0.00  0.00    -0.276 OA
ATOM     17  H   LIG d   1      -7.184  77.852 119.736  0.00  0.00     0.149 HD
ENDBRANCH   6  13
BRANCH   5  18
ATOM     18  N   LIG d   1      -3.968  77.899 118.162  0.00  0.00     0.381 N 
ATOM     19  H   LIG d   1      -3.504  77.048 118.412  0.00  0.00    -0.090 HD
ATOM     20  H   LIG d   1      -4.357  78.303 118.996  0.00  0.00    -0.090 HD
ATOM     21  H   LIG d   1      -3.318  78.531 117.749  0.00  0.00    -0.090 HD
ENDBRANCH   5  18
BRANCH   3  22
ATOM     22  C   LIG d   1      -5.178  75.626 114.124  0.00  0.00     0.382 C 
ATOM     23  O   LIG d   1      -5.189  74.398 113.866  0.00  0.00    -0.241 OA
ATOM     24  O   LIG d   1      -4.776  76.430 113.261  0.00  0.00    -0.241 OA
ENDBRANCH   3  22
TORSDOF 7
ENDMDL
MODEL 7
REMARK VINA RESULT:      -5.7      2.354      4.255
REMARK  7 active torsions:
REMARK  status: ('A' for Active; 'I' for Inactive)
REMARK    1  A    between atoms: C_2  and  C_3 
REMARK    2  A    between atoms: C_3  and  O_6 
REMARK    3  A    between atoms: C_3  and  C_4 
REMARK    4  A    between atoms: C_7  and  O_6 
REMARK    5  A    between atoms: C_9  and  C_10 
REMARK    6  A    between atoms: N_15  and  C_14 
REMARK    7  A    between atoms: N_20  and  C_19 
REMARK       I    between atoms: C_22  and  N_20 
ROOT
ATOM      1  C   LIG d   1      -7.165  75.428 118.812  0.00  0.00     0.161 C 
ATOM      2  C   LIG d   1      -8.250  76.307 118.967  0.00  0.00     0.016 C 
ATOM      3  C   LIG d   1      -8.253  77.634 118.479  0.00  0.00     0.038 C 
ATOM      4  C   LIG d   1      -7.222  78.126 117.664  0.00  0.00     0.028 C 
ATOM      5  C   LIG d   1      -5.881  77.442 117.905  0.00  0.00    -0.047 C 
ATOM      6  C   LIG d   1      -6.077  75.911 117.830  0.00  0.00     0.091 C 
ENDROOT
BRANCH   1   7
ATOM      7  O   LIG d   1      -7.644  74.124 118.427  0.00  0.00    -0.368 OA
BRANCH   7   8
ATOM      8  C   LIG d   1      -7.942  73.943 117.021  0.00  0.00     0.119 C 
BRANCH   8   9
ATOM      9  C   LIG d   1      -9.413  73.500 116.912  0.00  0.00     0.028 C 
ATOM     10  C   LIG d   1     -10.340  74.646 116.469  0.00  0.00     0.006 C 
ENDBRANCH   8   9
BRANCH   8  11
ATOM     11  C   LIG d   1      -7.127  72.793 116.422  0.00  0.00     0.028 C 
ATOM     12  C   LIG d   1      -7.654  71.410 116.837  0.00  0.00     0.006 C 
ENDBRANCH   8  11
ENDBRANCH   7   8
ENDBRANCH   1   7
BRANCH   6  13
ATOM     13  N   LIG d   1      -4.830  75.163 118.138  0.00  0.00    -0.311 N 
ATOM     14  C   LIG d   1      -4.000  74.706 117.202  0.00  0.00     0.210 C 
ATOM     15  C   LIG d   1      -2.782  73.944 117.735  0.00  0.00     0.109 C 
ATOM     16  O   LIG d   1      -4.139  74.887 115.983  0.00  0.00    -0.276 OA
ATOM     17  H   LIG d   1      -4.624  74.999 119.103  0.00  0.00     0.149 HD
ENDBRANCH   6  13
BRANCH   5  18
ATOM     18  N   LIG d   1      -4.932  77.954 116.898  0.00  0.00     0.381 N 
ATOM     19  H   LIG d   1      -4.849  77.297 116.147  0.00  0.00    -0.090 HD
ATOM     20  H   LIG d   1      -4.029  78.060 117.326  0.00  0.00    -0.090 HD
ATOM     21  H   LIG d   1      -5.247  78.831 116.547  0.00  0.00    -0.090 HD
ENDBRANCH   5  18
BRANCH   3  22
ATOM     22  C   LIG d   1      -9.277  78.497 118.838  0.00  0.00     0.382 C 
ATOM     23  O   LIG d   1     -10.291  78.605 118.107  0.00  0.00    -0.241 OA
ATOM     24  O   LIG d   1      -9.181  79.200 119.861  0.00  0.00    -0.241 OA
ENDBRANCH   3  22
TORSDOF 7
ENDMDL
MODEL 8
REMARK VINA RESULT:      -5.7      2.500      5.042
REMARK  7 active torsions:
REMARK  status: ('A' for Active; 'I' for Inactive)
REMARK    1  A    between atoms: C_2  and  C_3 
REMARK    2  A    between atoms: C_3  and  O_6 
REMARK    3  A    between atoms: C_3  and  C_4 
REMARK    4  A    between atoms: C_7  and  O_6 
REMARK    5  A    between atoms: C_9  and  C_10 
REMARK    6  A    between atoms: N_15  and  C_14 
REMARK    7  A    between atoms: N_20  and  C_19 
REMARK       I    between atoms: C_22  and  N_20 
ROOT
ATOM      1  C   LIG d   1      -7.850  75.796 117.836  0.00  0.00     0.161 C 
ATOM      2  C   LIG d   1      -9.216  76.041 118.054  0.00  0.00     0.016 C 
ATOM      3  C   LIG d   1      -9.758  77.337 118.212  0.00  0.00     0.038 C 
ATOM      4  C   LIG d   1      -8.989  78.493 118.012  0.00  0.00     0.028 C 
ATOM      5  C   LIG d   1      -7.503  78.287 118.289  0.00  0.00    -0.047 C 
ATOM      6  C   LIG d   1      -7.013  77.049 117.503  0.00  0.00     0.091 C 
ENDROOT
BRANCH   1   7
ATOM      7  O   LIG d   1      -7.691  74.800 116.806  0.00  0.00    -0.368 OA
BRANCH   7   8
ATOM      8  C   LIG d   1      -7.144  73.527 117.231  0.00  0.00     0.119 C 
BRANCH   8   9
ATOM      9  C   LIG d   1      -5.748  73.387 116.594  0.00  0.00     0.028 C 
ATOM     10  C   LIG d   1      -5.641  74.122 115.247  0.00  0.00     0.006 C 
ENDBRANCH   8   9
BRANCH   8  11
ATOM     11  C   LIG d   1      -7.962  72.357 116.676  0.00  0.00     0.028 C 
ATOM     12  C   LIG d   1      -9.478  72.602 116.748  0.00  0.00     0.006 C 
ENDBRANCH   8  11
ENDBRANCH   7   8
ENDBRANCH   1   7
BRANCH   6  13
ATOM     13  N   LIG d   1      -5.590  76.727 117.784  0.00  0.00    -0.311 N 
ATOM     14  C   LIG d   1      -4.577  77.169 117.040  0.00  0.00     0.210 C 
ATOM     15  C   LIG d   1      -3.190  76.703 117.492  0.00  0.00     0.109 C 
ATOM     16  O   LIG d   1      -4.694  77.931 116.068  0.00  0.00    -0.276 OA
ATOM     17  H   LIG d   1      -5.402  76.140 118.573  0.00  0.00     0.149 HD
ENDBRANCH   6  13
BRANCH   5  18
ATOM     18  N   LIG d   1      -6.802  79.528 117.909  0.00  0.00     0.381 N 
ATOM     19  H   LIG d   1      -7.470  80.235 117.674  0.00  0.00    -0.090 HD
ATOM     20  H   LIG d   1      -6.237  79.347 117.098  0.00  0.00    -0.090 HD
ATOM     21  H   LIG d   1      -6.228  79.839 118.661  0.00  0.00    -0.090 HD
ENDBRANCH   5  18
BRANCH   3  22
ATOM     22  C   LIG d   1     -11.077  77.486 118.615  0.00  0.00     0.382 C 
ATOM     23  O   LIG d   1     -11.387  78.395 119.422  0.00  0.00    -0.241 OA
ATOM     24  O   LIG d   1     -11.952  76.695 118.216  0.00  0.00    -0.241 OA
ENDBRANCH   3  22
TORSDOF 7
ENDMDL
MODEL 9
REMARK VINA RESULT:      -5.5      2.236      4.371
REMARK  7 active torsions:
REMARK  status: ('A' for Active; 'I' for Inactive)
REMARK    1  A    between atoms: C_2  and  C_3 
REMARK    2  A    between atoms: C_3  and  O_6 
REMARK    3  A    between atoms: C_3  and  C_4 
REMARK    4  A    between atoms: C_7  and  O_6 
REMARK    5  A    between atoms: C_9  and  C_10 
REMARK    6  A    between atoms: N_15  and  C_14 
REMARK    7  A    between atoms: N_20  and  C_19 
REMARK       I    between atoms: C_22  and  N_20 
ROOT
ATOM      1  C   LIG d   1      -6.971  74.797 118.454  0.00  0.00     0.161 C 
ATOM      2  C   LIG d   1      -8.330  74.813 118.098  0.00  0.00     0.016 C 
ATOM      3  C   LIG d   1      -9.028  75.990 117.745  0.00  0.00     0.038 C 
ATOM      4  C   LIG d   1      -8.372  77.219 117.576  0.00  0.00     0.028 C 
ATOM      5  C   LIG d   1      -7.104  77.348 118.412  0.00  0.00    -0.047 C 
ATOM      6  C   LIG d   1      -6.212  76.110 118.167  0.00  0.00     0.091 C 
ENDROOT
BRANCH   1   7
ATOM      7  O   LIG d   1      -6.311  73.687 117.813  0.00  0.00    -0.368 OA
BRANCH   7   8
ATOM      8  C   LIG d   1      -6.675  73.440 116.432  0.00  0.00     0.119 C 
BRANCH   8   9
ATOM      9  C   LIG d   1      -6.859  71.919 116.267  0.00  0.00     0.028 C 
ATOM     10  C   LIG d   1      -8.214  71.431 116.805  0.00  0.00     0.006 C 
ENDBRANCH   8   9
BRANCH   8  11
ATOM     11  C   LIG d   1      -5.535  73.816 115.480  0.00  0.00     0.028 C 
ATOM     12  C   LIG d   1      -5.792  75.136 114.736  0.00  0.00     0.006 C 
ENDBRANCH   8  11
ENDBRANCH   7   8
ENDBRANCH   1   7
BRANCH   6  13
ATOM     13  N   LIG d   1      -4.989  76.116 119.012  0.00  0.00    -0.311 N 
ATOM     14  C   LIG d   1      -3.755  76.061 118.514  0.00  0.00     0.210 C 
ATOM     15  C   LIG d   1      -2.636  76.058 119.561  0.00  0.00     0.109 C 
ATOM     16  O   LIG d   1      -3.479  76.047 117.305  0.00  0.00    -0.276 OA
ATOM     17  H   LIG d   1      -5.120  76.157 120.003  0.00  0.00     0.149 HD
ENDBRANCH   6  13
BRANCH   5  18
ATOM     18  N   LIG d   1      -6.449  78.616 118.036  0.00  0.00     0.381 N 
ATOM     19  H   LIG d   1      -6.118  79.082 118.856  0.00  0.00    -0.090 HD
ATOM     20  H   LIG d   1      -7.124  79.209 117.587  0.00  0.00    -0.090 HD
ATOM     21  H   LIG d   1      -5.690  78.436 117.417  0.00  0.00    -0.090 HD
ENDBRANCH   5  18
BRANCH   3  22
ATOM     22  C   LIG d   1     -10.406  75.954 117.595  0.00  0.00     0.382 C 
ATOM     23  O   LIG d   1     -10.954  74.950 117.079  0.00  0.00    -0.241 OA
ATOM     24  O   LIG d   1     -11.104  76.929 117.930  0.00  0.00    -0.241 OA
ENDBRANCH   3  22
TORSDOF 7
ENDMDL
