MODEL 1
REMARK VINA RESULT:      -4.8      0.000      0.000
REMARK  7 active torsions:
REMARK  status: ('A' for Active; 'I' for Inactive)
REMARK    1  A    between atoms: C_2  and  C_3 
REMARK    2  A    between atoms: C_3  and  O_6 
REMARK    3  A    between atoms: C_3  and  C_4 
REMARK    4  A    between atoms: C_7  and  O_6 
REMARK    5  A    between atoms: C_9  and  C_10 
REMARK    6  A    between atoms: N_15  and  C_14 
REMARK    7  A    between atoms: N_20  and  C_19 
REMARK       I    between atoms: C_22  and  N_20 
ROOT
ATOM      1  C   LIG d   1      -7.482  81.858 119.435  0.00  0.00     0.161 C 
ATOM      2  C   LIG d   1      -7.511  80.519 119.011  0.00  0.00     0.016 C 
ATOM      3  C   LIG d   1      -8.539  79.980 118.204  0.00  0.00     0.038 C 
ATOM      4  C   LIG d   1      -9.537  80.786 117.638  0.00  0.00     0.028 C 
ATOM      5  C   LIG d   1      -9.832  82.044 118.448  0.00  0.00    -0.047 C 
ATOM      6  C   LIG d   1      -8.503  82.780 118.735  0.00  0.00     0.091 C 
ENDROOT
BRANCH   1   7
ATOM      7  O   LIG d   1      -6.149  82.388 119.292  0.00  0.00    -0.368 OA
BRANCH   7   8
ATOM      8  C   LIG d   1      -5.294  82.285 120.457  0.00  0.00     0.119 C 
BRANCH   8   9
ATOM      9  C   LIG d   1      -4.656  83.669 120.686  0.00  0.00     0.028 C 
ATOM     10  C   LIG d   1      -5.614  84.649 121.384  0.00  0.00     0.006 C 
ENDBRANCH   8   9
BRANCH   8  11
ATOM     11  C   LIG d   1      -4.121  81.334 120.205  0.00  0.00     0.028 C 
ATOM     12  C   LIG d   1      -2.758  82.042 120.258  0.00  0.00     0.006 C 
ENDBRANCH   8  11
ENDBRANCH   7   8
ENDBRANCH   1   7
BRANCH   6  13
ATOM     13  N   LIG d   1      -8.692  83.977 119.595  0.00  0.00    -0.311 N 
ATOM     14  C   LIG d   1      -9.230  83.928 120.812  0.00  0.00     0.210 C 
ATOM     15  C   LIG d   1      -9.351  85.280 121.521  0.00  0.00     0.109 C 
ATOM     16  O   LIG d   1      -9.589  82.888 121.385  0.00  0.00    -0.276 OA
ATOM     17  H   LIG d   1      -8.399  84.858 119.220  0.00  0.00     0.149 HD
ENDBRANCH   6  13
BRANCH   5  18
ATOM     18  N   LIG d   1     -10.789  82.858 117.675  0.00  0.00     0.381 N 
ATOM     19  H   LIG d   1     -10.292  83.513 117.105  0.00  0.00    -0.090 HD
ATOM     20  H   LIG d   1     -11.369  83.373 118.314  0.00  0.00    -0.090 HD
ATOM     21  H   LIG d   1     -11.353  82.270 117.103  0.00  0.00    -0.090 HD
ENDBRANCH   5  18
BRANCH   3  22
ATOM     22  C   LIG d   1      -8.598  78.611 117.990  0.00  0.00     0.382 C 
ATOM     23  O   LIG d   1      -9.688  78.071 117.685  0.00  0.00    -0.241 OA
ATOM     24  O   LIG d   1      -7.584  77.904 118.142  0.00  0.00    -0.241 OA
ENDBRANCH   3  22
TORSDOF 7
ENDMDL
MODEL 2
REMARK VINA RESULT:      -4.8     22.328     24.500
REMARK  7 active torsions:
REMARK  status: ('A' for Active; 'I' for Inactive)
REMARK    1  A    between atoms: C_2  and  C_3 
REMARK    2  A    between atoms: C_3  and  O_6 
REMARK    3  A    between atoms: C_3  and  C_4 
REMARK    4  A    between atoms: C_7  and  O_6 
REMARK    5  A    between atoms: C_9  and  C_10 
REMARK    6  A    between atoms: N_15  and  C_14 
REMARK    7  A    between atoms: N_20  and  C_19 
REMARK       I    between atoms: C_22  and  N_20 
ROOT
ATOM      1  C   LIG d   1       0.992  59.520 120.494  0.00  0.00     0.161 C 
ATOM      2  C   LIG d   1       2.346  59.838 120.293  0.00  0.00     0.016 C 
ATOM      3  C   LIG d   1       3.119  59.314 119.232  0.00  0.00     0.038 C 
ATOM      4  C   LIG d   1       2.547  58.550 118.204  0.00  0.00     0.028 C 
ATOM      5  C   LIG d   1       1.298  57.790 118.639  0.00  0.00    -0.047 C 
ATOM      6  C   LIG d   1       0.322  58.776 119.320  0.00  0.00     0.091 C 
ENDROOT
BRANCH   1   7
ATOM      7  O   LIG d   1       0.253  60.714 120.818  0.00  0.00    -0.368 OA
BRANCH   7   8
ATOM      8  C   LIG d   1      -0.377  60.740 122.122  0.00  0.00     0.119 C 
BRANCH   8   9
ATOM      9  C   LIG d   1       0.058  62.043 122.821  0.00  0.00     0.028 C 
ATOM     10  C   LIG d   1       1.546  62.032 123.210  0.00  0.00     0.006 C 
ENDBRANCH   8   9
BRANCH   8  11
ATOM     11  C   LIG d   1       0.143  59.608 123.014  0.00  0.00     0.028 C 
ATOM     12  C   LIG d   1      -0.983  58.723 123.571  0.00  0.00     0.006 C 
ENDBRANCH   8  11
ENDBRANCH   7   8
ENDBRANCH   1   7
BRANCH   6  13
ATOM     13  N   LIG d   1      -0.890  58.099 119.850  0.00  0.00    -0.311 N 
ATOM     14  C   LIG d   1      -2.123  58.584 119.707  0.00  0.00     0.210 C 
ATOM     15  C   LIG d   1      -3.228  57.738 120.347  0.00  0.00     0.109 C 
ATOM     16  O   LIG d   1      -2.408  59.617 119.083  0.00  0.00    -0.276 OA
ATOM     17  H   LIG d   1      -0.753  57.238 120.343  0.00  0.00     0.149 HD
ENDBRANCH   6  13
BRANCH   5  18
ATOM     18  N   LIG d   1       0.727  57.148 117.439  0.00  0.00     0.381 N 
ATOM     19  H   LIG d   1       1.080  57.594 116.616  0.00  0.00    -0.090 HD
ATOM     20  H   LIG d   1      -0.271  57.258 117.455  0.00  0.00    -0.090 HD
ATOM     21  H   LIG d   1       0.961  56.180 117.427  0.00  0.00    -0.090 HD
ENDBRANCH   5  18
BRANCH   3  22
ATOM     22  C   LIG d   1       4.490  59.521 119.213  0.00  0.00     0.382 C 
ATOM     23  O   LIG d   1       5.212  58.867 118.423  0.00  0.00    -0.241 OA
ATOM     24  O   LIG d   1       5.019  60.322 120.008  0.00  0.00    -0.241 OA
ENDBRANCH   3  22
TORSDOF 7
ENDMDL
MODEL 3
REMARK VINA RESULT:      -4.8      2.846      4.965
REMARK  7 active torsions:
REMARK  status: ('A' for Active; 'I' for Inactive)
REMARK    1  A    between atoms: C_2  and  C_3 
REMARK    2  A    between atoms: C_3  and  O_6 
REMARK    3  A    between atoms: C_3  and  C_4 
REMARK    4  A    between atoms: C_7  and  O_6 
REMARK    5  A    between atoms: C_9  and  C_10 
REMARK    6  A    between atoms: N_15  and  C_14 
REMARK    7  A    between atoms: N_20  and  C_19 
REMARK       I    between atoms: C_22  and  N_20 
ROOT
ATOM      1  C   LIG d   1      -7.032  80.054 117.544  0.00  0.00     0.161 C 
ATOM      2  C   LIG d   1      -7.609  81.318 117.753  0.00  0.00     0.016 C 
ATOM      3  C   LIG d   1      -8.799  81.518 118.490  0.00  0.00     0.038 C 
ATOM      4  C   LIG d   1      -9.415  80.476 119.200  0.00  0.00     0.028 C 
ATOM      5  C   LIG d   1      -9.151  79.098 118.603  0.00  0.00    -0.047 C 
ATOM      6  C   LIG d   1      -7.629  78.920 118.403  0.00  0.00     0.091 C 
ENDROOT
BRANCH   1   7
ATOM      7  O   LIG d   1      -5.606  80.131 117.735  0.00  0.00    -0.368 OA
BRANCH   7   8
ATOM      8  C   LIG d   1      -5.123  79.810 119.063  0.00  0.00     0.119 C 
BRANCH   8   9
ATOM      9  C   LIG d   1      -4.509  81.093 119.655  0.00  0.00     0.028 C 
ATOM     10  C   LIG d   1      -5.465  81.808 120.624  0.00  0.00     0.006 C 
ENDBRANCH   8   9
BRANCH   8  11
ATOM     11  C   LIG d   1      -3.974  78.798 119.009  0.00  0.00     0.028 C 
ATOM     12  C   LIG d   1      -3.676  78.311 117.582  0.00  0.00     0.006 C 
ENDBRANCH   8  11
ENDBRANCH   7   8
ENDBRANCH   1   7
BRANCH   6  13
ATOM     13  N   LIG d   1      -7.290  77.632 117.746  0.00  0.00    -0.311 N 
ATOM     14  C   LIG d   1      -6.928  76.539 118.416  0.00  0.00     0.210 C 
ATOM     15  C   LIG d   1      -6.602  75.323 117.543  0.00  0.00     0.109 C 
ATOM     16  O   LIG d   1      -6.876  76.453 119.652  0.00  0.00    -0.276 OA
ATOM     17  H   LIG d   1      -7.336  77.604 116.746  0.00  0.00     0.149 HD
ENDBRANCH   6  13
BRANCH   5  18
ATOM     18  N   LIG d   1      -9.735  78.098 119.517  0.00  0.00     0.381 N 
ATOM     19  H   LIG d   1      -9.676  77.188 119.106  0.00  0.00    -0.090 HD
ATOM     20  H   LIG d   1     -10.705  78.316 119.661  0.00  0.00    -0.090 HD
ATOM     21  H   LIG d   1      -9.252  78.109 120.388  0.00  0.00    -0.090 HD
ENDBRANCH   5  18
BRANCH   3  22
ATOM     22  C   LIG d   1      -9.407  82.764 118.489  0.00  0.00     0.382 C 
ATOM     23  O   LIG d   1     -10.473  82.941 117.852  0.00  0.00    -0.241 OA
ATOM     24  O   LIG d   1      -8.880  83.725 119.082  0.00  0.00    -0.241 OA
ENDBRANCH   3  22
TORSDOF 7
ENDMDL
MODEL 4
REMARK VINA RESULT:      -4.8      2.392      4.344
REMARK  7 active torsions:
REMARK  status: ('A' for Active; 'I' for Inactive)
REMARK    1  A    between atoms: C_2  and  C_3 
REMARK    2  A    between atoms: C_3  and  O_6 
REMARK    3  A    between atoms: C_3  and  C_4 
REMARK    4  A    between atoms: C_7  and  O_6 
REMARK    5  A    between atoms: C_9  and  C_10 
REMARK    6  A    between atoms: N_15  and  C_14 
REMARK    7  A    between atoms: N_20  and  C_19 
REMARK       I    between atoms: C_22  and  N_20 
ROOT
ATOM      1  C   LIG d   1      -8.414  83.853 119.704  0.00  0.00     0.161 C 
ATOM      2  C   LIG d   1      -9.347  83.024 119.059  0.00  0.00     0.016 C 
ATOM      3  C   LIG d   1      -9.054  81.709 118.629  0.00  0.00     0.038 C 
ATOM      4  C   LIG d   1      -7.845  81.076 118.952  0.00  0.00     0.028 C 
ATOM      5  C   LIG d   1      -6.688  82.048 119.160  0.00  0.00    -0.047 C 
ATOM      6  C   LIG d   1      -7.125  83.140 120.163  0.00  0.00     0.091 C 
ENDROOT
BRANCH   1   7
ATOM      7  O   LIG d   1      -9.041  84.522 120.816  0.00  0.00    -0.368 OA
BRANCH   7   8
ATOM      8  C   LIG d   1     -10.170  83.839 121.416  0.00  0.00     0.119 C 
BRANCH   8   9
ATOM      9  C   LIG d   1     -11.194  84.914 121.828  0.00  0.00     0.028 C 
ATOM     10  C   LIG d   1     -10.536  86.273 122.118  0.00  0.00     0.006 C 
ENDBRANCH   8   9
BRANCH   8  11
ATOM     11  C   LIG d   1      -9.770  83.140 122.719  0.00  0.00     0.028 C 
ATOM     12  C   LIG d   1      -9.599  81.622 122.552  0.00  0.00     0.006 C 
ENDBRANCH   8  11
ENDBRANCH   7   8
ENDBRANCH   1   7
BRANCH   6  13
ATOM     13  N   LIG d   1      -6.082  84.180 120.359  0.00  0.00    -0.311 N 
ATOM     14  C   LIG d   1      -5.594  84.514 121.553  0.00  0.00     0.210 C 
ATOM     15  C   LIG d   1      -4.539  85.625 121.533  0.00  0.00     0.109 C 
ATOM     16  O   LIG d   1      -5.911  83.973 122.623  0.00  0.00    -0.276 OA
ATOM     17  H   LIG d   1      -5.745  84.648 119.541  0.00  0.00     0.149 HD
ENDBRANCH   6  13
BRANCH   5  18
ATOM     18  N   LIG d   1      -5.527  81.267 119.625  0.00  0.00     0.381 N 
ATOM     19  H   LIG d   1      -5.755  80.794 120.476  0.00  0.00    -0.090 HD
ATOM     20  H   LIG d   1      -4.765  81.896 119.808  0.00  0.00    -0.090 HD
ATOM     21  H   LIG d   1      -5.261  80.605 118.930  0.00  0.00    -0.090 HD
ENDBRANCH   5  18
BRANCH   3  22
ATOM     22  C   LIG d   1      -9.962  81.028 117.833  0.00  0.00     0.382 C 
ATOM     23  O   LIG d   1      -9.893  79.779 117.731  0.00  0.00    -0.241 OA
ATOM     24  O   LIG d   1     -10.821  81.650 117.180  0.00  0.00    -0.241 OA
ENDBRANCH   3  22
TORSDOF 7
ENDMDL
MODEL 5
REMARK VINA RESULT:      -4.7      2.131      5.180
REMARK  7 active torsions:
REMARK  status: ('A' for Active; 'I' for Inactive)
REMARK    1  A    between atoms: C_2  and  C_3 
REMARK    2  A    between atoms: C_3  and  O_6 
REMARK    3  A    between atoms: C_3  and  C_4 
REMARK    4  A    between atoms: C_7  and  O_6 
REMARK    5  A    between atoms: C_9  and  C_10 
REMARK    6  A    between atoms: N_15  and  C_14 
REMARK    7  A    between atoms: N_20  and  C_19 
REMARK       I    between atoms: C_22  and  N_20 
ROOT
ATOM      1  C   LIG d   1      -6.454  80.102 118.695  0.00  0.00     0.161 C 
ATOM      2  C   LIG d   1      -5.159  80.076 119.237  0.00  0.00     0.016 C 
ATOM      3  C   LIG d   1      -4.551  81.195 119.853  0.00  0.00     0.038 C 
ATOM      4  C   LIG d   1      -5.260  82.379 120.105  0.00  0.00     0.028 C 
ATOM      5  C   LIG d   1      -6.404  82.620 119.126  0.00  0.00    -0.047 C 
ATOM      6  C   LIG d   1      -7.284  81.351 119.059  0.00  0.00     0.091 C 
ENDROOT
BRANCH   1   7
ATOM      7  O   LIG d   1      -7.163  78.903 119.067  0.00  0.00    -0.368 OA
BRANCH   7   8
ATOM      8  C   LIG d   1      -7.529  78.016 117.982  0.00  0.00     0.119 C 
BRANCH   8   9
ATOM      9  C   LIG d   1      -9.063  77.868 118.002  0.00  0.00     0.028 C 
ATOM     10  C   LIG d   1      -9.682  78.353 119.324  0.00  0.00     0.006 C 
ENDBRANCH   8   9
BRANCH   8  11
ATOM     11  C   LIG d   1      -6.983  76.603 118.209  0.00  0.00     0.028 C 
ATOM     12  C   LIG d   1      -6.226  76.464 119.539  0.00  0.00     0.006 C 
ENDBRANCH   8  11
ENDBRANCH   7   8
ENDBRANCH   1   7
BRANCH   6  13
ATOM     13  N   LIG d   1      -8.378  81.471 118.060  0.00  0.00    -0.311 N 
ATOM     14  C   LIG d   1      -9.588  81.945 118.352  0.00  0.00     0.210 C 
ATOM     15  C   LIG d   1     -10.574  81.965 117.180  0.00  0.00     0.109 C 
ATOM     16  O   LIG d   1      -9.928  82.381 119.462  0.00  0.00    -0.276 OA
ATOM     17  H   LIG d   1      -8.178  81.169 117.127  0.00  0.00     0.149 HD
ENDBRANCH   6  13
BRANCH   5  18
ATOM     18  N   LIG d   1      -7.141  83.811 119.586  0.00  0.00     0.381 N 
ATOM     19  H   LIG d   1      -6.498  84.548 119.797  0.00  0.00    -0.090 HD
ATOM     20  H   LIG d   1      -7.641  83.580 120.426  0.00  0.00    -0.090 HD
ATOM     21  H   LIG d   1      -7.780  84.110 118.882  0.00  0.00    -0.090 HD
ENDBRANCH   5  18
BRANCH   3  22
ATOM     22  C   LIG d   1      -3.207  81.148 120.189  0.00  0.00     0.382 C 
ATOM     23  O   LIG d   1      -2.764  81.879 121.108  0.00  0.00    -0.241 OA
ATOM     24  O   LIG d   1      -2.422  80.417 119.555  0.00  0.00    -0.241 OA
ENDBRANCH   3  22
TORSDOF 7
ENDMDL
MODEL 6
REMARK VINA RESULT:      -4.6      2.750      3.962
REMARK  7 active torsions:
REMARK  status: ('A' for Active; 'I' for Inactive)
REMARK    1  A    between atoms: C_2  and  C_3 
REMARK    2  A    between atoms: C_3  and  O_6 
REMARK    3  A    between atoms: C_3  and  C_4 
REMARK    4  A    between atoms: C_7  and  O_6 
REMARK    5  A    between atoms: C_9  and  C_10 
REMARK    6  A    between atoms: N_15  and  C_14 
REMARK    7  A    between atoms: N_20  and  C_19 
REMARK       I    between atoms: C_22  and  N_20 
ROOT
ATOM      1  C   LIG d   1      -8.237  81.919 120.616  0.00  0.00     0.161 C 
ATOM      2  C   LIG d   1      -8.355  80.523 120.519  0.00  0.00     0.016 C 
ATOM      3  C   LIG d   1      -9.394  79.785 121.131  0.00  0.00     0.038 C 
ATOM      4  C   LIG d   1     -10.478  80.414 121.761  0.00  0.00     0.028 C 
ATOM      5  C   LIG d   1     -10.139  81.792 122.318  0.00  0.00    -0.047 C 
ATOM      6  C   LIG d   1      -9.472  82.633 121.205  0.00  0.00     0.091 C 
ENDROOT
BRANCH   1   7
ATOM      7  O   LIG d   1      -7.907  82.473 119.326  0.00  0.00    -0.368 OA
BRANCH   7   8
ATOM      8  C   LIG d   1      -8.125  81.606 118.186  0.00  0.00     0.119 C 
BRANCH   8   9
ATOM      9  C   LIG d   1      -6.783  81.477 117.439  0.00  0.00     0.028 C 
ATOM     10  C   LIG d   1      -6.198  80.057 117.522  0.00  0.00     0.006 C 
ENDBRANCH   8   9
BRANCH   8  11
ATOM     11  C   LIG d   1      -9.090  82.240 117.180  0.00  0.00     0.028 C 
ATOM     12  C   LIG d   1     -10.550  81.817 117.407  0.00  0.00     0.006 C 
ENDBRANCH   8  11
ENDBRANCH   7   8
ENDBRANCH   1   7
BRANCH   6  13
ATOM     13  N   LIG d   1      -9.032  83.967 121.689  0.00  0.00    -0.311 N 
ATOM     14  C   LIG d   1      -9.832  85.031 121.734  0.00  0.00     0.210 C 
ATOM     15  C   LIG d   1      -9.172  86.315 122.248  0.00  0.00     0.109 C 
ATOM     16  O   LIG d   1     -11.034  85.026 121.428  0.00  0.00    -0.276 OA
ATOM     17  H   LIG d   1      -8.080  84.053 121.987  0.00  0.00     0.149 HD
ENDBRANCH   6  13
BRANCH   5  18
ATOM     18  N   LIG d   1     -11.390  82.389 122.822  0.00  0.00     0.381 N 
ATOM     19  H   LIG d   1     -12.003  81.668 123.145  0.00  0.00    -0.090 HD
ATOM     20  H   LIG d   1     -11.844  82.876 122.070  0.00  0.00    -0.090 HD
ATOM     21  H   LIG d   1     -11.190  83.022 123.565  0.00  0.00    -0.090 HD
ENDBRANCH   5  18
BRANCH   3  22
ATOM     22  C   LIG d   1      -9.333  78.400 121.152  0.00  0.00     0.382 C 
ATOM     23  O   LIG d   1      -8.347  77.808 120.650  0.00  0.00    -0.241 OA
ATOM     24  O   LIG d   1     -10.273  77.733 121.625  0.00  0.00    -0.241 OA
ENDBRANCH   3  22
TORSDOF 7
ENDMDL
MODEL 7
REMARK VINA RESULT:      -4.5     11.932     14.161
REMARK  7 active torsions:
REMARK  status: ('A' for Active; 'I' for Inactive)
REMARK    1  A    between atoms: C_2  and  C_3 
REMARK    2  A    between atoms: C_3  and  O_6 
REMARK    3  A    between atoms: C_3  and  C_4 
REMARK    4  A    between atoms: C_7  and  O_6 
REMARK    5  A    between atoms: C_9  and  C_10 
REMARK    6  A    between atoms: N_15  and  C_14 
REMARK    7  A    between atoms: N_20  and  C_19 
REMARK       I    between atoms: C_22  and  N_20 
ROOT
ATOM      1  C   LIG d   1      -6.428  95.375 118.834  0.00  0.00     0.161 C 
ATOM      2  C   LIG d   1      -7.716  95.118 119.333  0.00  0.00     0.016 C 
ATOM      3  C   LIG d   1      -8.002  94.088 120.258  0.00  0.00     0.038 C 
ATOM      4  C   LIG d   1      -6.986  93.336 120.867  0.00  0.00     0.028 C 
ATOM      5  C   LIG d   1      -5.724  93.222 120.018  0.00  0.00    -0.047 C 
ATOM      6  C   LIG d   1      -5.291  94.637 119.572  0.00  0.00     0.091 C 
ENDROOT
BRANCH   1   7
ATOM      7  O   LIG d   1      -6.181  96.795 118.826  0.00  0.00    -0.368 OA
BRANCH   7   8
ATOM      8  C   LIG d   1      -5.801  97.383 120.094  0.00  0.00     0.119 C 
BRANCH   8   9
ATOM      9  C   LIG d   1      -6.881  98.417 120.468  0.00  0.00     0.028 C 
ATOM     10  C   LIG d   1      -7.692  97.997 121.705  0.00  0.00     0.006 C 
ENDBRANCH   8   9
BRANCH   8  11
ATOM     11  C   LIG d   1      -4.500  98.182 119.970  0.00  0.00     0.028 C 
ATOM     12  C   LIG d   1      -4.021  98.320 118.516  0.00  0.00     0.006 C 
ENDBRANCH   8  11
ENDBRANCH   7   8
ENDBRANCH   1   7
BRANCH   6  13
ATOM     13  N   LIG d   1      -4.112  94.610 118.667  0.00  0.00    -0.311 N 
ATOM     14  C   LIG d   1      -2.862  94.803 119.085  0.00  0.00     0.210 C 
ATOM     15  C   LIG d   1      -1.797  94.753 117.985  0.00  0.00     0.109 C 
ATOM     16  O   LIG d   1      -2.531  94.979 120.267  0.00  0.00    -0.276 OA
ATOM     17  H   LIG d   1      -4.286  94.442 117.695  0.00  0.00     0.149 HD
ENDBRANCH   6  13
BRANCH   5  18
ATOM     18  N   LIG d   1      -4.703  92.533 120.828  0.00  0.00     0.381 N 
ATOM     19  H   LIG d   1      -4.783  91.543 120.704  0.00  0.00    -0.090 HD
ATOM     20  H   LIG d   1      -4.861  92.743 121.798  0.00  0.00    -0.090 HD
ATOM     21  H   LIG d   1      -3.793  92.836 120.559  0.00  0.00    -0.090 HD
ENDBRANCH   5  18
BRANCH   3  22
ATOM     22  C   LIG d   1      -9.320  93.775 120.552  0.00  0.00     0.382 C 
ATOM     23  O   LIG d   1      -9.609  93.251 121.655  0.00  0.00    -0.241 OA
ATOM     24  O   LIG d   1     -10.218  93.969 119.711  0.00  0.00    -0.241 OA
ENDBRANCH   3  22
TORSDOF 7
ENDMDL
MODEL 8
REMARK VINA RESULT:      -4.5     11.269     13.760
REMARK  7 active torsions:
REMARK  status: ('A' for Active; 'I' for Inactive)
REMARK    1  A    between atoms: C_2  and  C_3 
REMARK    2  A    between atoms: C_3  and  O_6 
REMARK    3  A    between atoms: C_3  and  C_4 
REMARK    4  A    between atoms: C_7  and  O_6 
REMARK    5  A    between atoms: C_9  and  C_10 
REMARK    6  A    between atoms: N_15  and  C_14 
REMARK    7  A    between atoms: N_20  and  C_19 
REMARK       I    between atoms: C_22  and  N_20 
ROOT
ATOM      1  C   LIG d   1      -5.653  94.540 119.542  0.00  0.00     0.161 C 
ATOM      2  C   LIG d   1      -6.895  93.914 119.742  0.00  0.00     0.016 C 
ATOM      3  C   LIG d   1      -8.086  94.621 120.023  0.00  0.00     0.038 C 
ATOM      4  C   LIG d   1      -8.147  96.022 119.972  0.00  0.00     0.028 C 
ATOM      5  C   LIG d   1      -6.812  96.697 120.271  0.00  0.00    -0.047 C 
ATOM      6  C   LIG d   1      -5.721  96.072 119.372  0.00  0.00     0.091 C 
ENDROOT
BRANCH   1   7
ATOM      7  O   LIG d   1      -4.980  93.941 118.417  0.00  0.00    -0.368 OA
BRANCH   7   8
ATOM      8  C   LIG d   1      -4.029  92.893 118.727  0.00  0.00     0.119 C 
BRANCH   8   9
ATOM      9  C   LIG d   1      -2.708  93.573 119.136  0.00  0.00     0.028 C 
ATOM     10  C   LIG d   1      -2.039  94.309 117.963  0.00  0.00     0.006 C 
ENDBRANCH   8   9
BRANCH   8  11
ATOM     11  C   LIG d   1      -3.690  92.062 117.486  0.00  0.00     0.028 C 
ATOM     12  C   LIG d   1      -3.491  90.572 117.802  0.00  0.00     0.006 C 
ENDBRANCH   8  11
ENDBRANCH   7   8
ENDBRANCH   1   7
BRANCH   6  13
ATOM     13  N   LIG d   1      -4.369  96.617 119.660  0.00  0.00    -0.311 N 
ATOM     14  C   LIG d   1      -3.852  97.670 119.028  0.00  0.00     0.210 C 
ATOM     15  C   LIG d   1      -2.435  98.055 119.464  0.00  0.00     0.109 C 
ATOM     16  O   LIG d   1      -4.446  98.341 118.171  0.00  0.00    -0.276 OA
ATOM     17  H   LIG d   1      -3.830  96.152 120.365  0.00  0.00     0.149 HD
ENDBRANCH   6  13
BRANCH   5  18
ATOM     18  N   LIG d   1      -6.986  98.145 120.048  0.00  0.00     0.381 N 
ATOM     19  H   LIG d   1      -6.503  98.657 120.759  0.00  0.00    -0.090 HD
ATOM     20  H   LIG d   1      -7.964  98.368 120.108  0.00  0.00    -0.090 HD
ATOM     21  H   LIG d   1      -6.634  98.397 119.151  0.00  0.00    -0.090 HD
ENDBRANCH   5  18
BRANCH   3  22
ATOM     22  C   LIG d   1      -9.226  93.926 120.398  0.00  0.00     0.382 C 
ATOM     23  O   LIG d   1      -9.210  93.204 121.423  0.00  0.00    -0.241 OA
ATOM     24  O   LIG d   1     -10.256  93.978 119.699  0.00  0.00    -0.241 OA
ENDBRANCH   3  22
TORSDOF 7
ENDMDL
MODEL 9
REMARK VINA RESULT:      -4.5     14.719     17.618
REMARK  7 active torsions:
REMARK  status: ('A' for Active; 'I' for Inactive)
REMARK    1  A    between atoms: C_2  and  C_3 
REMARK    2  A    between atoms: C_3  and  O_6 
REMARK    3  A    between atoms: C_3  and  C_4 
REMARK    4  A    between atoms: C_7  and  O_6 
REMARK    5  A    between atoms: C_9  and  C_10 
REMARK    6  A    between atoms: N_15  and  C_14 
REMARK    7  A    between atoms: N_20  and  C_19 
REMARK       I    between atoms: C_22  and  N_20 
ROOT
ATOM      1  C   LIG d   1     -13.729  66.097 121.208  0.00  0.00     0.161 C 
ATOM      2  C   LIG d   1     -12.639  66.044 122.093  0.00  0.00     0.016 C 
ATOM      3  C   LIG d   1     -11.647  65.037 122.047  0.00  0.00     0.038 C 
ATOM      4  C   LIG d   1     -11.596  64.094 121.010  0.00  0.00     0.028 C 
ATOM      5  C   LIG d   1     -12.958  63.802 120.388  0.00  0.00    -0.047 C 
ATOM      6  C   LIG d   1     -13.629  65.140 120.001  0.00  0.00     0.091 C 
ENDROOT
BRANCH   1   7
ATOM      7  O   LIG d   1     -13.928  67.451 120.758  0.00  0.00    -0.368 OA
BRANCH   7   8
ATOM      8  C   LIG d   1     -13.298  67.805 119.502  0.00  0.00     0.119 C 
BRANCH   8   9
ATOM      9  C   LIG d   1     -12.272  68.917 119.796  0.00  0.00     0.028 C 
ATOM     10  C   LIG d   1     -12.548  69.633 121.129  0.00  0.00     0.006 C 
ENDBRANCH   8   9
BRANCH   8  11
ATOM     11  C   LIG d   1     -14.304  68.428 118.530  0.00  0.00     0.028 C 
ATOM     12  C   LIG d   1     -15.720  68.527 119.120  0.00  0.00     0.006 C 
ENDBRANCH   8  11
ENDBRANCH   7   8
ENDBRANCH   1   7
BRANCH   6  13
ATOM     13  N   LIG d   1     -15.001  64.951 119.462  0.00  0.00    -0.311 N 
ATOM     14  C   LIG d   1     -15.270  64.847 118.162  0.00  0.00     0.210 C 
ATOM     15  C   LIG d   1     -16.753  64.676 117.820  0.00  0.00     0.109 C 
ATOM     16  O   LIG d   1     -14.418  64.848 117.261  0.00  0.00    -0.276 OA
ATOM     17  H   LIG d   1     -15.749  64.908 120.126  0.00  0.00     0.149 HD
ENDBRANCH   6  13
BRANCH   5  18
ATOM     18  N   LIG d   1     -12.739  62.910 119.234  0.00  0.00     0.381 N 
ATOM     19  H   LIG d   1     -12.274  62.076 119.534  0.00  0.00    -0.090 HD
ATOM     20  H   LIG d   1     -12.149  63.378 118.569  0.00  0.00    -0.090 HD
ATOM     21  H   LIG d   1     -13.611  62.679 118.812  0.00  0.00    -0.090 HD
ENDBRANCH   5  18
BRANCH   3  22
ATOM     22  C   LIG d   1     -10.716  64.943 123.070  0.00  0.00     0.382 C 
ATOM     23  O   LIG d   1      -9.653  64.300 122.893  0.00  0.00    -0.241 OA
ATOM     24  O   LIG d   1     -10.944  65.457 124.181  0.00  0.00    -0.241 OA
ENDBRANCH   3  22
TORSDOF 7
ENDMDL
