MODEL 1
REMARK VINA RESULT:      -5.8      0.000      0.000
REMARK  7 active torsions:
REMARK  status: ('A' for Active; 'I' for Inactive)
REMARK    1  A    between atoms: C_2  and  C_3 
REMARK    2  A    between atoms: C_3  and  O_6 
REMARK    3  A    between atoms: C_3  and  C_4 
REMARK    4  A    between atoms: C_7  and  O_6 
REMARK    5  A    between atoms: C_9  and  C_10 
REMARK    6  A    between atoms: N_15  and  C_14 
REMARK    7  A    between atoms: N_20  and  C_19 
REMARK       I    between atoms: C_22  and  N_20 
ROOT
ATOM      1  C   LIG d   1      -8.240  76.153 116.591  0.00  0.00     0.161 C 
ATOM      2  C   LIG d   1      -7.289  75.615 115.707  0.00  0.00     0.016 C 
ATOM      3  C   LIG d   1      -5.995  76.157 115.531  0.00  0.00     0.038 C 
ATOM      4  C   LIG d   1      -5.508  77.192 116.344  0.00  0.00     0.028 C 
ATOM      5  C   LIG d   1      -6.606  78.093 116.899  0.00  0.00    -0.047 C 
ATOM      6  C   LIG d   1      -7.688  77.214 117.566  0.00  0.00     0.091 C 
ENDROOT
BRANCH   1   7
ATOM      7  O   LIG d   1      -8.887  75.091 117.319  0.00  0.00    -0.368 OA
BRANCH   7   8
ATOM      8  C   LIG d   1     -10.333  75.051 117.238  0.00  0.00     0.119 C 
BRANCH   8   9
ATOM      9  C   LIG d   1     -10.883  75.287 118.658  0.00  0.00     0.028 C 
ATOM     10  C   LIG d   1     -12.392  75.584 118.661  0.00  0.00     0.006 C 
ENDBRANCH   8   9
BRANCH   8  11
ATOM     11  C   LIG d   1     -10.830  73.659 116.837  0.00  0.00     0.028 C 
ATOM     12  C   LIG d   1      -9.703  72.615 116.787  0.00  0.00     0.006 C 
ENDBRANCH   8  11
ENDBRANCH   7   8
ENDBRANCH   1   7
BRANCH   6  13
ATOM     13  N   LIG d   1      -8.840  78.011 118.062  0.00  0.00    -0.311 N 
ATOM     14  C   LIG d   1      -8.955  78.428 119.321  0.00  0.00     0.210 C 
ATOM     15  C   LIG d   1     -10.231  79.219 119.626  0.00  0.00     0.109 C 
ATOM     16  O   LIG d   1      -8.107  78.246 120.207  0.00  0.00    -0.276 OA
ATOM     17  H   LIG d   1      -9.560  78.231 117.402  0.00  0.00     0.149 HD
ENDBRANCH   6  13
BRANCH   5  18
ATOM     18  N   LIG d   1      -5.973  79.041 117.836  0.00  0.00     0.381 N 
ATOM     19  H   LIG d   1      -5.366  78.546 118.459  0.00  0.00    -0.090 HD
ATOM     20  H   LIG d   1      -6.689  79.487 118.380  0.00  0.00    -0.090 HD
ATOM     21  H   LIG d   1      -5.455  79.725 117.330  0.00  0.00    -0.090 HD
ENDBRANCH   5  18
BRANCH   3  22
ATOM     22  C   LIG d   1      -5.188  75.689 114.506  0.00  0.00     0.382 C 
ATOM     23  O   LIG d   1      -4.541  76.498 113.798  0.00  0.00    -0.241 OA
ATOM     24  O   LIG d   1      -5.133  74.471 114.251  0.00  0.00    -0.241 OA
ENDBRANCH   3  22
TORSDOF 7
ENDMDL
MODEL 2
REMARK VINA RESULT:      -5.6      2.296      4.815
REMARK  7 active torsions:
REMARK  status: ('A' for Active; 'I' for Inactive)
REMARK    1  A    between atoms: C_2  and  C_3 
REMARK    2  A    between atoms: C_3  and  O_6 
REMARK    3  A    between atoms: C_3  and  C_4 
REMARK    4  A    between atoms: C_7  and  O_6 
REMARK    5  A    between atoms: C_9  and  C_10 
REMARK    6  A    between atoms: N_15  and  C_14 
REMARK    7  A    between atoms: N_20  and  C_19 
REMARK       I    between atoms: C_22  and  N_20 
ROOT
ATOM      1  C   LIG d   1      -8.287  75.541 118.767  0.00  0.00     0.161 C 
ATOM      2  C   LIG d   1      -8.000  74.348 118.085  0.00  0.00     0.016 C 
ATOM      3  C   LIG d   1      -8.970  73.605 117.374  0.00  0.00     0.038 C 
ATOM      4  C   LIG d   1     -10.272  74.088 117.171  0.00  0.00     0.028 C 
ATOM      5  C   LIG d   1     -10.742  75.040 118.265  0.00  0.00    -0.047 C 
ATOM      6  C   LIG d   1      -9.676  76.142 118.464  0.00  0.00     0.091 C 
ENDROOT
BRANCH   1   7
ATOM      7  O   LIG d   1      -7.254  76.513 118.509  0.00  0.00    -0.368 OA
BRANCH   7   8
ATOM      8  C   LIG d   1      -7.368  77.249 117.267  0.00  0.00     0.119 C 
BRANCH   8   9
ATOM      9  C   LIG d   1      -6.213  76.795 116.353  0.00  0.00     0.028 C 
ATOM     10  C   LIG d   1      -6.712  76.049 115.104  0.00  0.00     0.006 C 
ENDBRANCH   8   9
BRANCH   8  11
ATOM     11  C   LIG d   1      -7.146  78.749 117.486  0.00  0.00     0.028 C 
ATOM     12  C   LIG d   1      -5.716  79.196 117.144  0.00  0.00     0.006 C 
ENDBRANCH   8  11
ENDBRANCH   7   8
ENDBRANCH   1   7
BRANCH   6  13
ATOM     13  N   LIG d   1     -10.018  77.068 119.574  0.00  0.00    -0.311 N 
ATOM     14  C   LIG d   1     -10.352  78.344 119.389  0.00  0.00     0.210 C 
ATOM     15  C   LIG d   1     -10.648  79.128 120.671  0.00  0.00     0.109 C 
ATOM     16  O   LIG d   1     -10.463  78.892 118.282  0.00  0.00    -0.276 OA
ATOM     17  H   LIG d   1      -9.984  76.698 120.504  0.00  0.00     0.149 HD
ENDBRANCH   6  13
BRANCH   5  18
ATOM     18  N   LIG d   1     -12.055  75.574 117.857  0.00  0.00     0.381 N 
ATOM     19  H   LIG d   1     -12.435  75.013 117.120  0.00  0.00    -0.090 HD
ATOM     20  H   LIG d   1     -11.933  76.509 117.510  0.00  0.00    -0.090 HD
ATOM     21  H   LIG d   1     -12.678  75.579 118.635  0.00  0.00    -0.090 HD
ENDBRANCH   5  18
BRANCH   3  22
ATOM     22  C   LIG d   1      -8.653  72.344 116.892  0.00  0.00     0.382 C 
ATOM     23  O   LIG d   1      -9.565  71.515 116.657  0.00  0.00    -0.241 OA
ATOM     24  O   LIG d   1      -7.464  72.009 116.732  0.00  0.00    -0.241 OA
ENDBRANCH   3  22
TORSDOF 7
ENDMDL
MODEL 3
REMARK VINA RESULT:      -5.6     15.358     17.370
REMARK  7 active torsions:
REMARK  status: ('A' for Active; 'I' for Inactive)
REMARK    1  A    between atoms: C_2  and  C_3 
REMARK    2  A    between atoms: C_3  and  O_6 
REMARK    3  A    between atoms: C_3  and  C_4 
REMARK    4  A    between atoms: C_7  and  O_6 
REMARK    5  A    between atoms: C_9  and  C_10 
REMARK    6  A    between atoms: N_15  and  C_14 
REMARK    7  A    between atoms: N_20  and  C_19 
REMARK       I    between atoms: C_22  and  N_20 
ROOT
ATOM      1  C   LIG d   1      -5.672  92.307 118.350  0.00  0.00     0.161 C 
ATOM      2  C   LIG d   1      -5.509  91.619 117.136  0.00  0.00     0.016 C 
ATOM      3  C   LIG d   1      -6.247  91.916 115.968  0.00  0.00     0.038 C 
ATOM      4  C   LIG d   1      -7.097  93.030 115.891  0.00  0.00     0.028 C 
ATOM      5  C   LIG d   1      -7.671  93.447 117.241  0.00  0.00    -0.047 C 
ATOM      6  C   LIG d   1      -6.514  93.596 118.255  0.00  0.00     0.091 C 
ENDROOT
BRANCH   1   7
ATOM      7  O   LIG d   1      -4.382  92.592 118.927  0.00  0.00    -0.368 OA
BRANCH   7   8
ATOM      8  C   LIG d   1      -3.279  92.710 117.995  0.00  0.00     0.119 C 
BRANCH   8   9
ATOM      9  C   LIG d   1      -2.100  91.900 118.569  0.00  0.00     0.028 C 
ATOM     10  C   LIG d   1      -1.998  90.495 117.953  0.00  0.00     0.006 C 
ENDBRANCH   8   9
BRANCH   8  11
ATOM     11  C   LIG d   1      -2.775  94.154 117.908  0.00  0.00     0.028 C 
ATOM     12  C   LIG d   1      -1.295  94.245 117.505  0.00  0.00     0.006 C 
ENDBRANCH   8  11
ENDBRANCH   7   8
ENDBRANCH   1   7
BRANCH   6  13
ATOM     13  N   LIG d   1      -6.996  93.921 119.622  0.00  0.00    -0.311 N 
ATOM     14  C   LIG d   1      -7.097  95.165 120.088  0.00  0.00     0.210 C 
ATOM     15  C   LIG d   1      -7.597  95.276 121.532  0.00  0.00     0.109 C 
ATOM     16  O   LIG d   1      -6.849  96.188 119.433  0.00  0.00    -0.276 OA
ATOM     17  H   LIG d   1      -7.248  93.152 120.211  0.00  0.00     0.149 HD
ENDBRANCH   6  13
BRANCH   5  18
ATOM     18  N   LIG d   1      -8.425  94.698 117.036  0.00  0.00     0.381 N 
ATOM     19  H   LIG d   1      -7.806  95.421 116.729  0.00  0.00    -0.090 HD
ATOM     20  H   LIG d   1      -8.830  94.981 117.912  0.00  0.00    -0.090 HD
ATOM     21  H   LIG d   1      -9.144  94.557 116.361  0.00  0.00    -0.090 HD
ENDBRANCH   5  18
BRANCH   3  22
ATOM     22  C   LIG d   1      -6.168  91.071 114.871  0.00  0.00     0.382 C 
ATOM     23  O   LIG d   1      -6.550  91.469 113.745  0.00  0.00    -0.241 OA
ATOM     24  O   LIG d   1      -5.762  89.901 115.004  0.00  0.00    -0.241 OA
ENDBRANCH   3  22
TORSDOF 7
ENDMDL
MODEL 4
REMARK VINA RESULT:      -5.5      1.969      5.081
REMARK  7 active torsions:
REMARK  status: ('A' for Active; 'I' for Inactive)
REMARK    1  A    between atoms: C_2  and  C_3 
REMARK    2  A    between atoms: C_3  and  O_6 
REMARK    3  A    between atoms: C_3  and  C_4 
REMARK    4  A    between atoms: C_7  and  O_6 
REMARK    5  A    between atoms: C_9  and  C_10 
REMARK    6  A    between atoms: N_15  and  C_14 
REMARK    7  A    between atoms: N_20  and  C_19 
REMARK       I    between atoms: C_22  and  N_20 
ROOT
ATOM      1  C   LIG d   1      -8.198  76.265 117.196  0.00  0.00     0.161 C 
ATOM      2  C   LIG d   1      -9.077  75.219 116.867  0.00  0.00     0.016 C 
ATOM      3  C   LIG d   1     -10.379  75.099 117.403  0.00  0.00     0.038 C 
ATOM      4  C   LIG d   1     -10.951  76.107 118.195  0.00  0.00     0.028 C 
ATOM      5  C   LIG d   1      -9.922  76.932 118.960  0.00  0.00    -0.047 C 
ATOM      6  C   LIG d   1      -8.844  77.432 117.972  0.00  0.00     0.091 C 
ENDROOT
BRANCH   1   7
ATOM      7  O   LIG d   1      -7.550  76.752 116.005  0.00  0.00    -0.368 OA
BRANCH   7   8
ATOM      8  C   LIG d   1      -6.108  76.620 115.964  0.00  0.00     0.119 C 
BRANCH   8   9
ATOM      9  C   LIG d   1      -5.749  75.868 114.668  0.00  0.00     0.028 C 
ATOM     10  C   LIG d   1      -5.373  74.399 114.927  0.00  0.00     0.006 C 
ENDBRANCH   8   9
BRANCH   8  11
ATOM     11  C   LIG d   1      -5.597  75.733 117.103  0.00  0.00     0.028 C 
ATOM     12  C   LIG d   1      -4.571  76.446 117.999  0.00  0.00     0.006 C 
ENDBRANCH   8  11
ENDBRANCH   7   8
ENDBRANCH   1   7
BRANCH   6  13
ATOM     13  N   LIG d   1      -7.753  78.178 118.653  0.00  0.00    -0.311 N 
ATOM     14  C   LIG d   1      -7.318  79.370 118.249  0.00  0.00     0.210 C 
ATOM     15  C   LIG d   1      -6.171  79.955 119.080  0.00  0.00     0.109 C 
ATOM     16  O   LIG d   1      -7.793  80.013 117.302  0.00  0.00    -0.276 OA
ATOM     17  H   LIG d   1      -7.331  77.743 119.450  0.00  0.00     0.149 HD
ENDBRANCH   6  13
BRANCH   5  18
ATOM     18  N   LIG d   1     -10.642  78.029 119.634  0.00  0.00     0.381 N 
ATOM     19  H   LIG d   1     -11.599  78.035 119.342  0.00  0.00    -0.090 HD
ATOM     20  H   LIG d   1     -10.226  78.904 119.366  0.00  0.00    -0.090 HD
ATOM     21  H   LIG d   1     -10.590  77.916 120.622  0.00  0.00    -0.090 HD
ENDBRANCH   5  18
BRANCH   3  22
ATOM     22  C   LIG d   1     -11.110  73.942 117.180  0.00  0.00     0.382 C 
ATOM     23  O   LIG d   1     -12.330  73.906 117.472  0.00  0.00    -0.241 OA
ATOM     24  O   LIG d   1     -10.556  72.921 116.733  0.00  0.00    -0.241 OA
ENDBRANCH   3  22
TORSDOF 7
ENDMDL
MODEL 5
REMARK VINA RESULT:      -5.4      1.676      4.765
REMARK  7 active torsions:
REMARK  status: ('A' for Active; 'I' for Inactive)
REMARK    1  A    between atoms: C_2  and  C_3 
REMARK    2  A    between atoms: C_3  and  O_6 
REMARK    3  A    between atoms: C_3  and  C_4 
REMARK    4  A    between atoms: C_7  and  O_6 
REMARK    5  A    between atoms: C_9  and  C_10 
REMARK    6  A    between atoms: N_15  and  C_14 
REMARK    7  A    between atoms: N_20  and  C_19 
REMARK       I    between atoms: C_22  and  N_20 
ROOT
ATOM      1  C   LIG d   1      -8.070  76.904 117.425  0.00  0.00     0.161 C 
ATOM      2  C   LIG d   1      -8.798  77.837 118.182  0.00  0.00     0.016 C 
ATOM      3  C   LIG d   1      -8.350  79.154 118.435  0.00  0.00     0.038 C 
ATOM      4  C   LIG d   1      -7.204  79.678 117.818  0.00  0.00     0.028 C 
ATOM      5  C   LIG d   1      -6.173  78.616 117.452  0.00  0.00    -0.047 C 
ATOM      6  C   LIG d   1      -6.872  77.493 116.651  0.00  0.00     0.091 C 
ENDROOT
BRANCH   1   7
ATOM      7  O   LIG d   1      -8.955  76.208 116.525  0.00  0.00    -0.368 OA
BRANCH   7   8
ATOM      8  C   LIG d   1      -9.325  74.861 116.909  0.00  0.00     0.119 C 
BRANCH   8   9
ATOM      9  C   LIG d   1     -10.621  74.956 117.737  0.00  0.00     0.028 C 
ATOM     10  C   LIG d   1     -11.660  73.900 117.324  0.00  0.00     0.006 C 
ENDBRANCH   8   9
BRANCH   8  11
ATOM     11  C   LIG d   1      -8.286  74.245 117.851  0.00  0.00     0.028 C 
ATOM     12  C   LIG d   1      -7.639  72.975 117.276  0.00  0.00     0.006 C 
ENDBRANCH   8  11
ENDBRANCH   7   8
ENDBRANCH   1   7
BRANCH   6  13
ATOM     13  N   LIG d   1      -5.952  76.373 116.326  0.00  0.00    -0.311 N 
ATOM     14  C   LIG d   1      -5.831  75.855 115.104  0.00  0.00     0.210 C 
ATOM     15  C   LIG d   1      -4.840  74.692 114.991  0.00  0.00     0.109 C 
ATOM     16  O   LIG d   1      -6.425  76.269 114.098  0.00  0.00    -0.276 OA
ATOM     17  H   LIG d   1      -5.408  75.996 117.077  0.00  0.00     0.149 HD
ENDBRANCH   6  13
BRANCH   5  18
ATOM     18  N   LIG d   1      -5.097  79.282 116.694  0.00  0.00     0.381 N 
ATOM     19  H   LIG d   1      -5.488  79.787 115.923  0.00  0.00    -0.090 HD
ATOM     20  H   LIG d   1      -4.475  78.583 116.330  0.00  0.00    -0.090 HD
ATOM     21  H   LIG d   1      -4.597  79.905 117.289  0.00  0.00    -0.090 HD
ENDBRANCH   5  18
BRANCH   3  22
ATOM     22  C   LIG d   1      -9.029  79.948 119.347  0.00  0.00     0.382 C 
ATOM     23  O   LIG d   1     -10.282  79.994 119.326  0.00  0.00    -0.241 OA
ATOM     24  O   LIG d   1      -8.402  80.653 120.160  0.00  0.00    -0.241 OA
ENDBRANCH   3  22
TORSDOF 7
ENDMDL
MODEL 6
REMARK VINA RESULT:      -5.2     15.245     17.504
REMARK  7 active torsions:
REMARK  status: ('A' for Active; 'I' for Inactive)
REMARK    1  A    between atoms: C_2  and  C_3 
REMARK    2  A    between atoms: C_3  and  O_6 
REMARK    3  A    between atoms: C_3  and  C_4 
REMARK    4  A    between atoms: C_7  and  O_6 
REMARK    5  A    between atoms: C_9  and  C_10 
REMARK    6  A    between atoms: N_15  and  C_14 
REMARK    7  A    between atoms: N_20  and  C_19 
REMARK       I    between atoms: C_22  and  N_20 
ROOT
ATOM      1  C   LIG d   1      -5.091  92.744 117.573  0.00  0.00     0.161 C 
ATOM      2  C   LIG d   1      -5.212  91.863 116.485  0.00  0.00     0.016 C 
ATOM      3  C   LIG d   1      -6.291  91.897 115.572  0.00  0.00     0.038 C 
ATOM      4  C   LIG d   1      -7.251  92.920 115.597  0.00  0.00     0.028 C 
ATOM      5  C   LIG d   1      -7.448  93.532 116.980  0.00  0.00    -0.047 C 
ATOM      6  C   LIG d   1      -6.070  93.937 117.551  0.00  0.00     0.091 C 
ENDROOT
BRANCH   1   7
ATOM      7  O   LIG d   1      -3.732  93.214 117.672  0.00  0.00    -0.368 OA
BRANCH   7   8
ATOM      8  C   LIG d   1      -2.957  92.693 118.781  0.00  0.00     0.119 C 
BRANCH   8   9
ATOM      9  C   LIG d   1      -2.084  93.845 119.316  0.00  0.00     0.028 C 
ATOM     10  C   LIG d   1      -0.584  93.605 119.074  0.00  0.00     0.006 C 
ENDBRANCH   8   9
BRANCH   8  11
ATOM     11  C   LIG d   1      -1.970  91.619 118.315  0.00  0.00     0.028 C 
ATOM     12  C   LIG d   1      -2.502  90.192 118.521  0.00  0.00     0.006 C 
ENDBRANCH   8  11
ENDBRANCH   7   8
ENDBRANCH   1   7
BRANCH   6  13
ATOM     13  N   LIG d   1      -6.164  94.467 118.936  0.00  0.00    -0.311 N 
ATOM     14  C   LIG d   1      -6.248  95.765 119.220  0.00  0.00     0.210 C 
ATOM     15  C   LIG d   1      -6.315  96.097 120.714  0.00  0.00     0.109 C 
ATOM     16  O   LIG d   1      -6.305  96.672 118.376  0.00  0.00    -0.276 OA
ATOM     17  H   LIG d   1      -6.155  93.799 119.682  0.00  0.00     0.149 HD
ENDBRANCH   6  13
BRANCH   5  18
ATOM     18  N   LIG d   1      -8.371  94.673 116.835  0.00  0.00     0.381 N 
ATOM     19  H   LIG d   1      -9.281  94.417 117.164  0.00  0.00    -0.090 HD
ATOM     20  H   LIG d   1      -8.444  94.911 115.861  0.00  0.00    -0.090 HD
ATOM     21  H   LIG d   1      -8.031  95.455 117.351  0.00  0.00    -0.090 HD
ENDBRANCH   5  18
BRANCH   3  22
ATOM     22  C   LIG d   1      -6.439  90.877 114.645  0.00  0.00     0.382 C 
ATOM     23  O   LIG d   1      -5.856  89.780 114.821  0.00  0.00    -0.241 OA
ATOM     24  O   LIG d   1      -7.112  91.055 113.612  0.00  0.00    -0.241 OA
ENDBRANCH   3  22
TORSDOF 7
ENDMDL
MODEL 7
REMARK VINA RESULT:      -5.1      2.235      4.597
REMARK  7 active torsions:
REMARK  status: ('A' for Active; 'I' for Inactive)
REMARK    1  A    between atoms: C_2  and  C_3 
REMARK    2  A    between atoms: C_3  and  O_6 
REMARK    3  A    between atoms: C_3  and  C_4 
REMARK    4  A    between atoms: C_7  and  O_6 
REMARK    5  A    between atoms: C_9  and  C_10 
REMARK    6  A    between atoms: N_15  and  C_14 
REMARK    7  A    between atoms: N_20  and  C_19 
REMARK       I    between atoms: C_22  and  N_20 
ROOT
ATOM      1  C   LIG d   1      -6.943  77.998 117.328  0.00  0.00     0.161 C 
ATOM      2  C   LIG d   1      -6.163  77.465 116.288  0.00  0.00     0.016 C 
ATOM      3  C   LIG d   1      -6.495  76.277 115.596  0.00  0.00     0.038 C 
ATOM      4  C   LIG d   1      -7.718  75.619 115.797  0.00  0.00     0.028 C 
ATOM      5  C   LIG d   1      -8.301  75.838 117.189  0.00  0.00    -0.047 C 
ATOM      6  C   LIG d   1      -8.336  77.355 117.486  0.00  0.00     0.091 C 
ENDROOT
BRANCH   1   7
ATOM      7  O   LIG d   1      -7.065  79.425 117.165  0.00  0.00    -0.368 OA
BRANCH   7   8
ATOM      8  C   LIG d   1      -6.076  80.231 117.852  0.00  0.00     0.119 C 
BRANCH   8   9
ATOM      9  C   LIG d   1      -5.842  79.597 119.236  0.00  0.00     0.028 C 
ATOM     10  C   LIG d   1      -6.615  80.319 120.352  0.00  0.00     0.006 C 
ENDBRANCH   8   9
BRANCH   8  11
ATOM     11  C   LIG d   1      -6.607  81.640 118.136  0.00  0.00     0.028 C 
ATOM     12  C   LIG d   1      -7.843  81.992 117.293  0.00  0.00     0.006 C 
ENDBRANCH   8  11
ENDBRANCH   7   8
ENDBRANCH   1   7
BRANCH   6  13
ATOM     13  N   LIG d   1      -8.815  77.653 118.861  0.00  0.00    -0.311 N 
ATOM     14  C   LIG d   1      -9.732  78.580 119.133  0.00  0.00     0.210 C 
ATOM     15  C   LIG d   1     -10.068  78.740 120.619  0.00  0.00     0.109 C 
ATOM     16  O   LIG d   1     -10.322  79.263 118.282  0.00  0.00    -0.276 OA
ATOM     17  H   LIG d   1      -8.412  77.123 119.609  0.00  0.00     0.149 HD
ENDBRANCH   6  13
BRANCH   5  18
ATOM     18  N   LIG d   1      -9.637  75.213 117.216  0.00  0.00     0.381 N 
ATOM     19  H   LIG d   1      -9.643  74.402 116.630  0.00  0.00    -0.090 HD
ATOM     20  H   LIG d   1     -10.309  75.867 116.856  0.00  0.00    -0.090 HD
ATOM     21  H   LIG d   1      -9.876  74.959 118.149  0.00  0.00    -0.090 HD
ENDBRANCH   5  18
BRANCH   3  22
ATOM     22  C   LIG d   1      -5.581  75.714 114.719  0.00  0.00     0.382 C 
ATOM     23  O   LIG d   1      -5.200  74.530 114.886  0.00  0.00    -0.241 OA
ATOM     24  O   LIG d   1      -5.099  76.388 113.790  0.00  0.00    -0.241 OA
ENDBRANCH   3  22
TORSDOF 7
ENDMDL
MODEL 8
REMARK VINA RESULT:      -5.0      1.373      2.064
REMARK  7 active torsions:
REMARK  status: ('A' for Active; 'I' for Inactive)
REMARK    1  A    between atoms: C_2  and  C_3 
REMARK    2  A    between atoms: C_3  and  O_6 
REMARK    3  A    between atoms: C_3  and  C_4 
REMARK    4  A    between atoms: C_7  and  O_6 
REMARK    5  A    between atoms: C_9  and  C_10 
REMARK    6  A    between atoms: N_15  and  C_14 
REMARK    7  A    between atoms: N_20  and  C_19 
REMARK       I    between atoms: C_22  and  N_20 
ROOT
ATOM      1  C   LIG d   1      -7.569  75.931 117.661  0.00  0.00     0.161 C 
ATOM      2  C   LIG d   1      -6.544  75.094 117.189  0.00  0.00     0.016 C 
ATOM      3  C   LIG d   1      -5.323  75.578 116.666  0.00  0.00     0.038 C 
ATOM      4  C   LIG d   1      -4.981  76.938 116.718  0.00  0.00     0.028 C 
ATOM      5  C   LIG d   1      -6.190  77.867 116.723  0.00  0.00    -0.047 C 
ATOM      6  C   LIG d   1      -7.169  77.412 117.830  0.00  0.00     0.091 C 
ENDROOT
BRANCH   1   7
ATOM      7  O   LIG d   1      -8.094  75.410 118.898  0.00  0.00    -0.368 OA
BRANCH   7   8
ATOM      8  C   LIG d   1      -9.417  74.823 118.832  0.00  0.00     0.119 C 
BRANCH   8   9
ATOM      9  C   LIG d   1      -9.940  75.021 117.396  0.00  0.00     0.028 C 
ATOM     10  C   LIG d   1     -10.700  73.791 116.873  0.00  0.00     0.006 C 
ENDBRANCH   8   9
BRANCH   8  11
ATOM     11  C   LIG d   1     -10.405  75.571 119.731  0.00  0.00     0.028 C 
ATOM     12  C   LIG d   1     -11.333  76.510 118.944  0.00  0.00     0.006 C 
ENDBRANCH   8  11
ENDBRANCH   7   8
ENDBRANCH   1   7
BRANCH   6  13
ATOM     13  N   LIG d   1      -8.418  78.216 117.847  0.00  0.00    -0.311 N 
ATOM     14  C   LIG d   1      -8.588  79.290 118.617  0.00  0.00     0.210 C 
ATOM     15  C   LIG d   1      -9.959  79.962 118.496  0.00  0.00     0.109 C 
ATOM     16  O   LIG d   1      -7.721  79.769 119.364  0.00  0.00    -0.276 OA
ATOM     17  H   LIG d   1      -9.162  77.917 117.248  0.00  0.00     0.149 HD
ENDBRANCH   6  13
BRANCH   5  18
ATOM     18  N   LIG d   1      -5.694  79.242 116.919  0.00  0.00     0.381 N 
ATOM     19  H   LIG d   1      -6.309  79.740 117.533  0.00  0.00    -0.090 HD
ATOM     20  H   LIG d   1      -5.684  79.714 116.032  0.00  0.00    -0.090 HD
ATOM     21  H   LIG d   1      -4.775  79.222 117.303  0.00  0.00    -0.090 HD
ENDBRANCH   5  18
BRANCH   3  22
ATOM     22  C   LIG d   1      -4.446  74.702 116.045  0.00  0.00     0.382 C 
ATOM     23  O   LIG d   1      -4.364  74.680 114.793  0.00  0.00    -0.241 OA
ATOM     24  O   LIG d   1      -3.769  73.903 116.718  0.00  0.00    -0.241 OA
ENDBRANCH   3  22
TORSDOF 7
ENDMDL
MODEL 9
REMARK VINA RESULT:      -5.0      2.464      5.822
REMARK  7 active torsions:
REMARK  status: ('A' for Active; 'I' for Inactive)
REMARK    1  A    between atoms: C_2  and  C_3 
REMARK    2  A    between atoms: C_3  and  O_6 
REMARK    3  A    between atoms: C_3  and  C_4 
REMARK    4  A    between atoms: C_7  and  O_6 
REMARK    5  A    between atoms: C_9  and  C_10 
REMARK    6  A    between atoms: N_15  and  C_14 
REMARK    7  A    between atoms: N_20  and  C_19 
REMARK       I    between atoms: C_22  and  N_20 
ROOT
ATOM      1  C   LIG d   1      -7.497  76.773 117.079  0.00  0.00     0.161 C 
ATOM      2  C   LIG d   1      -8.786  76.266 117.312  0.00  0.00     0.016 C 
ATOM      3  C   LIG d   1      -9.091  74.885 117.313  0.00  0.00     0.038 C 
ATOM      4  C   LIG d   1      -8.091  73.905 117.230  0.00  0.00     0.028 C 
ATOM      5  C   LIG d   1      -6.844  74.374 116.489  0.00  0.00    -0.047 C 
ATOM      6  C   LIG d   1      -6.373  75.715 117.096  0.00  0.00     0.091 C 
ENDROOT
BRANCH   1   7
ATOM      7  O   LIG d   1      -7.208  77.826 118.020  0.00  0.00    -0.368 OA
BRANCH   7   8
ATOM      8  C   LIG d   1      -7.083  79.159 117.465  0.00  0.00     0.119 C 
BRANCH   8   9
ATOM      9  C   LIG d   1      -5.777  79.767 118.014  0.00  0.00     0.028 C 
ATOM     10  C   LIG d   1      -4.689  79.893 116.934  0.00  0.00     0.006 C 
ENDBRANCH   8   9
BRANCH   8  11
ATOM     11  C   LIG d   1      -8.200  80.078 117.966  0.00  0.00     0.028 C 
ATOM     12  C   LIG d   1      -8.593  79.798 119.426  0.00  0.00     0.006 C 
ENDBRANCH   8  11
ENDBRANCH   7   8
ENDBRANCH   1   7
BRANCH   6  13
ATOM     13  N   LIG d   1      -5.207  76.286 116.374  0.00  0.00    -0.311 N 
ATOM     14  C   LIG d   1      -3.943  76.075 116.739  0.00  0.00     0.210 C 
ATOM     15  C   LIG d   1      -2.894  76.773 115.869  0.00  0.00     0.109 C 
ATOM     16  O   LIG d   1      -3.591  75.348 117.681  0.00  0.00    -0.276 OA
ATOM     17  H   LIG d   1      -5.400  76.863 115.579  0.00  0.00     0.149 HD
ENDBRANCH   6  13
BRANCH   5  18
ATOM     18  N   LIG d   1      -5.833  73.304 116.596  0.00  0.00     0.381 N 
ATOM     19  H   LIG d   1      -5.209  73.349 115.816  0.00  0.00    -0.090 HD
ATOM     20  H   LIG d   1      -6.299  72.414 116.578  0.00  0.00    -0.090 HD
ATOM     21  H   LIG d   1      -5.322  73.402 117.446  0.00  0.00    -0.090 HD
ENDBRANCH   5  18
BRANCH   3  22
ATOM     22  C   LIG d   1     -10.415  74.474 117.359  0.00  0.00     0.382 C 
ATOM     23  O   LIG d   1     -10.754  73.393 116.821  0.00  0.00    -0.241 OA
ATOM     24  O   LIG d   1     -11.281  75.192 117.893  0.00  0.00    -0.241 OA
ENDBRANCH   3  22
TORSDOF 7
ENDMDL
