MODEL 1
REMARK VINA RESULT:      -5.5      0.000      0.000
REMARK  7 active torsions:
REMARK  status: ('A' for Active; 'I' for Inactive)
REMARK    1  A    between atoms: C_2  and  C_3 
REMARK    2  A    between atoms: C_3  and  O_6 
REMARK    3  A    between atoms: C_3  and  C_4 
REMARK    4  A    between atoms: C_7  and  O_6 
REMARK    5  A    between atoms: C_9  and  C_10 
REMARK    6  A    between atoms: N_15  and  C_14 
REMARK    7  A    between atoms: N_20  and  C_19 
REMARK       I    between atoms: C_22  and  N_20 
ROOT
ATOM      1  C   LIG d   1      -4.598  91.243 118.302  0.00  0.00     0.161 C 
ATOM      2  C   LIG d   1      -4.953  90.837 117.004  0.00  0.00     0.016 C 
ATOM      3  C   LIG d   1      -6.216  91.099 116.425  0.00  0.00     0.038 C 
ATOM      4  C   LIG d   1      -7.163  91.922 117.052  0.00  0.00     0.028 C 
ATOM      5  C   LIG d   1      -7.044  91.933 118.572  0.00  0.00    -0.047 C 
ATOM      6  C   LIG d   1      -5.578  92.238 118.958  0.00  0.00     0.091 C 
ENDROOT
BRANCH   1   7
ATOM      7  O   LIG d   1      -3.263  91.785 118.296  0.00  0.00    -0.368 OA
BRANCH   7   8
ATOM      8  C   LIG d   1      -2.192  90.843 118.551  0.00  0.00     0.119 C 
BRANCH   8   9
ATOM      9  C   LIG d   1      -1.930  90.839 120.070  0.00  0.00     0.028 C 
ATOM     10  C   LIG d   1      -1.222  92.118 120.547  0.00  0.00     0.006 C 
ENDBRANCH   8   9
BRANCH   8  11
ATOM     11  C   LIG d   1      -0.878  91.308 117.915  0.00  0.00     0.028 C 
ATOM     12  C   LIG d   1      -0.143  90.179 117.175  0.00  0.00     0.006 C 
ENDBRANCH   8  11
ENDBRANCH   7   8
ENDBRANCH   1   7
BRANCH   6  13
ATOM     13  N   LIG d   1      -5.356  92.184 120.427  0.00  0.00    -0.311 N 
ATOM     14  C   LIG d   1      -4.746  93.150 121.112  0.00  0.00     0.210 C 
ATOM     15  C   LIG d   1      -4.603  92.886 122.614  0.00  0.00     0.109 C 
ATOM     16  O   LIG d   1      -4.339  94.214 120.623  0.00  0.00    -0.276 OA
ATOM     17  H   LIG d   1      -5.683  91.369 120.908  0.00  0.00     0.149 HD
ENDBRANCH   6  13
BRANCH   5  18
ATOM     18  N   LIG d   1      -7.997  92.934 119.087  0.00  0.00     0.381 N 
ATOM     19  H   LIG d   1      -7.953  93.763 118.528  0.00  0.00    -0.090 HD
ATOM     20  H   LIG d   1      -7.740  93.174 120.028  0.00  0.00    -0.090 HD
ATOM     21  H   LIG d   1      -8.922  92.564 119.072  0.00  0.00    -0.090 HD
ENDBRANCH   5  18
BRANCH   3  22
ATOM     22  C   LIG d   1      -6.557  90.502 115.221  0.00  0.00     0.382 C 
ATOM     23  O   LIG d   1      -7.526  90.940 114.556  0.00  0.00    -0.241 OA
ATOM     24  O   LIG d   1      -5.935  89.502 114.813  0.00  0.00    -0.241 OA
ENDBRANCH   3  22
TORSDOF 7
ENDMDL
MODEL 2
REMARK VINA RESULT:      -5.4      2.057      4.333
REMARK  7 active torsions:
REMARK  status: ('A' for Active; 'I' for Inactive)
REMARK    1  A    between atoms: C_2  and  C_3 
REMARK    2  A    between atoms: C_3  and  O_6 
REMARK    3  A    between atoms: C_3  and  C_4 
REMARK    4  A    between atoms: C_7  and  O_6 
REMARK    5  A    between atoms: C_9  and  C_10 
REMARK    6  A    between atoms: N_15  and  C_14 
REMARK    7  A    between atoms: N_20  and  C_19 
REMARK       I    between atoms: C_22  and  N_20 
ROOT
ATOM      1  C   LIG d   1      -6.065  92.122 118.242  0.00  0.00     0.161 C 
ATOM      2  C   LIG d   1      -7.114  91.690 117.415  0.00  0.00     0.016 C 
ATOM      3  C   LIG d   1      -6.943  90.763 116.361  0.00  0.00     0.038 C 
ATOM      4  C   LIG d   1      -5.731  90.087 116.158  0.00  0.00     0.028 C 
ATOM      5  C   LIG d   1      -4.514  90.865 116.648  0.00  0.00    -0.047 C 
ATOM      6  C   LIG d   1      -4.758  91.312 118.107  0.00  0.00     0.091 C 
ENDROOT
BRANCH   1   7
ATOM      7  O   LIG d   1      -6.502  92.143 119.616  0.00  0.00    -0.368 OA
BRANCH   7   8
ATOM      8  C   LIG d   1      -6.705  93.452 120.201  0.00  0.00     0.119 C 
BRANCH   8   9
ATOM      9  C   LIG d   1      -6.312  93.361 121.688  0.00  0.00     0.028 C 
ATOM     10  C   LIG d   1      -5.328  92.212 121.966  0.00  0.00     0.006 C 
ENDBRANCH   8   9
BRANCH   8  11
ATOM     11  C   LIG d   1      -8.186  93.842 120.196  0.00  0.00     0.028 C 
ATOM     12  C   LIG d   1      -8.552  94.778 119.033  0.00  0.00     0.006 C 
ENDBRANCH   8  11
ENDBRANCH   7   8
ENDBRANCH   1   7
BRANCH   6  13
ATOM     13  N   LIG d   1      -3.652  92.151 118.636  0.00  0.00    -0.311 N 
ATOM     14  C   LIG d   1      -2.679  91.677 119.412  0.00  0.00     0.210 C 
ATOM     15  C   LIG d   1      -1.648  92.716 119.864  0.00  0.00     0.109 C 
ATOM     16  O   LIG d   1      -2.553  90.488 119.743  0.00  0.00    -0.276 OA
ATOM     17  H   LIG d   1      -3.658  93.122 118.391  0.00  0.00     0.149 HD
ENDBRANCH   6  13
BRANCH   5  18
ATOM     18  N   LIG d   1      -3.336  89.988 116.501  0.00  0.00     0.381 N 
ATOM     19  H   LIG d   1      -3.238  89.415 117.315  0.00  0.00    -0.090 HD
ATOM     20  H   LIG d   1      -2.514  90.560 116.417  0.00  0.00    -0.090 HD
ATOM     21  H   LIG d   1      -3.436  89.416 115.693  0.00  0.00    -0.090 HD
ENDBRANCH   5  18
BRANCH   3  22
ATOM     22  C   LIG d   1      -7.981  90.535 115.471  0.00  0.00     0.382 C 
ATOM     23  O   LIG d   1      -8.423  91.476 114.768  0.00  0.00    -0.241 OA
ATOM     24  O   LIG d   1      -8.512  89.411 115.394  0.00  0.00    -0.241 OA
ENDBRANCH   3  22
TORSDOF 7
ENDMDL
MODEL 3
REMARK VINA RESULT:      -5.3     16.319     17.772
REMARK  7 active torsions:
REMARK  status: ('A' for Active; 'I' for Inactive)
REMARK    1  A    between atoms: C_2  and  C_3 
REMARK    2  A    between atoms: C_3  and  O_6 
REMARK    3  A    between atoms: C_3  and  C_4 
REMARK    4  A    between atoms: C_7  and  O_6 
REMARK    5  A    between atoms: C_9  and  C_10 
REMARK    6  A    between atoms: N_15  and  C_14 
REMARK    7  A    between atoms: N_20  and  C_19 
REMARK       I    between atoms: C_22  and  N_20 
ROOT
ATOM      1  C   LIG d   1      -5.571  74.455 117.593  0.00  0.00     0.161 C 
ATOM      2  C   LIG d   1      -4.375  74.175 116.911  0.00  0.00     0.016 C 
ATOM      3  C   LIG d   1      -3.126  74.734 117.270  0.00  0.00     0.038 C 
ATOM      4  C   LIG d   1      -2.962  75.497 118.435  0.00  0.00     0.028 C 
ATOM      5  C   LIG d   1      -4.234  76.218 118.871  0.00  0.00    -0.047 C 
ATOM      6  C   LIG d   1      -5.393  75.198 118.934  0.00  0.00     0.091 C 
ENDROOT
BRANCH   1   7
ATOM      7  O   LIG d   1      -6.317  73.238 117.790  0.00  0.00    -0.368 OA
BRANCH   7   8
ATOM      8  C   LIG d   1      -7.345  72.955 116.808  0.00  0.00     0.119 C 
BRANCH   8   9
ATOM      9  C   LIG d   1      -8.682  73.467 117.376  0.00  0.00     0.028 C 
ATOM     10  C   LIG d   1      -9.137  74.778 116.713  0.00  0.00     0.006 C 
ENDBRANCH   8   9
BRANCH   8  11
ATOM     11  C   LIG d   1      -7.535  71.446 116.620  0.00  0.00     0.028 C 
ATOM     12  C   LIG d   1      -9.005  71.013 116.734  0.00  0.00     0.006 C 
ENDBRANCH   8  11
ENDBRANCH   7   8
ENDBRANCH   1   7
BRANCH   6  13
ATOM     13  N   LIG d   1      -6.692  75.836 119.271  0.00  0.00    -0.311 N 
ATOM     14  C   LIG d   1      -7.169  75.917 120.512  0.00  0.00     0.210 C 
ATOM     15  C   LIG d   1      -8.536  76.597 120.636  0.00  0.00     0.109 C 
ATOM     16  O   LIG d   1      -6.576  75.519 121.525  0.00  0.00    -0.276 OA
ATOM     17  H   LIG d   1      -7.225  76.213 118.512  0.00  0.00     0.149 HD
ENDBRANCH   6  13
BRANCH   5  18
ATOM     18  N   LIG d   1      -3.958  76.862 120.169  0.00  0.00     0.381 N 
ATOM     19  H   LIG d   1      -4.503  77.697 120.256  0.00  0.00    -0.090 HD
ATOM     20  H   LIG d   1      -2.986  77.114 120.207  0.00  0.00    -0.090 HD
ATOM     21  H   LIG d   1      -4.176  76.236 120.913  0.00  0.00    -0.090 HD
ENDBRANCH   5  18
BRANCH   3  22
ATOM     22  C   LIG d   1      -2.032  74.563 116.435  0.00  0.00     0.382 C 
ATOM     23  O   LIG d   1      -2.060  75.014 115.265  0.00  0.00    -0.241 OA
ATOM     24  O   LIG d   1      -1.036  73.924 116.823  0.00  0.00    -0.241 OA
ENDBRANCH   3  22
TORSDOF 7
ENDMDL
MODEL 4
REMARK VINA RESULT:      -5.2      2.434      6.170
REMARK  7 active torsions:
REMARK  status: ('A' for Active; 'I' for Inactive)
REMARK    1  A    between atoms: C_2  and  C_3 
REMARK    2  A    between atoms: C_3  and  O_6 
REMARK    3  A    between atoms: C_3  and  C_4 
REMARK    4  A    between atoms: C_7  and  O_6 
REMARK    5  A    between atoms: C_9  and  C_10 
REMARK    6  A    between atoms: N_15  and  C_14 
REMARK    7  A    between atoms: N_20  and  C_19 
REMARK       I    between atoms: C_22  and  N_20 
ROOT
ATOM      1  C   LIG d   1      -5.343  91.736 119.031  0.00  0.00     0.161 C 
ATOM      2  C   LIG d   1      -4.213  91.705 119.865  0.00  0.00     0.016 C 
ATOM      3  C   LIG d   1      -3.005  91.058 119.515  0.00  0.00     0.038 C 
ATOM      4  C   LIG d   1      -2.794  90.524 118.235  0.00  0.00     0.028 C 
ATOM      5  C   LIG d   1      -4.080  90.089 117.541  0.00  0.00    -0.047 C 
ATOM      6  C   LIG d   1      -5.094  91.255 117.586  0.00  0.00     0.091 C 
ENDROOT
BRANCH   1   7
ATOM      7  O   LIG d   1      -5.910  93.061 119.028  0.00  0.00    -0.368 OA
BRANCH   7   8
ATOM      8  C   LIG d   1      -7.220  93.195 119.632  0.00  0.00     0.119 C 
BRANCH   8   9
ATOM      9  C   LIG d   1      -8.155  93.819 118.577  0.00  0.00     0.028 C 
ATOM     10  C   LIG d   1      -8.463  95.298 118.868  0.00  0.00     0.006 C 
ENDBRANCH   8   9
BRANCH   8  11
ATOM     11  C   LIG d   1      -7.198  94.191 120.795  0.00  0.00     0.028 C 
ATOM     12  C   LIG d   1      -7.488  93.529 122.151  0.00  0.00     0.006 C 
ENDBRANCH   8  11
ENDBRANCH   7   8
ENDBRANCH   1   7
BRANCH   6  13
ATOM     13  N   LIG d   1      -6.410  90.885 117.003  0.00  0.00    -0.311 N 
ATOM     14  C   LIG d   1      -6.722  91.072 115.722  0.00  0.00     0.210 C 
ATOM     15  C   LIG d   1      -8.139  90.640 115.332  0.00  0.00     0.109 C 
ATOM     16  O   LIG d   1      -5.949  91.526 114.864  0.00  0.00    -0.276 OA
ATOM     17  H   LIG d   1      -7.086  90.482 117.621  0.00  0.00     0.149 HD
ENDBRANCH   6  13
BRANCH   5  18
ATOM     18  N   LIG d   1      -3.729  89.682 116.167  0.00  0.00     0.381 N 
ATOM     19  H   LIG d   1      -3.865  88.696 116.061  0.00  0.00    -0.090 HD
ATOM     20  H   LIG d   1      -2.759  89.886 116.005  0.00  0.00    -0.090 HD
ATOM     21  H   LIG d   1      -4.294  90.175 115.510  0.00  0.00    -0.090 HD
ENDBRANCH   5  18
BRANCH   3  22
ATOM     22  C   LIG d   1      -2.007  90.905 120.465  0.00  0.00     0.382 C 
ATOM     23  O   LIG d   1      -0.808  90.811 120.106  0.00  0.00    -0.241 OA
ATOM     24  O   LIG d   1      -2.294  90.815 121.674  0.00  0.00    -0.241 OA
ENDBRANCH   3  22
TORSDOF 7
ENDMDL
MODEL 5
REMARK VINA RESULT:      -5.2     15.552     16.946
REMARK  7 active torsions:
REMARK  status: ('A' for Active; 'I' for Inactive)
REMARK    1  A    between atoms: C_2  and  C_3 
REMARK    2  A    between atoms: C_3  and  O_6 
REMARK    3  A    between atoms: C_3  and  C_4 
REMARK    4  A    between atoms: C_7  and  O_6 
REMARK    5  A    between atoms: C_9  and  C_10 
REMARK    6  A    between atoms: N_15  and  C_14 
REMARK    7  A    between atoms: N_20  and  C_19 
REMARK       I    between atoms: C_22  and  N_20 
ROOT
ATOM      1  C   LIG d   1      -6.770  75.062 119.038  0.00  0.00     0.161 C 
ATOM      2  C   LIG d   1      -8.087  75.481 118.785  0.00  0.00     0.016 C 
ATOM      3  C   LIG d   1      -8.412  76.763 118.285  0.00  0.00     0.038 C 
ATOM      4  C   LIG d   1      -7.426  77.666 117.860  0.00  0.00     0.028 C 
ATOM      5  C   LIG d   1      -6.088  77.479 118.568  0.00  0.00    -0.047 C 
ATOM      6  C   LIG d   1      -5.675  75.992 118.476  0.00  0.00     0.091 C 
ENDROOT
BRANCH   1   7
ATOM      7  O   LIG d   1      -6.584  73.718 118.552  0.00  0.00    -0.368 OA
BRANCH   7   8
ATOM      8  C   LIG d   1      -7.366  73.345 117.392  0.00  0.00     0.119 C 
BRANCH   8   9
ATOM      9  C   LIG d   1      -8.189  72.098 117.769  0.00  0.00     0.028 C 
ATOM     10  C   LIG d   1      -8.870  71.453 116.550  0.00  0.00     0.006 C 
ENDBRANCH   8   9
BRANCH   8  11
ATOM     11  C   LIG d   1      -6.468  72.904 116.232  0.00  0.00     0.028 C 
ATOM     12  C   LIG d   1      -5.873  74.089 115.456  0.00  0.00     0.006 C 
ENDBRANCH   8  11
ENDBRANCH   7   8
ENDBRANCH   1   7
BRANCH   6  13
ATOM     13  N   LIG d   1      -4.418  75.707 119.215  0.00  0.00    -0.311 N 
ATOM     14  C   LIG d   1      -3.262  75.428 118.616  0.00  0.00     0.210 C 
ATOM     15  C   LIG d   1      -2.094  75.144 119.565  0.00  0.00     0.109 C 
ATOM     16  O   LIG d   1      -3.086  75.420 117.388  0.00  0.00    -0.276 OA
ATOM     17  H   LIG d   1      -4.464  75.723 120.216  0.00  0.00     0.149 HD
ENDBRANCH   6  13
BRANCH   5  18
ATOM     18  N   LIG d   1      -5.117  78.389 117.932  0.00  0.00     0.381 N 
ATOM     19  H   LIG d   1      -4.528  77.875 117.309  0.00  0.00    -0.090 HD
ATOM     20  H   LIG d   1      -4.540  78.799 118.646  0.00  0.00    -0.090 HD
ATOM     21  H   LIG d   1      -5.597  79.105 117.432  0.00  0.00    -0.090 HD
ENDBRANCH   5  18
BRANCH   3  22
ATOM     22  C   LIG d   1      -9.738  77.169 118.245  0.00  0.00     0.382 C 
ATOM     23  O   LIG d   1     -10.649  76.319 118.102  0.00  0.00    -0.241 OA
ATOM     24  O   LIG d   1     -10.031  78.378 118.305  0.00  0.00    -0.241 OA
ENDBRANCH   3  22
TORSDOF 7
ENDMDL
MODEL 6
REMARK VINA RESULT:      -5.2     16.125     17.188
REMARK  7 active torsions:
REMARK  status: ('A' for Active; 'I' for Inactive)
REMARK    1  A    between atoms: C_2  and  C_3 
REMARK    2  A    between atoms: C_3  and  O_6 
REMARK    3  A    between atoms: C_3  and  C_4 
REMARK    4  A    between atoms: C_7  and  O_6 
REMARK    5  A    between atoms: C_9  and  C_10 
REMARK    6  A    between atoms: N_15  and  C_14 
REMARK    7  A    between atoms: N_20  and  C_19 
REMARK       I    between atoms: C_22  and  N_20 
ROOT
ATOM      1  C   LIG d   1      -6.360  74.549 118.525  0.00  0.00     0.161 C 
ATOM      2  C   LIG d   1      -6.563  73.306 117.902  0.00  0.00     0.016 C 
ATOM      3  C   LIG d   1      -7.775  72.940 117.273  0.00  0.00     0.038 C 
ATOM      4  C   LIG d   1      -8.822  73.856 117.090  0.00  0.00     0.028 C 
ATOM      5  C   LIG d   1      -8.853  74.958 118.143  0.00  0.00    -0.047 C 
ATOM      6  C   LIG d   1      -7.451  75.602 118.238  0.00  0.00     0.091 C 
ENDROOT
BRANCH   1   7
ATOM      7  O   LIG d   1      -5.061  75.065 118.172  0.00  0.00    -0.368 OA
BRANCH   7   8
ATOM      8  C   LIG d   1      -4.384  74.396 117.081  0.00  0.00     0.119 C 
BRANCH   8   9
ATOM      9  C   LIG d   1      -2.898  74.266 117.468  0.00  0.00     0.028 C 
ATOM     10  C   LIG d   1      -1.958  74.805 116.376  0.00  0.00     0.006 C 
ENDBRANCH   8   9
BRANCH   8  11
ATOM     11  C   LIG d   1      -4.399  75.249 115.809  0.00  0.00     0.028 C 
ATOM     12  C   LIG d   1      -5.319  74.677 114.719  0.00  0.00     0.006 C 
ENDBRANCH   8  11
ENDBRANCH   7   8
ENDBRANCH   1   7
BRANCH   6  13
ATOM     13  N   LIG d   1      -7.372  76.634 119.305  0.00  0.00    -0.311 N 
ATOM     14  C   LIG d   1      -7.187  77.930 119.059  0.00  0.00     0.210 C 
ATOM     15  C   LIG d   1      -7.115  78.820 120.304  0.00  0.00     0.109 C 
ATOM     16  O   LIG d   1      -7.107  78.431 117.928  0.00  0.00    -0.276 OA
ATOM     17  H   LIG d   1      -7.458  76.319 120.251  0.00  0.00     0.149 HD
ENDBRANCH   6  13
BRANCH   5  18
ATOM     18  N   LIG d   1      -9.905  75.917 117.754  0.00  0.00     0.381 N 
ATOM     19  H   LIG d   1      -9.906  76.033 116.760  0.00  0.00    -0.090 HD
ATOM     20  H   LIG d   1      -9.705  76.807 118.176  0.00  0.00    -0.090 HD
ATOM     21  H   LIG d   1     -10.795  75.589 118.058  0.00  0.00    -0.090 HD
ENDBRANCH   5  18
BRANCH   3  22
ATOM     22  C   LIG d   1      -7.964  71.632 116.854  0.00  0.00     0.382 C 
ATOM     23  O   LIG d   1      -6.991  70.841 116.809  0.00  0.00    -0.241 OA
ATOM     24  O   LIG d   1      -9.086  71.245 116.477  0.00  0.00    -0.241 OA
ENDBRANCH   3  22
TORSDOF 7
ENDMDL
MODEL 7
REMARK VINA RESULT:      -4.9     15.522     17.095
REMARK  7 active torsions:
REMARK  status: ('A' for Active; 'I' for Inactive)
REMARK    1  A    between atoms: C_2  and  C_3 
REMARK    2  A    between atoms: C_3  and  O_6 
REMARK    3  A    between atoms: C_3  and  C_4 
REMARK    4  A    between atoms: C_7  and  O_6 
REMARK    5  A    between atoms: C_9  and  C_10 
REMARK    6  A    between atoms: N_15  and  C_14 
REMARK    7  A    between atoms: N_20  and  C_19 
REMARK       I    between atoms: C_22  and  N_20 
ROOT
ATOM      1  C   LIG d   1      -5.496  75.424 116.252  0.00  0.00     0.161 C 
ATOM      2  C   LIG d   1      -4.258  74.836 115.943  0.00  0.00     0.016 C 
ATOM      3  C   LIG d   1      -3.065  75.120 116.646  0.00  0.00     0.038 C 
ATOM      4  C   LIG d   1      -3.058  75.902 117.810  0.00  0.00     0.028 C 
ATOM      5  C   LIG d   1      -4.193  76.920 117.862  0.00  0.00    -0.047 C 
ATOM      6  C   LIG d   1      -5.530  76.195 117.588  0.00  0.00     0.091 C 
ENDROOT
BRANCH   1   7
ATOM      7  O   LIG d   1      -6.533  74.424 116.224  0.00  0.00    -0.368 OA
BRANCH   7   8
ATOM      8  C   LIG d   1      -6.860  73.809 117.495  0.00  0.00     0.119 C 
BRANCH   8   9
ATOM      9  C   LIG d   1      -6.431  72.330 117.417  0.00  0.00     0.028 C 
ATOM     10  C   LIG d   1      -6.736  71.702 116.047  0.00  0.00     0.006 C 
ENDBRANCH   8   9
BRANCH   8  11
ATOM     11  C   LIG d   1      -8.373  73.781 117.728  0.00  0.00     0.028 C 
ATOM     12  C   LIG d   1      -9.151  74.603 116.688  0.00  0.00     0.006 C 
ENDBRANCH   8  11
ENDBRANCH   7   8
ENDBRANCH   1   7
BRANCH   6  13
ATOM     13  N   LIG d   1      -6.683  77.132 117.538  0.00  0.00    -0.311 N 
ATOM     14  C   LIG d   1      -7.484  77.365 118.575  0.00  0.00     0.210 C 
ATOM     15  C   LIG d   1      -8.625  78.351 118.303  0.00  0.00     0.109 C 
ATOM     16  O   LIG d   1      -7.340  76.873 119.705  0.00  0.00    -0.276 OA
ATOM     17  H   LIG d   1      -6.854  77.598 116.668  0.00  0.00     0.149 HD
ENDBRANCH   6  13
BRANCH   5  18
ATOM     18  N   LIG d   1      -4.148  77.570 119.186  0.00  0.00     0.381 N 
ATOM     19  H   LIG d   1      -3.816  78.509 119.091  0.00  0.00    -0.090 HD
ATOM     20  H   LIG d   1      -3.507  77.067 119.774  0.00  0.00    -0.090 HD
ATOM     21  H   LIG d   1      -5.056  77.571 119.596  0.00  0.00    -0.090 HD
ENDBRANCH   5  18
BRANCH   3  22
ATOM     22  C   LIG d   1      -1.854  74.650 116.162  0.00  0.00     0.382 C 
ATOM     23  O   LIG d   1      -1.498  74.925 114.991  0.00  0.00    -0.241 OA
ATOM     24  O   LIG d   1      -1.133  73.918 116.866  0.00  0.00    -0.241 OA
ENDBRANCH   3  22
TORSDOF 7
ENDMDL
MODEL 8
REMARK VINA RESULT:      -4.8      2.268      4.211
REMARK  7 active torsions:
REMARK  status: ('A' for Active; 'I' for Inactive)
REMARK    1  A    between atoms: C_2  and  C_3 
REMARK    2  A    between atoms: C_3  and  O_6 
REMARK    3  A    between atoms: C_3  and  C_4 
REMARK    4  A    between atoms: C_7  and  O_6 
REMARK    5  A    between atoms: C_9  and  C_10 
REMARK    6  A    between atoms: N_15  and  C_14 
REMARK    7  A    between atoms: N_20  and  C_19 
REMARK       I    between atoms: C_22  and  N_20 
ROOT
ATOM      1  C   LIG d   1      -4.528  92.318 119.324  0.00  0.00     0.161 C 
ATOM      2  C   LIG d   1      -5.801  92.065 118.787  0.00  0.00     0.016 C 
ATOM      3  C   LIG d   1      -6.020  91.240 117.660  0.00  0.00     0.038 C 
ATOM      4  C   LIG d   1      -4.989  90.487 117.080  0.00  0.00     0.028 C 
ATOM      5  C   LIG d   1      -3.607  91.103 117.273  0.00  0.00    -0.047 C 
ATOM      6  C   LIG d   1      -3.403  91.417 118.773  0.00  0.00     0.091 C 
ENDROOT
BRANCH   1   7
ATOM      7  O   LIG d   1      -4.578  92.234 120.762  0.00  0.00    -0.368 OA
BRANCH   7   8
ATOM      8  C   LIG d   1      -4.384  93.477 121.480  0.00  0.00     0.119 C 
BRANCH   8   9
ATOM      9  C   LIG d   1      -3.143  93.305 122.377  0.00  0.00     0.028 C 
ATOM     10  C   LIG d   1      -3.024  91.882 122.948  0.00  0.00     0.006 C 
ENDBRANCH   8   9
BRANCH   8  11
ATOM     11  C   LIG d   1      -5.544  93.752 122.442  0.00  0.00     0.028 C 
ATOM     12  C   LIG d   1      -6.613  92.647 122.417  0.00  0.00     0.006 C 
ENDBRANCH   8  11
ENDBRANCH   7   8
ENDBRANCH   1   7
BRANCH   6  13
ATOM     13  N   LIG d   1      -2.109  92.099 119.038  0.00  0.00    -0.311 N 
ATOM     14  C   LIG d   1      -1.142  91.571 119.785  0.00  0.00     0.210 C 
ATOM     15  C   LIG d   1       0.103  92.450 119.948  0.00  0.00     0.109 C 
ATOM     16  O   LIG d   1      -1.182  90.445 120.302  0.00  0.00    -0.276 OA
ATOM     17  H   LIG d   1      -1.979  93.005 118.631  0.00  0.00     0.149 HD
ENDBRANCH   6  13
BRANCH   5  18
ATOM     18  N   LIG d   1      -2.615  90.149 116.742  0.00  0.00     0.381 N 
ATOM     19  H   LIG d   1      -2.697  89.274 117.220  0.00  0.00    -0.090 HD
ATOM     20  H   LIG d   1      -1.693  90.513 116.906  0.00  0.00    -0.090 HD
ATOM     21  H   LIG d   1      -2.759  90.017 115.765  0.00  0.00    -0.090 HD
ENDBRANCH   5  18
BRANCH   3  22
ATOM     22  C   LIG d   1      -7.277  91.195 117.076  0.00  0.00     0.382 C 
ATOM     23  O   LIG d   1      -7.912  92.257 116.870  0.00  0.00    -0.241 OA
ATOM     24  O   LIG d   1      -7.803  90.102 116.793  0.00  0.00    -0.241 OA
ENDBRANCH   3  22
TORSDOF 7
ENDMDL
MODEL 9
REMARK VINA RESULT:      -4.8     12.185     13.504
REMARK  7 active torsions:
REMARK  status: ('A' for Active; 'I' for Inactive)
REMARK    1  A    between atoms: C_2  and  C_3 
REMARK    2  A    between atoms: C_3  and  O_6 
REMARK    3  A    between atoms: C_3  and  C_4 
REMARK    4  A    between atoms: C_7  and  O_6 
REMARK    5  A    between atoms: C_9  and  C_10 
REMARK    6  A    between atoms: N_15  and  C_14 
REMARK    7  A    between atoms: N_20  and  C_19 
REMARK       I    between atoms: C_22  and  N_20 
ROOT
ATOM      1  C   LIG d   1      -6.035  78.695 117.335  0.00  0.00     0.161 C 
ATOM      2  C   LIG d   1      -7.292  78.234 117.760  0.00  0.00     0.016 C 
ATOM      3  C   LIG d   1      -8.340  79.094 118.163  0.00  0.00     0.038 C 
ATOM      4  C   LIG d   1      -8.252  80.487 118.024  0.00  0.00     0.028 C 
ATOM      5  C   LIG d   1      -6.821  81.011 118.075  0.00  0.00    -0.047 C 
ATOM      6  C   LIG d   1      -5.958  80.213 117.071  0.00  0.00     0.091 C 
ENDROOT
BRANCH   1   7
ATOM      7  O   LIG d   1      -5.615  77.961 116.168  0.00  0.00    -0.368 OA
BRANCH   7   8
ATOM      8  C   LIG d   1      -5.762  76.521 116.232  0.00  0.00     0.119 C 
BRANCH   8   9
ATOM      9  C   LIG d   1      -4.380  75.929 116.569  0.00  0.00     0.028 C 
ATOM     10  C   LIG d   1      -4.305  75.395 118.009  0.00  0.00     0.006 C 
ENDBRANCH   8   9
BRANCH   8  11
ATOM     11  C   LIG d   1      -6.132  75.937 114.866  0.00  0.00     0.028 C 
ATOM     12  C   LIG d   1      -5.386  74.630 114.555  0.00  0.00     0.006 C 
ENDBRANCH   8  11
ENDBRANCH   7   8
ENDBRANCH   1   7
BRANCH   6  13
ATOM     13  N   LIG d   1      -4.525  80.606 117.118  0.00  0.00    -0.311 N 
ATOM     14  C   LIG d   1      -4.000  81.556 116.346  0.00  0.00     0.210 C 
ATOM     15  C   LIG d   1      -2.498  81.789 116.540  0.00  0.00     0.109 C 
ATOM     16  O   LIG d   1      -4.641  82.250 115.543  0.00  0.00    -0.276 OA
ATOM     17  H   LIG d   1      -3.939  80.115 117.764  0.00  0.00     0.149 HD
ENDBRANCH   6  13
BRANCH   5  18
ATOM     18  N   LIG d   1      -6.864  82.456 117.780  0.00  0.00     0.381 N 
ATOM     19  H   LIG d   1      -7.209  82.601 116.852  0.00  0.00    -0.090 HD
ATOM     20  H   LIG d   1      -5.932  82.826 117.832  0.00  0.00    -0.090 HD
ATOM     21  H   LIG d   1      -7.452  82.920 118.437  0.00  0.00    -0.090 HD
ENDBRANCH   5  18
BRANCH   3  22
ATOM     22  C   LIG d   1      -9.478  78.561 118.750  0.00  0.00     0.382 C 
ATOM     23  O   LIG d   1      -9.854  78.972 119.874  0.00  0.00    -0.241 OA
ATOM     24  O   LIG d   1     -10.108  77.645 118.189  0.00  0.00    -0.241 OA
ENDBRANCH   3  22
TORSDOF 7
ENDMDL
