MODEL 1
REMARK VINA RESULT:      -5.9      0.000      0.000
REMARK  7 active torsions:
REMARK  status: ('A' for Active; 'I' for Inactive)
REMARK    1  A    between atoms: C_2  and  C_3 
REMARK    2  A    between atoms: C_3  and  O_6 
REMARK    3  A    between atoms: C_3  and  C_4 
REMARK    4  A    between atoms: C_7  and  O_6 
REMARK    5  A    between atoms: C_9  and  C_10 
REMARK    6  A    between atoms: N_15  and  C_14 
REMARK    7  A    between atoms: N_20  and  C_19 
REMARK       I    between atoms: C_22  and  N_20 
ROOT
ATOM      1  C   LIG d   1      -8.186  73.964 117.395  0.00  0.00     0.161 C 
ATOM      2  C   LIG d   1      -7.887  72.670 116.938  0.00  0.00     0.016 C 
ATOM      3  C   LIG d   1      -8.797  71.590 117.012  0.00  0.00     0.038 C 
ATOM      4  C   LIG d   1     -10.129  71.768 117.413  0.00  0.00     0.028 C 
ATOM      5  C   LIG d   1     -10.324  72.949 118.358  0.00  0.00    -0.047 C 
ATOM      6  C   LIG d   1      -9.672  74.204 117.733  0.00  0.00     0.091 C 
ENDROOT
BRANCH   1   7
ATOM      7  O   LIG d   1      -7.726  74.939 116.438  0.00  0.00    -0.368 OA
BRANCH   7   8
ATOM      8  C   LIG d   1      -6.489  74.624 115.753  0.00  0.00     0.119 C 
BRANCH   8   9
ATOM      9  C   LIG d   1      -5.336  75.233 116.575  0.00  0.00     0.028 C 
ATOM     10  C   LIG d   1      -4.422  74.159 117.189  0.00  0.00     0.006 C 
ENDBRANCH   8   9
BRANCH   8  11
ATOM     11  C   LIG d   1      -6.419  75.312 114.386  0.00  0.00     0.028 C 
ATOM     12  C   LIG d   1      -7.760  75.931 113.961  0.00  0.00     0.006 C 
ENDBRANCH   8  11
ENDBRANCH   7   8
ENDBRANCH   1   7
BRANCH   6  13
ATOM     13  N   LIG d   1      -9.744  75.386 118.631  0.00  0.00    -0.311 N 
ATOM     14  C   LIG d   1     -10.761  76.245 118.632  0.00  0.00     0.210 C 
ATOM     15  C   LIG d   1     -10.627  77.406 119.623  0.00  0.00     0.109 C 
ATOM     16  O   LIG d   1     -11.778  76.139 117.930  0.00  0.00    -0.276 OA
ATOM     17  H   LIG d   1      -8.975  75.532 119.257  0.00  0.00     0.149 HD
ENDBRANCH   6  13
BRANCH   5  18
ATOM     18  N   LIG d   1     -11.773  73.104 118.585  0.00  0.00     0.381 N 
ATOM     19  H   LIG d   1     -12.216  72.207 118.569  0.00  0.00    -0.090 HD
ATOM     20  H   LIG d   1     -12.161  73.660 117.843  0.00  0.00    -0.090 HD
ATOM     21  H   LIG d   1     -11.936  73.547 119.462  0.00  0.00    -0.090 HD
ENDBRANCH   5  18
BRANCH   3  22
ATOM     22  C   LIG d   1      -8.363  70.305 116.720  0.00  0.00     0.382 C 
ATOM     23  O   LIG d   1      -9.050  69.316 117.073  0.00  0.00    -0.241 OA
ATOM     24  O   LIG d   1      -7.273  70.122 116.147  0.00  0.00    -0.241 OA
ENDBRANCH   3  22
TORSDOF 7
ENDMDL
MODEL 2
REMARK VINA RESULT:      -5.8     13.853     16.466
REMARK  7 active torsions:
REMARK  status: ('A' for Active; 'I' for Inactive)
REMARK    1  A    between atoms: C_2  and  C_3 
REMARK    2  A    between atoms: C_3  and  O_6 
REMARK    3  A    between atoms: C_3  and  C_4 
REMARK    4  A    between atoms: C_7  and  O_6 
REMARK    5  A    between atoms: C_9  and  C_10 
REMARK    6  A    between atoms: N_15  and  C_14 
REMARK    7  A    between atoms: N_20  and  C_19 
REMARK       I    between atoms: C_22  and  N_20 
ROOT
ATOM      1  C   LIG d   1       2.763  84.052 111.387  0.00  0.00     0.161 C 
ATOM      2  C   LIG d   1       3.052  85.362 111.804  0.00  0.00     0.016 C 
ATOM      3  C   LIG d   1       2.142  86.437 111.678  0.00  0.00     0.038 C 
ATOM      4  C   LIG d   1       0.817  86.242 111.260  0.00  0.00     0.028 C 
ATOM      5  C   LIG d   1       0.640  85.029 110.354  0.00  0.00    -0.047 C 
ATOM      6  C   LIG d   1       1.284  83.797 111.032  0.00  0.00     0.091 C 
ENDROOT
BRANCH   1   7
ATOM      7  O   LIG d   1       3.208  83.112 112.385  0.00  0.00    -0.368 OA
BRANCH   7   8
ATOM      8  C   LIG d   1       2.235  82.746 113.394  0.00  0.00     0.119 C 
BRANCH   8   9
ATOM      9  C   LIG d   1       2.788  83.202 114.758  0.00  0.00     0.028 C 
ATOM     10  C   LIG d   1       2.123  84.495 115.260  0.00  0.00     0.006 C 
ENDBRANCH   8   9
BRANCH   8  11
ATOM     11  C   LIG d   1       2.089  81.225 113.503  0.00  0.00     0.028 C 
ATOM     12  C   LIG d   1       2.806  80.645 114.732  0.00  0.00     0.006 C 
ENDBRANCH   8  11
ENDBRANCH   7   8
ENDBRANCH   1   7
BRANCH   6  13
ATOM     13  N   LIG d   1       1.229  82.585 110.174  0.00  0.00    -0.311 N 
ATOM     14  C   LIG d   1       0.274  81.661 110.271  0.00  0.00     0.210 C 
ATOM     15  C   LIG d   1       0.417  80.480 109.305  0.00  0.00     0.109 C 
ATOM     16  O   LIG d   1      -0.695  81.724 111.042  0.00  0.00    -0.276 OA
ATOM     17  H   LIG d   1       1.960  82.470 109.500  0.00  0.00     0.149 HD
ENDBRANCH   6  13
BRANCH   5  18
ATOM     18  N   LIG d   1      -0.805  84.864 110.107  0.00  0.00     0.381 N 
ATOM     19  H   LIG d   1      -1.038  85.229 109.205  0.00  0.00    -0.090 HD
ATOM     20  H   LIG d   1      -1.314  85.384 110.799  0.00  0.00    -0.090 HD
ATOM     21  H   LIG d   1      -1.051  83.900 110.157  0.00  0.00    -0.090 HD
ENDBRANCH   5  18
BRANCH   3  22
ATOM     22  C   LIG d   1       2.569  87.732 111.933  0.00  0.00     0.382 C 
ATOM     23  O   LIG d   1       1.757  88.685 111.859  0.00  0.00    -0.241 OA
ATOM     24  O   LIG d   1       3.765  87.963 112.192  0.00  0.00    -0.241 OA
ENDBRANCH   3  22
TORSDOF 7
ENDMDL
MODEL 3
REMARK VINA RESULT:      -5.8     14.787     16.587
REMARK  7 active torsions:
REMARK  status: ('A' for Active; 'I' for Inactive)
REMARK    1  A    between atoms: C_2  and  C_3 
REMARK    2  A    between atoms: C_3  and  O_6 
REMARK    3  A    between atoms: C_3  and  C_4 
REMARK    4  A    between atoms: C_7  and  O_6 
REMARK    5  A    between atoms: C_9  and  C_10 
REMARK    6  A    between atoms: N_15  and  C_14 
REMARK    7  A    between atoms: N_20  and  C_19 
REMARK       I    between atoms: C_22  and  N_20 
ROOT
ATOM      1  C   LIG d   1       2.487  84.177 110.824  0.00  0.00     0.161 C 
ATOM      2  C   LIG d   1       1.681  85.290 111.115  0.00  0.00     0.016 C 
ATOM      3  C   LIG d   1       0.269  85.268 111.043  0.00  0.00     0.038 C 
ATOM      4  C   LIG d   1      -0.444  84.080 110.821  0.00  0.00     0.028 C 
ATOM      5  C   LIG d   1       0.341  83.042 110.026  0.00  0.00    -0.047 C 
ATOM      6  C   LIG d   1       1.724  82.843 110.689  0.00  0.00     0.091 C 
ENDROOT
BRANCH   1   7
ATOM      7  O   LIG d   1       3.531  84.059 111.812  0.00  0.00    -0.368 OA
BRANCH   7   8
ATOM      8  C   LIG d   1       3.345  84.822 113.029  0.00  0.00     0.119 C 
BRANCH   8   9
ATOM      9  C   LIG d   1       4.647  85.605 113.287  0.00  0.00     0.028 C 
ATOM     10  C   LIG d   1       4.553  87.068 112.823  0.00  0.00     0.006 C 
ENDBRANCH   8   9
BRANCH   8  11
ATOM     11  C   LIG d   1       3.178  83.902 114.243  0.00  0.00     0.028 C 
ATOM     12  C   LIG d   1       2.111  84.405 115.228  0.00  0.00     0.006 C 
ENDBRANCH   8  11
ENDBRANCH   7   8
ENDBRANCH   1   7
BRANCH   6  13
ATOM     13  N   LIG d   1       2.588  81.906 109.925  0.00  0.00    -0.311 N 
ATOM     14  C   LIG d   1       3.270  80.911 110.491  0.00  0.00     0.210 C 
ATOM     15  C   LIG d   1       4.116  80.076 109.525  0.00  0.00     0.109 C 
ATOM     16  O   LIG d   1       3.229  80.622 111.696  0.00  0.00    -0.276 OA
ATOM     17  H   LIG d   1       2.654  82.049 108.936  0.00  0.00     0.149 HD
ENDBRANCH   6  13
BRANCH   5  18
ATOM     18  N   LIG d   1      -0.465  81.808 109.987  0.00  0.00     0.381 N 
ATOM     19  H   LIG d   1      -0.785  81.583 110.908  0.00  0.00    -0.090 HD
ATOM     20  H   LIG d   1       0.113  81.053 109.661  0.00  0.00    -0.090 HD
ATOM     21  H   LIG d   1      -1.243  81.928 109.377  0.00  0.00    -0.090 HD
ENDBRANCH   5  18
BRANCH   3  22
ATOM     22  C   LIG d   1      -0.444  86.452 111.156  0.00  0.00     0.382 C 
ATOM     23  O   LIG d   1      -1.696  86.439 111.087  0.00  0.00    -0.241 OA
ATOM     24  O   LIG d   1       0.152  87.539 111.280  0.00  0.00    -0.241 OA
ENDBRANCH   3  22
TORSDOF 7
ENDMDL
MODEL 4
REMARK VINA RESULT:      -5.8     16.008     18.346
REMARK  7 active torsions:
REMARK  status: ('A' for Active; 'I' for Inactive)
REMARK    1  A    between atoms: C_2  and  C_3 
REMARK    2  A    between atoms: C_3  and  O_6 
REMARK    3  A    between atoms: C_3  and  C_4 
REMARK    4  A    between atoms: C_7  and  O_6 
REMARK    5  A    between atoms: C_9  and  C_10 
REMARK    6  A    between atoms: N_15  and  C_14 
REMARK    7  A    between atoms: N_20  and  C_19 
REMARK       I    between atoms: C_22  and  N_20 
ROOT
ATOM      1  C   LIG d   1       4.244  85.525 112.702  0.00  0.00     0.161 C 
ATOM      2  C   LIG d   1       4.370  86.766 113.349  0.00  0.00     0.016 C 
ATOM      3  C   LIG d   1       3.583  87.895 113.027  0.00  0.00     0.038 C 
ATOM      4  C   LIG d   1       2.504  87.816 112.133  0.00  0.00     0.028 C 
ATOM      5  C   LIG d   1       2.664  86.718 111.087  0.00  0.00    -0.047 C 
ATOM      6  C   LIG d   1       2.999  85.389 111.802  0.00  0.00     0.091 C 
ENDROOT
BRANCH   1   7
ATOM      7  O   LIG d   1       4.279  84.462 113.674  0.00  0.00    -0.368 OA
BRANCH   7   8
ATOM      8  C   LIG d   1       4.032  84.847 115.049  0.00  0.00     0.119 C 
BRANCH   8   9
ATOM      9  C   LIG d   1       4.881  83.925 115.947  0.00  0.00     0.028 C 
ATOM     10  C   LIG d   1       5.898  84.707 116.795  0.00  0.00     0.006 C 
ENDBRANCH   8   9
BRANCH   8  11
ATOM     11  C   LIG d   1       2.579  84.578 115.451  0.00  0.00     0.028 C 
ATOM     12  C   LIG d   1       1.817  85.859 115.825  0.00  0.00     0.006 C 
ENDBRANCH   8  11
ENDBRANCH   7   8
ENDBRANCH   1   7
BRANCH   6  13
ATOM     13  N   LIG d   1       3.254  84.280 110.846  0.00  0.00    -0.311 N 
ATOM     14  C   LIG d   1       2.313  83.426 110.446  0.00  0.00     0.210 C 
ATOM     15  C   LIG d   1       2.793  82.345 109.472  0.00  0.00     0.109 C 
ATOM     16  O   LIG d   1       1.120  83.481 110.779  0.00  0.00    -0.276 OA
ATOM     17  H   LIG d   1       4.188  84.181 110.501  0.00  0.00     0.149 HD
ENDBRANCH   6  13
BRANCH   5  18
ATOM     18  N   LIG d   1       1.411  86.658 110.310  0.00  0.00     0.381 N 
ATOM     19  H   LIG d   1       0.869  87.482 110.477  0.00  0.00    -0.090 HD
ATOM     20  H   LIG d   1       0.878  85.863 110.615  0.00  0.00    -0.090 HD
ATOM     21  H   LIG d   1       1.616  86.576 109.339  0.00  0.00    -0.090 HD
ENDBRANCH   5  18
BRANCH   3  22
ATOM     22  C   LIG d   1       3.897  89.130 113.573  0.00  0.00     0.382 C 
ATOM     23  O   LIG d   1       3.905  89.282 114.819  0.00  0.00    -0.241 OA
ATOM     24  O   LIG d   1       4.129  90.107 112.835  0.00  0.00    -0.241 OA
ENDBRANCH   3  22
TORSDOF 7
ENDMDL
MODEL 5
REMARK VINA RESULT:      -5.5     14.297     17.157
REMARK  7 active torsions:
REMARK  status: ('A' for Active; 'I' for Inactive)
REMARK    1  A    between atoms: C_2  and  C_3 
REMARK    2  A    between atoms: C_3  and  O_6 
REMARK    3  A    between atoms: C_3  and  C_4 
REMARK    4  A    between atoms: C_7  and  O_6 
REMARK    5  A    between atoms: C_9  and  C_10 
REMARK    6  A    between atoms: N_15  and  C_14 
REMARK    7  A    between atoms: N_20  and  C_19 
REMARK       I    between atoms: C_22  and  N_20 
ROOT
ATOM      1  C   LIG d   1       1.669  84.728 113.214  0.00  0.00     0.161 C 
ATOM      2  C   LIG d   1       1.779  85.989 112.603  0.00  0.00     0.016 C 
ATOM      3  C   LIG d   1       2.744  86.953 112.975  0.00  0.00     0.038 C 
ATOM      4  C   LIG d   1       3.768  86.662 113.889  0.00  0.00     0.028 C 
ATOM      5  C   LIG d   1       3.392  85.581 114.897  0.00  0.00    -0.047 C 
ATOM      6  C   LIG d   1       2.848  84.351 114.135  0.00  0.00     0.091 C 
ENDROOT
BRANCH   1   7
ATOM      7  O   LIG d   1       1.474  83.714 112.209  0.00  0.00    -0.368 OA
BRANCH   7   8
ATOM      8  C   LIG d   1       1.430  84.176 110.836  0.00  0.00     0.119 C 
BRANCH   8   9
ATOM      9  C   LIG d   1       0.031  83.845 110.281  0.00  0.00     0.028 C 
ATOM     10  C   LIG d   1      -0.809  85.107 110.017  0.00  0.00     0.006 C 
ENDBRANCH   8   9
BRANCH   8  11
ATOM     11  C   LIG d   1       2.410  83.397 109.954  0.00  0.00     0.028 C 
ATOM     12  C   LIG d   1       3.858  83.893 110.092  0.00  0.00     0.006 C 
ENDBRANCH   8  11
ENDBRANCH   7   8
ENDBRANCH   1   7
BRANCH   6  13
ATOM     13  N   LIG d   1       2.378  83.279 115.051  0.00  0.00    -0.311 N 
ATOM     14  C   LIG d   1       3.179  82.343 115.556  0.00  0.00     0.210 C 
ATOM     15  C   LIG d   1       2.488  81.320 116.463  0.00  0.00     0.109 C 
ATOM     16  O   LIG d   1       4.403  82.282 115.365  0.00  0.00    -0.276 OA
ATOM     17  H   LIG d   1       1.404  83.273 115.283  0.00  0.00     0.149 HD
ENDBRANCH   6  13
BRANCH   5  18
ATOM     18  N   LIG d   1       4.594  85.280 115.697  0.00  0.00     0.381 N 
ATOM     19  H   LIG d   1       4.604  85.849 116.520  0.00  0.00    -0.090 HD
ATOM     20  H   LIG d   1       5.410  85.499 115.153  0.00  0.00    -0.090 HD
ATOM     21  H   LIG d   1       4.603  84.317 115.950  0.00  0.00    -0.090 HD
ENDBRANCH   5  18
BRANCH   3  22
ATOM     22  C   LIG d   1       2.665  88.238 112.461  0.00  0.00     0.382 C 
ATOM     23  O   LIG d   1       3.625  89.032 112.610  0.00  0.00    -0.241 OA
ATOM     24  O   LIG d   1       1.629  88.628 111.890  0.00  0.00    -0.241 OA
ENDBRANCH   3  22
TORSDOF 7
ENDMDL
MODEL 6
REMARK VINA RESULT:      -5.4     12.956     16.029
REMARK  7 active torsions:
REMARK  status: ('A' for Active; 'I' for Inactive)
REMARK    1  A    between atoms: C_2  and  C_3 
REMARK    2  A    between atoms: C_3  and  O_6 
REMARK    3  A    between atoms: C_3  and  C_4 
REMARK    4  A    between atoms: C_7  and  O_6 
REMARK    5  A    between atoms: C_9  and  C_10 
REMARK    6  A    between atoms: N_15  and  C_14 
REMARK    7  A    between atoms: N_20  and  C_19 
REMARK       I    between atoms: C_22  and  N_20 
ROOT
ATOM      1  C   LIG d   1       1.782  83.972 112.907  0.00  0.00     0.161 C 
ATOM      2  C   LIG d   1       2.258  85.293 112.872  0.00  0.00     0.016 C 
ATOM      3  C   LIG d   1       1.766  86.275 111.981  0.00  0.00     0.038 C 
ATOM      4  C   LIG d   1       0.652  86.040 111.161  0.00  0.00     0.028 C 
ATOM      5  C   LIG d   1       0.464  84.570 110.801  0.00  0.00    -0.047 C 
ATOM      6  C   LIG d   1       0.492  83.728 112.097  0.00  0.00     0.091 C 
ENDROOT
BRANCH   1   7
ATOM      7  O   LIG d   1       1.603  83.553 114.274  0.00  0.00    -0.368 OA
BRANCH   7   8
ATOM      8  C   LIG d   1       2.605  84.007 115.216  0.00  0.00     0.119 C 
BRANCH   8   9
ATOM      9  C   LIG d   1       3.453  82.783 115.616  0.00  0.00     0.028 C 
ATOM     10  C   LIG d   1       3.746  82.740 117.125  0.00  0.00     0.006 C 
ENDBRANCH   8   9
BRANCH   8  11
ATOM     11  C   LIG d   1       1.965  84.499 116.518  0.00  0.00     0.028 C 
ATOM     12  C   LIG d   1       1.749  86.020 116.537  0.00  0.00     0.006 C 
ENDBRANCH   8  11
ENDBRANCH   7   8
ENDBRANCH   1   7
BRANCH   6  13
ATOM     13  N   LIG d   1       0.399  82.269 111.827  0.00  0.00    -0.311 N 
ATOM     14  C   LIG d   1      -0.744  81.587 111.872  0.00  0.00     0.210 C 
ATOM     15  C   LIG d   1      -0.614  80.088 111.581  0.00  0.00     0.109 C 
ATOM     16  O   LIG d   1      -1.857  82.085 112.093  0.00  0.00    -0.276 OA
ATOM     17  H   LIG d   1       1.251  81.791 111.609  0.00  0.00     0.149 HD
ENDBRANCH   6  13
BRANCH   5  18
ATOM     18  N   LIG d   1      -0.807  84.451 110.061  0.00  0.00     0.381 N 
ATOM     19  H   LIG d   1      -1.211  85.357 109.935  0.00  0.00    -0.090 HD
ATOM     20  H   LIG d   1      -1.445  83.893 110.600  0.00  0.00    -0.090 HD
ATOM     21  H   LIG d   1      -0.647  84.024 109.175  0.00  0.00    -0.090 HD
ENDBRANCH   5  18
BRANCH   3  22
ATOM     22  C   LIG d   1       2.415  87.495 111.875  0.00  0.00     0.382 C 
ATOM     23  O   LIG d   1       1.770  88.562 112.008  0.00  0.00    -0.241 OA
ATOM     24  O   LIG d   1       3.630  87.542 111.605  0.00  0.00    -0.241 OA
ENDBRANCH   3  22
TORSDOF 7
ENDMDL
MODEL 7
REMARK VINA RESULT:      -5.4      9.873     12.255
REMARK  7 active torsions:
REMARK  status: ('A' for Active; 'I' for Inactive)
REMARK    1  A    between atoms: C_2  and  C_3 
REMARK    2  A    between atoms: C_3  and  O_6 
REMARK    3  A    between atoms: C_3  and  C_4 
REMARK    4  A    between atoms: C_7  and  O_6 
REMARK    5  A    between atoms: C_9  and  C_10 
REMARK    6  A    between atoms: N_15  and  C_14 
REMARK    7  A    between atoms: N_20  and  C_19 
REMARK       I    between atoms: C_22  and  N_20 
ROOT
ATOM      1  C   LIG d   1     -15.069  65.841 115.656  0.00  0.00     0.161 C 
ATOM      2  C   LIG d   1     -14.845  67.076 115.025  0.00  0.00     0.016 C 
ATOM      3  C   LIG d   1     -15.591  67.528 113.912  0.00  0.00     0.038 C 
ATOM      4  C   LIG d   1     -16.720  66.837 113.447  0.00  0.00     0.028 C 
ATOM      5  C   LIG d   1     -16.675  65.340 113.732  0.00  0.00    -0.047 C 
ATOM      6  C   LIG d   1     -16.368  65.125 115.232  0.00  0.00     0.091 C 
ENDROOT
BRANCH   1   7
ATOM      7  O   LIG d   1     -15.035  66.011 117.087  0.00  0.00    -0.368 OA
BRANCH   7   8
ATOM      8  C   LIG d   1     -16.318  66.011 117.760  0.00  0.00     0.119 C 
BRANCH   8   9
ATOM      9  C   LIG d   1     -16.574  67.443 118.269  0.00  0.00     0.028 C 
ATOM     10  C   LIG d   1     -17.364  68.292 117.260  0.00  0.00     0.006 C 
ENDBRANCH   8   9
BRANCH   8  11
ATOM     11  C   LIG d   1     -16.289  65.133 119.015  0.00  0.00     0.028 C 
ATOM     12  C   LIG d   1     -15.138  64.115 119.004  0.00  0.00     0.006 C 
ENDBRANCH   8  11
ENDBRANCH   7   8
ENDBRANCH   1   7
BRANCH   6  13
ATOM     13  N   LIG d   1     -16.223  63.687 115.580  0.00  0.00    -0.311 N 
ATOM     14  C   LIG d   1     -17.225  62.939 116.038  0.00  0.00     0.210 C 
ATOM     15  C   LIG d   1     -16.855  61.486 116.354  0.00  0.00     0.109 C 
ATOM     16  O   LIG d   1     -18.393  63.331 116.182  0.00  0.00    -0.276 OA
ATOM     17  H   LIG d   1     -15.316  63.279 115.464  0.00  0.00     0.149 HD
ENDBRANCH   6  13
BRANCH   5  18
ATOM     18  N   LIG d   1     -17.970  64.768 113.319  0.00  0.00     0.381 N 
ATOM     19  H   LIG d   1     -18.140  64.977 112.355  0.00  0.00    -0.090 HD
ATOM     20  H   LIG d   1     -18.700  65.187 113.866  0.00  0.00    -0.090 HD
ATOM     21  H   LIG d   1     -17.966  63.781 113.456  0.00  0.00    -0.090 HD
ENDBRANCH   5  18
BRANCH   3  22
ATOM     22  C   LIG d   1     -15.185  68.663 113.228  0.00  0.00     0.382 C 
ATOM     23  O   LIG d   1     -14.021  69.106 113.382  0.00  0.00    -0.241 OA
ATOM     24  O   LIG d   1     -15.982  69.277 112.493  0.00  0.00    -0.241 OA
ENDBRANCH   3  22
TORSDOF 7
ENDMDL
MODEL 8
REMARK VINA RESULT:      -5.4      9.806     13.013
REMARK  7 active torsions:
REMARK  status: ('A' for Active; 'I' for Inactive)
REMARK    1  A    between atoms: C_2  and  C_3 
REMARK    2  A    between atoms: C_3  and  O_6 
REMARK    3  A    between atoms: C_3  and  C_4 
REMARK    4  A    between atoms: C_7  and  O_6 
REMARK    5  A    between atoms: C_9  and  C_10 
REMARK    6  A    between atoms: N_15  and  C_14 
REMARK    7  A    between atoms: N_20  and  C_19 
REMARK       I    between atoms: C_22  and  N_20 
ROOT
ATOM      1  C   LIG d   1     -16.762  65.447 114.504  0.00  0.00     0.161 C 
ATOM      2  C   LIG d   1     -16.421  66.541 113.691  0.00  0.00     0.016 C 
ATOM      3  C   LIG d   1     -15.397  67.461 114.014  0.00  0.00     0.038 C 
ATOM      4  C   LIG d   1     -14.538  67.261 115.105  0.00  0.00     0.028 C 
ATOM      5  C   LIG d   1     -15.169  66.449 116.232  0.00  0.00    -0.047 C 
ATOM      6  C   LIG d   1     -15.763  65.150 115.641  0.00  0.00     0.091 C 
ENDROOT
BRANCH   1   7
ATOM      7  O   LIG d   1     -16.956  64.274 113.688  0.00  0.00    -0.368 OA
BRANCH   7   8
ATOM      8  C   LIG d   1     -18.312  63.769 113.611  0.00  0.00     0.119 C 
BRANCH   8   9
ATOM      9  C   LIG d   1     -19.224  64.777 114.337  0.00  0.00     0.028 C 
ATOM     10  C   LIG d   1     -20.267  65.406 113.398  0.00  0.00     0.006 C 
ENDBRANCH   8   9
BRANCH   8  11
ATOM     11  C   LIG d   1     -18.462  62.456 114.385  0.00  0.00     0.028 C 
ATOM     12  C   LIG d   1     -19.436  62.570 115.568  0.00  0.00     0.006 C 
ENDBRANCH   8  11
ENDBRANCH   7   8
ENDBRANCH   1   7
BRANCH   6  13
ATOM     13  N   LIG d   1     -16.473  64.336 116.663  0.00  0.00    -0.311 N 
ATOM     14  C   LIG d   1     -15.899  63.339 117.334  0.00  0.00     0.210 C 
ATOM     15  C   LIG d   1     -16.816  62.617 118.327  0.00  0.00     0.109 C 
ATOM     16  O   LIG d   1     -14.710  63.006 117.226  0.00  0.00    -0.276 OA
ATOM     17  H   LIG d   1     -17.434  64.559 116.836  0.00  0.00     0.149 HD
ENDBRANCH   6  13
BRANCH   5  18
ATOM     18  N   LIG d   1     -14.122  66.200 117.241  0.00  0.00     0.381 N 
ATOM     19  H   LIG d   1     -13.537  67.006 117.328  0.00  0.00    -0.090 HD
ATOM     20  H   LIG d   1     -13.554  65.429 116.936  0.00  0.00    -0.090 HD
ATOM     21  H   LIG d   1     -14.540  65.987 118.120  0.00  0.00    -0.090 HD
ENDBRANCH   5  18
BRANCH   3  22
ATOM     22  C   LIG d   1     -15.250  68.617 113.263  0.00  0.00     0.382 C 
ATOM     23  O   LIG d   1     -14.133  69.183 113.195  0.00  0.00    -0.241 OA
ATOM     24  O   LIG d   1     -16.232  69.127 112.690  0.00  0.00    -0.241 OA
ENDBRANCH   3  22
TORSDOF 7
ENDMDL
MODEL 9
REMARK VINA RESULT:      -5.2     14.448     17.499
REMARK  7 active torsions:
REMARK  status: ('A' for Active; 'I' for Inactive)
REMARK    1  A    between atoms: C_2  and  C_3 
REMARK    2  A    between atoms: C_3  and  O_6 
REMARK    3  A    between atoms: C_3  and  C_4 
REMARK    4  A    between atoms: C_7  and  O_6 
REMARK    5  A    between atoms: C_9  and  C_10 
REMARK    6  A    between atoms: N_15  and  C_14 
REMARK    7  A    between atoms: N_20  and  C_19 
REMARK       I    between atoms: C_22  and  N_20 
ROOT
ATOM      1  C   LIG d   1       2.469  85.685 113.774  0.00  0.00     0.161 C 
ATOM      2  C   LIG d   1       3.281  86.827 113.880  0.00  0.00     0.016 C 
ATOM      3  C   LIG d   1       3.367  87.816 112.873  0.00  0.00     0.038 C 
ATOM      4  C   LIG d   1       2.527  87.806 111.750  0.00  0.00     0.028 C 
ATOM      5  C   LIG d   1       2.054  86.410 111.359  0.00  0.00    -0.047 C 
ATOM      6  C   LIG d   1       1.462  85.714 112.606  0.00  0.00     0.091 C 
ENDROOT
BRANCH   1   7
ATOM      7  O   LIG d   1       1.784  85.456 115.021  0.00  0.00    -0.368 OA
BRANCH   7   8
ATOM      8  C   LIG d   1       2.091  84.212 115.698  0.00  0.00     0.119 C 
BRANCH   8   9
ATOM      9  C   LIG d   1       2.198  84.519 117.205  0.00  0.00     0.028 C 
ATOM     10  C   LIG d   1       3.077  85.749 117.492  0.00  0.00     0.006 C 
ENDBRANCH   8   9
BRANCH   8  11
ATOM     11  C   LIG d   1       3.469  83.683 115.293  0.00  0.00     0.028 C 
ATOM     12  C   LIG d   1       3.823  82.355 115.981  0.00  0.00     0.006 C 
ENDBRANCH   8  11
ENDBRANCH   7   8
ENDBRANCH   1   7
BRANCH   6  13
ATOM     13  N   LIG d   1       1.052  84.312 112.331  0.00  0.00    -0.311 N 
ATOM     14  C   LIG d   1      -0.183  83.966 111.970  0.00  0.00     0.210 C 
ATOM     15  C   LIG d   1      -0.397  82.465 111.755  0.00  0.00     0.109 C 
ATOM     16  O   LIG d   1      -1.112  84.764 111.776  0.00  0.00    -0.276 OA
ATOM     17  H   LIG d   1       1.752  83.603 112.434  0.00  0.00     0.149 HD
ENDBRANCH   6  13
BRANCH   5  18
ATOM     18  N   LIG d   1       1.079  86.560 110.263  0.00  0.00     0.381 N 
ATOM     19  H   LIG d   1       0.150  86.453 110.618  0.00  0.00    -0.090 HD
ATOM     20  H   LIG d   1       1.241  85.839 109.583  0.00  0.00    -0.090 HD
ATOM     21  H   LIG d   1       1.179  87.456 109.838  0.00  0.00    -0.090 HD
ENDBRANCH   5  18
BRANCH   3  22
ATOM     22  C   LIG d   1       4.331  88.808 112.966  0.00  0.00     0.382 C 
ATOM     23  O   LIG d   1       3.992  90.016 112.940  0.00  0.00    -0.241 OA
ATOM     24  O   LIG d   1       5.539  88.511 113.031  0.00  0.00    -0.241 OA
ENDBRANCH   3  22
TORSDOF 7
ENDMDL
