MODEL 1
REMARK VINA RESULT:      -6.4      0.000      0.000
REMARK  7 active torsions:
REMARK  status: ('A' for Active; 'I' for Inactive)
REMARK    1  A    between atoms: C_2  and  C_3 
REMARK    2  A    between atoms: C_3  and  O_6 
REMARK    3  A    between atoms: C_3  and  C_4 
REMARK    4  A    between atoms: C_7  and  O_6 
REMARK    5  A    between atoms: C_9  and  C_10 
REMARK    6  A    between atoms: N_15  and  C_14 
REMARK    7  A    between atoms: N_20  and  C_19 
REMARK       I    between atoms: C_22  and  N_20 
ROOT
ATOM      1  C   LIG d   1       3.089  84.918 111.531  0.00  0.00     0.161 C 
ATOM      2  C   LIG d   1       1.845  84.578 110.973  0.00  0.00     0.016 C 
ATOM      3  C   LIG d   1       0.731  85.448 110.969  0.00  0.00     0.038 C 
ATOM      4  C   LIG d   1       0.830  86.782 111.392  0.00  0.00     0.028 C 
ATOM      5  C   LIG d   1       1.927  87.010 112.426  0.00  0.00    -0.047 C 
ATOM      6  C   LIG d   1       3.249  86.408 111.897  0.00  0.00     0.091 C 
ENDROOT
BRANCH   1   7
ATOM      7  O   LIG d   1       4.150  84.502 110.649  0.00  0.00    -0.368 OA
BRANCH   7   8
ATOM      8  C   LIG d   1       4.578  83.123 110.772  0.00  0.00     0.119 C 
BRANCH   8   9
ATOM      9  C   LIG d   1       5.669  83.072 111.859  0.00  0.00     0.028 C 
ATOM     10  C   LIG d   1       5.234  82.261 113.090  0.00  0.00     0.006 C 
ENDBRANCH   8   9
BRANCH   8  11
ATOM     11  C   LIG d   1       5.259  82.634 109.490  0.00  0.00     0.028 C 
ATOM     12  C   LIG d   1       4.255  82.246 108.393  0.00  0.00     0.006 C 
ENDBRANCH   8  11
ENDBRANCH   7   8
ENDBRANCH   1   7
BRANCH   6  13
ATOM     13  N   LIG d   1       4.355  86.513 112.883  0.00  0.00    -0.311 N 
ATOM     14  C   LIG d   1       5.178  87.558 112.954  0.00  0.00     0.210 C 
ATOM     15  C   LIG d   1       6.263  87.455 114.031  0.00  0.00     0.109 C 
ATOM     16  O   LIG d   1       5.094  88.574 112.247  0.00  0.00    -0.276 OA
ATOM     17  H   LIG d   1       4.476  85.746 113.516  0.00  0.00     0.149 HD
ENDBRANCH   6  13
BRANCH   5  18
ATOM     18  N   LIG d   1       2.011  88.462 112.674  0.00  0.00     0.381 N 
ATOM     19  H   LIG d   1       2.969  88.750 112.676  0.00  0.00    -0.090 HD
ATOM     20  H   LIG d   1       1.621  88.660 113.579  0.00  0.00    -0.090 HD
ATOM     21  H   LIG d   1       1.509  88.957 111.972  0.00  0.00    -0.090 HD
ENDBRANCH   5  18
BRANCH   3  22
ATOM     22  C   LIG d   1      -0.511  84.973 110.576  0.00  0.00     0.382 C 
ATOM     23  O   LIG d   1      -1.334  85.746 110.028  0.00  0.00    -0.241 OA
ATOM     24  O   LIG d   1      -0.836  83.792 110.802  0.00  0.00    -0.241 OA
ENDBRANCH   3  22
TORSDOF 7
ENDMDL
MODEL 2
REMARK VINA RESULT:      -6.3      1.720      4.905
REMARK  7 active torsions:
REMARK  status: ('A' for Active; 'I' for Inactive)
REMARK    1  A    between atoms: C_2  and  C_3 
REMARK    2  A    between atoms: C_3  and  O_6 
REMARK    3  A    between atoms: C_3  and  C_4 
REMARK    4  A    between atoms: C_7  and  O_6 
REMARK    5  A    between atoms: C_9  and  C_10 
REMARK    6  A    between atoms: N_15  and  C_14 
REMARK    7  A    between atoms: N_20  and  C_19 
REMARK       I    between atoms: C_22  and  N_20 
ROOT
ATOM      1  C   LIG d   1       3.779  85.875 111.027  0.00  0.00     0.161 C 
ATOM      2  C   LIG d   1       4.950  86.390 111.607  0.00  0.00     0.016 C 
ATOM      3  C   LIG d   1       4.961  87.496 112.488  0.00  0.00     0.038 C 
ATOM      4  C   LIG d   1       3.776  88.071 112.971  0.00  0.00     0.028 C 
ATOM      5  C   LIG d   1       2.593  87.909 112.022  0.00  0.00    -0.047 C 
ATOM      6  C   LIG d   1       2.466  86.419 111.629  0.00  0.00     0.091 C 
ENDROOT
BRANCH   1   7
ATOM      7  O   LIG d   1       3.797  84.435 111.085  0.00  0.00    -0.368 OA
BRANCH   7   8
ATOM      8  C   LIG d   1       4.046  83.751 109.832  0.00  0.00     0.119 C 
BRANCH   8   9
ATOM      9  C   LIG d   1       2.859  82.799 109.582  0.00  0.00     0.028 C 
ATOM     10  C   LIG d   1       1.950  83.283 108.439  0.00  0.00     0.006 C 
ENDBRANCH   8   9
BRANCH   8  11
ATOM     11  C   LIG d   1       5.278  82.846 109.926  0.00  0.00     0.028 C 
ATOM     12  C   LIG d   1       4.952  81.367 109.667  0.00  0.00     0.006 C 
ENDBRANCH   8  11
ENDBRANCH   7   8
ENDBRANCH   1   7
BRANCH   6  13
ATOM     13  N   LIG d   1       1.385  86.185 110.636  0.00  0.00    -0.311 N 
ATOM     14  C   LIG d   1       0.134  85.878 110.973  0.00  0.00     0.210 C 
ATOM     15  C   LIG d   1      -0.818  85.658 109.794  0.00  0.00     0.109 C 
ATOM     16  O   LIG d   1      -0.285  85.797 112.138  0.00  0.00    -0.276 OA
ATOM     17  H   LIG d   1       1.630  86.261 109.668  0.00  0.00     0.149 HD
ENDBRANCH   6  13
BRANCH   5  18
ATOM     18  N   LIG d   1       1.396  88.430 112.709  0.00  0.00     0.381 N 
ATOM     19  H   LIG d   1       0.961  89.132 112.144  0.00  0.00    -0.090 HD
ATOM     20  H   LIG d   1       1.677  88.852 113.576  0.00  0.00    -0.090 HD
ATOM     21  H   LIG d   1       0.754  87.689 112.884  0.00  0.00    -0.090 HD
ENDBRANCH   5  18
BRANCH   3  22
ATOM     22  C   LIG d   1       6.169  88.063 112.864  0.00  0.00     0.382 C 
ATOM     23  O   LIG d   1       6.669  88.986 112.176  0.00  0.00    -0.241 OA
ATOM     24  O   LIG d   1       6.787  87.634 113.856  0.00  0.00    -0.241 OA
ENDBRANCH   3  22
TORSDOF 7
ENDMDL
MODEL 3
REMARK VINA RESULT:      -6.3      3.284      5.188
REMARK  7 active torsions:
REMARK  status: ('A' for Active; 'I' for Inactive)
REMARK    1  A    between atoms: C_2  and  C_3 
REMARK    2  A    between atoms: C_3  and  O_6 
REMARK    3  A    between atoms: C_3  and  C_4 
REMARK    4  A    between atoms: C_7  and  O_6 
REMARK    5  A    between atoms: C_9  and  C_10 
REMARK    6  A    between atoms: N_15  and  C_14 
REMARK    7  A    between atoms: N_20  and  C_19 
REMARK       I    between atoms: C_22  and  N_20 
ROOT
ATOM      1  C   LIG d   1       1.709  83.598 109.542  0.00  0.00     0.161 C 
ATOM      2  C   LIG d   1       1.972  84.872 110.072  0.00  0.00     0.016 C 
ATOM      3  C   LIG d   1       1.287  85.407 111.188  0.00  0.00     0.038 C 
ATOM      4  C   LIG d   1       0.392  84.638 111.947  0.00  0.00     0.028 C 
ATOM      5  C   LIG d   1      -0.276  83.523 111.150  0.00  0.00    -0.047 C 
ATOM      6  C   LIG d   1       0.815  82.702 110.425  0.00  0.00     0.091 C 
ENDROOT
BRANCH   1   7
ATOM      7  O   LIG d   1       2.950  82.928 109.243  0.00  0.00    -0.368 OA
BRANCH   7   8
ATOM      8  C   LIG d   1       3.595  82.256 110.353  0.00  0.00     0.119 C 
BRANCH   8   9
ATOM      9  C   LIG d   1       5.022  82.824 110.471  0.00  0.00     0.028 C 
ATOM     10  C   LIG d   1       5.249  83.570 111.797  0.00  0.00     0.006 C 
ENDBRANCH   8   9
BRANCH   8  11
ATOM     11  C   LIG d   1       3.775  80.761 110.070  0.00  0.00     0.028 C 
ATOM     12  C   LIG d   1       5.233  80.385 109.762  0.00  0.00     0.006 C 
ENDBRANCH   8  11
ENDBRANCH   7   8
ENDBRANCH   1   7
BRANCH   6  13
ATOM     13  N   LIG d   1       0.242  81.642 109.554  0.00  0.00    -0.311 N 
ATOM     14  C   LIG d   1       0.096  80.376 109.941  0.00  0.00     0.210 C 
ATOM     15  C   LIG d   1      -0.498  79.441 108.882  0.00  0.00     0.109 C 
ATOM     16  O   LIG d   1       0.372  79.945 111.070  0.00  0.00    -0.276 OA
ATOM     17  H   LIG d   1      -0.038  81.911 108.632  0.00  0.00     0.149 HD
ENDBRANCH   6  13
BRANCH   5  18
ATOM     18  N   LIG d   1      -1.075  82.718 112.093  0.00  0.00     0.381 N 
ATOM     19  H   LIG d   1      -2.028  83.021 112.074  0.00  0.00    -0.090 HD
ATOM     20  H   LIG d   1      -0.718  82.857 113.022  0.00  0.00    -0.090 HD
ATOM     21  H   LIG d   1      -1.020  81.754 111.849  0.00  0.00    -0.090 HD
ENDBRANCH   5  18
BRANCH   3  22
ATOM     22  C   LIG d   1       1.466  86.739 111.530  0.00  0.00     0.382 C 
ATOM     23  O   LIG d   1       0.538  87.373 112.087  0.00  0.00    -0.241 OA
ATOM     24  O   LIG d   1       2.528  87.326 111.249  0.00  0.00    -0.241 OA
ENDBRANCH   3  22
TORSDOF 7
ENDMDL
MODEL 4
REMARK VINA RESULT:      -6.0      3.831      6.595
REMARK  7 active torsions:
REMARK  status: ('A' for Active; 'I' for Inactive)
REMARK    1  A    between atoms: C_2  and  C_3 
REMARK    2  A    between atoms: C_3  and  O_6 
REMARK    3  A    between atoms: C_3  and  C_4 
REMARK    4  A    between atoms: C_7  and  O_6 
REMARK    5  A    between atoms: C_9  and  C_10 
REMARK    6  A    between atoms: N_15  and  C_14 
REMARK    7  A    between atoms: N_20  and  C_19 
REMARK       I    between atoms: C_22  and  N_20 
ROOT
ATOM      1  C   LIG d   1       1.179  82.375 112.139  0.00  0.00     0.161 C 
ATOM      2  C   LIG d   1       2.223  83.026 111.459  0.00  0.00     0.016 C 
ATOM      3  C   LIG d   1       2.449  82.892 110.070  0.00  0.00     0.038 C 
ATOM      4  C   LIG d   1       1.550  82.213 109.234  0.00  0.00     0.028 C 
ATOM      5  C   LIG d   1       0.762  81.121 109.951  0.00  0.00    -0.047 C 
ATOM      6  C   LIG d   1       0.123  81.719 111.225  0.00  0.00     0.091 C 
ENDROOT
BRANCH   1   7
ATOM      7  O   LIG d   1       0.549  83.290 113.057  0.00  0.00    -0.368 OA
BRANCH   7   8
ATOM      8  C   LIG d   1       0.579  84.689 112.684  0.00  0.00     0.119 C 
BRANCH   8   9
ATOM      9  C   LIG d   1       0.931  85.498 113.947  0.00  0.00     0.028 C 
ATOM     10  C   LIG d   1       1.479  84.611 115.078  0.00  0.00     0.006 C 
ENDBRANCH   8   9
BRANCH   8  11
ATOM     11  C   LIG d   1      -0.808  85.183 112.260  0.00  0.00     0.028 C 
ATOM     12  C   LIG d   1      -0.749  86.248 111.154  0.00  0.00     0.006 C 
ENDBRANCH   8  11
ENDBRANCH   7   8
ENDBRANCH   1   7
BRANCH   6  13
ATOM     13  N   LIG d   1      -0.597  80.698 112.031  0.00  0.00    -0.311 N 
ATOM     14  C   LIG d   1      -1.768  80.924 112.623  0.00  0.00     0.210 C 
ATOM     15  C   LIG d   1      -2.327  79.742 113.422  0.00  0.00     0.109 C 
ATOM     16  O   LIG d   1      -2.413  81.979 112.536  0.00  0.00    -0.276 OA
ATOM     17  H   LIG d   1      -0.159  79.803 112.128  0.00  0.00     0.149 HD
ENDBRANCH   6  13
BRANCH   5  18
ATOM     18  N   LIG d   1      -0.232  80.590 109.000  0.00  0.00     0.381 N 
ATOM     19  H   LIG d   1       0.207  79.941 108.378  0.00  0.00    -0.090 HD
ATOM     20  H   LIG d   1      -0.598  81.351 108.455  0.00  0.00    -0.090 HD
ATOM     21  H   LIG d   1      -0.971  80.140 109.494  0.00  0.00    -0.090 HD
ENDBRANCH   5  18
BRANCH   3  22
ATOM     22  C   LIG d   1       3.607  83.408 109.509  0.00  0.00     0.382 C 
ATOM     23  O   LIG d   1       4.047  84.520 109.890  0.00  0.00    -0.241 OA
ATOM     24  O   LIG d   1       4.194  82.797 108.596  0.00  0.00    -0.241 OA
ENDBRANCH   3  22
TORSDOF 7
ENDMDL
MODEL 5
REMARK VINA RESULT:      -5.9      2.388      3.034
REMARK  7 active torsions:
REMARK  status: ('A' for Active; 'I' for Inactive)
REMARK    1  A    between atoms: C_2  and  C_3 
REMARK    2  A    between atoms: C_3  and  O_6 
REMARK    3  A    between atoms: C_3  and  C_4 
REMARK    4  A    between atoms: C_7  and  O_6 
REMARK    5  A    between atoms: C_9  and  C_10 
REMARK    6  A    between atoms: N_15  and  C_14 
REMARK    7  A    between atoms: N_20  and  C_19 
REMARK       I    between atoms: C_22  and  N_20 
ROOT
ATOM      1  C   LIG d   1       2.099  82.751 111.589  0.00  0.00     0.161 C 
ATOM      2  C   LIG d   1       0.954  81.944 111.686  0.00  0.00     0.016 C 
ATOM      3  C   LIG d   1      -0.336  82.453 111.962  0.00  0.00     0.038 C 
ATOM      4  C   LIG d   1      -0.594  83.832 112.010  0.00  0.00     0.028 C 
ATOM      5  C   LIG d   1       0.619  84.661 112.419  0.00  0.00    -0.047 C 
ATOM      6  C   LIG d   1       1.819  84.267 111.529  0.00  0.00     0.091 C 
ENDROOT
BRANCH   1   7
ATOM      7  O   LIG d   1       2.891  82.342 110.456  0.00  0.00    -0.368 OA
BRANCH   7   8
ATOM      8  C   LIG d   1       4.067  81.549 110.752  0.00  0.00     0.119 C 
BRANCH   8   9
ATOM      9  C   LIG d   1       5.301  82.411 110.422  0.00  0.00     0.028 C 
ATOM     10  C   LIG d   1       5.073  83.319 109.201  0.00  0.00     0.006 C 
ENDBRANCH   8   9
BRANCH   8  11
ATOM     11  C   LIG d   1       4.164  80.330 109.830  0.00  0.00     0.028 C 
ATOM     12  C   LIG d   1       2.789  79.772 109.434  0.00  0.00     0.006 C 
ENDBRANCH   8  11
ENDBRANCH   7   8
ENDBRANCH   1   7
BRANCH   6  13
ATOM     13  N   LIG d   1       3.069  84.971 111.918  0.00  0.00    -0.311 N 
ATOM     14  C   LIG d   1       3.410  86.171 111.451  0.00  0.00     0.210 C 
ATOM     15  C   LIG d   1       4.750  86.707 111.966  0.00  0.00     0.109 C 
ATOM     16  O   LIG d   1       2.716  86.855 110.685  0.00  0.00    -0.276 OA
ATOM     17  H   LIG d   1       3.676  84.501 112.560  0.00  0.00     0.149 HD
ENDBRANCH   6  13
BRANCH   5  18
ATOM     18  N   LIG d   1       0.249  86.083 112.295  0.00  0.00     0.381 N 
ATOM     19  H   LIG d   1       0.804  86.634 112.919  0.00  0.00    -0.090 HD
ATOM     20  H   LIG d   1      -0.716  86.192 112.552  0.00  0.00    -0.090 HD
ATOM     21  H   LIG d   1       0.386  86.390 111.357  0.00  0.00    -0.090 HD
ENDBRANCH   5  18
BRANCH   3  22
ATOM     22  C   LIG d   1      -1.377  81.579 112.232  0.00  0.00     0.382 C 
ATOM     23  O   LIG d   1      -2.477  82.021 112.644  0.00  0.00    -0.241 OA
ATOM     24  O   LIG d   1      -1.217  80.349 112.112  0.00  0.00    -0.241 OA
ENDBRANCH   3  22
TORSDOF 7
ENDMDL
MODEL 6
REMARK VINA RESULT:      -5.7      2.168      4.437
REMARK  7 active torsions:
REMARK  status: ('A' for Active; 'I' for Inactive)
REMARK    1  A    between atoms: C_2  and  C_3 
REMARK    2  A    between atoms: C_3  and  O_6 
REMARK    3  A    between atoms: C_3  and  C_4 
REMARK    4  A    between atoms: C_7  and  O_6 
REMARK    5  A    between atoms: C_9  and  C_10 
REMARK    6  A    between atoms: N_15  and  C_14 
REMARK    7  A    between atoms: N_20  and  C_19 
REMARK       I    between atoms: C_22  and  N_20 
ROOT
ATOM      1  C   LIG d   1       2.697  85.511 110.732  0.00  0.00     0.161 C 
ATOM      2  C   LIG d   1       1.416  86.088 110.746  0.00  0.00     0.016 C 
ATOM      3  C   LIG d   1       0.295  85.479 111.355  0.00  0.00     0.038 C 
ATOM      4  C   LIG d   1       0.413  84.313 112.127  0.00  0.00     0.028 C 
ATOM      5  C   LIG d   1       1.587  83.431 111.716  0.00  0.00    -0.047 C 
ATOM      6  C   LIG d   1       2.869  84.294 111.664  0.00  0.00     0.091 C 
ENDROOT
BRANCH   1   7
ATOM      7  O   LIG d   1       3.688  86.514 111.030  0.00  0.00    -0.368 OA
BRANCH   7   8
ATOM      8  C   LIG d   1       3.974  86.731 112.434  0.00  0.00     0.119 C 
BRANCH   8   9
ATOM      9  C   LIG d   1       3.439  88.128 112.805  0.00  0.00     0.028 C 
ATOM     10  C   LIG d   1       2.515  88.095 114.033  0.00  0.00     0.006 C 
ENDBRANCH   8   9
BRANCH   8  11
ATOM     11  C   LIG d   1       5.482  86.792 112.693  0.00  0.00     0.028 C 
ATOM     12  C   LIG d   1       6.015  88.231 112.777  0.00  0.00     0.006 C 
ENDBRANCH   8  11
ENDBRANCH   7   8
ENDBRANCH   1   7
BRANCH   6  13
ATOM     13  N   LIG d   1       4.050  83.527 111.189  0.00  0.00    -0.311 N 
ATOM     14  C   LIG d   1       4.107  82.932 109.999  0.00  0.00     0.210 C 
ATOM     15  C   LIG d   1       5.409  82.176 109.716  0.00  0.00     0.109 C 
ATOM     16  O   LIG d   1       3.216  82.985 109.138  0.00  0.00    -0.276 OA
ATOM     17  H   LIG d   1       4.830  83.459 111.812  0.00  0.00     0.149 HD
ENDBRANCH   6  13
BRANCH   5  18
ATOM     18  N   LIG d   1       1.674  82.325 112.688  0.00  0.00     0.381 N 
ATOM     19  H   LIG d   1       2.404  82.509 113.347  0.00  0.00    -0.090 HD
ATOM     20  H   LIG d   1       1.900  81.478 112.197  0.00  0.00    -0.090 HD
ATOM     21  H   LIG d   1       0.806  82.220 113.164  0.00  0.00    -0.090 HD
ENDBRANCH   5  18
BRANCH   3  22
ATOM     22  C   LIG d   1      -0.969  86.015 111.161  0.00  0.00     0.382 C 
ATOM     23  O   LIG d   1      -1.572  86.560 112.116  0.00  0.00    -0.241 OA
ATOM     24  O   LIG d   1      -1.531  85.922 110.053  0.00  0.00    -0.241 OA
ENDBRANCH   3  22
TORSDOF 7
ENDMDL
MODEL 7
REMARK VINA RESULT:      -5.7      2.962      5.070
REMARK  7 active torsions:
REMARK  status: ('A' for Active; 'I' for Inactive)
REMARK    1  A    between atoms: C_2  and  C_3 
REMARK    2  A    between atoms: C_3  and  O_6 
REMARK    3  A    between atoms: C_3  and  C_4 
REMARK    4  A    between atoms: C_7  and  O_6 
REMARK    5  A    between atoms: C_9  and  C_10 
REMARK    6  A    between atoms: N_15  and  C_14 
REMARK    7  A    between atoms: N_20  and  C_19 
REMARK       I    between atoms: C_22  and  N_20 
ROOT
ATOM      1  C   LIG d   1       2.313  83.183 111.495  0.00  0.00     0.161 C 
ATOM      2  C   LIG d   1       3.204  82.129 111.233  0.00  0.00     0.016 C 
ATOM      3  C   LIG d   1       3.378  81.559 109.951  0.00  0.00     0.038 C 
ATOM      4  C   LIG d   1       2.780  82.108 108.807  0.00  0.00     0.028 C 
ATOM      5  C   LIG d   1       1.483  82.854 109.101  0.00  0.00    -0.047 C 
ATOM      6  C   LIG d   1       1.734  83.869 110.240  0.00  0.00     0.091 C 
ENDROOT
BRANCH   1   7
ATOM      7  O   LIG d   1       2.945  84.155 112.351  0.00  0.00    -0.368 OA
BRANCH   7   8
ATOM      8  C   LIG d   1       4.354  84.394 112.113  0.00  0.00     0.119 C 
BRANCH   8   9
ATOM      9  C   LIG d   1       4.994  84.769 113.464  0.00  0.00     0.028 C 
ATOM     10  C   LIG d   1       4.127  84.347 114.662  0.00  0.00     0.006 C 
ENDBRANCH   8   9
BRANCH   8  11
ATOM     11  C   LIG d   1       4.569  85.612 111.210  0.00  0.00     0.028 C 
ATOM     12  C   LIG d   1       5.110  86.831 111.974  0.00  0.00     0.006 C 
ENDBRANCH   8  11
ENDBRANCH   7   8
ENDBRANCH   1   7
BRANCH   6  13
ATOM     13  N   LIG d   1       0.496  84.582 110.647  0.00  0.00    -0.311 N 
ATOM     14  C   LIG d   1       0.449  85.891 110.888  0.00  0.00     0.210 C 
ATOM     15  C   LIG d   1      -0.923  86.422 111.315  0.00  0.00     0.109 C 
ATOM     16  O   LIG d   1       1.406  86.669 110.758  0.00  0.00    -0.276 OA
ATOM     17  H   LIG d   1      -0.335  84.032 110.747  0.00  0.00     0.149 HD
ENDBRANCH   6  13
BRANCH   5  18
ATOM     18  N   LIG d   1       1.041  83.491 107.846  0.00  0.00     0.381 N 
ATOM     19  H   LIG d   1       1.151  84.484 107.913  0.00  0.00    -0.090 HD
ATOM     20  H   LIG d   1       0.067  83.291 107.705  0.00  0.00    -0.090 HD
ATOM     21  H   LIG d   1       1.574  83.141 107.080  0.00  0.00    -0.090 HD
ENDBRANCH   5  18
BRANCH   3  22
ATOM     22  C   LIG d   1       4.128  80.401 109.810  0.00  0.00     0.382 C 
ATOM     23  O   LIG d   1       5.378  80.469 109.732  0.00  0.00    -0.241 OA
ATOM     24  O   LIG d   1       3.567  79.293 109.717  0.00  0.00    -0.241 OA
ENDBRANCH   3  22
TORSDOF 7
ENDMDL
MODEL 8
REMARK VINA RESULT:      -5.6      2.941      4.341
REMARK  7 active torsions:
REMARK  status: ('A' for Active; 'I' for Inactive)
REMARK    1  A    between atoms: C_2  and  C_3 
REMARK    2  A    between atoms: C_3  and  O_6 
REMARK    3  A    between atoms: C_3  and  C_4 
REMARK    4  A    between atoms: C_7  and  O_6 
REMARK    5  A    between atoms: C_9  and  C_10 
REMARK    6  A    between atoms: N_15  and  C_14 
REMARK    7  A    between atoms: N_20  and  C_19 
REMARK       I    between atoms: C_22  and  N_20 
ROOT
ATOM      1  C   LIG d   1       2.251  82.897 111.861  0.00  0.00     0.161 C 
ATOM      2  C   LIG d   1       2.332  81.600 111.328  0.00  0.00     0.016 C 
ATOM      3  C   LIG d   1       1.899  81.267 110.023  0.00  0.00     0.038 C 
ATOM      4  C   LIG d   1       1.494  82.246 109.104  0.00  0.00     0.028 C 
ATOM      5  C   LIG d   1       0.920  83.496 109.764  0.00  0.00    -0.047 C 
ATOM      6  C   LIG d   1       1.915  83.999 110.835  0.00  0.00     0.091 C 
ENDROOT
BRANCH   1   7
ATOM      7  O   LIG d   1       3.473  83.216 112.556  0.00  0.00    -0.368 OA
BRANCH   7   8
ATOM      8  C   LIG d   1       4.494  83.885 111.776  0.00  0.00     0.119 C 
BRANCH   8   9
ATOM      9  C   LIG d   1       5.580  82.843 111.444  0.00  0.00     0.028 C 
ATOM     10  C   LIG d   1       5.600  82.471 109.952  0.00  0.00     0.006 C 
ENDBRANCH   8   9
BRANCH   8  11
ATOM     11  C   LIG d   1       5.205  84.964 112.598  0.00  0.00     0.028 C 
ATOM     12  C   LIG d   1       5.221  84.654 114.103  0.00  0.00     0.006 C 
ENDBRANCH   8  11
ENDBRANCH   7   8
ENDBRANCH   1   7
BRANCH   6  13
ATOM     13  N   LIG d   1       1.394  85.170 111.587  0.00  0.00    -0.311 N 
ATOM     14  C   LIG d   1       1.871  86.405 111.442  0.00  0.00     0.210 C 
ATOM     15  C   LIG d   1       1.204  87.463 112.328  0.00  0.00     0.109 C 
ATOM     16  O   LIG d   1       2.760  86.731 110.642  0.00  0.00    -0.276 OA
ATOM     17  H   LIG d   1       0.650  85.001 112.236  0.00  0.00     0.149 HD
ENDBRANCH   6  13
BRANCH   5  18
ATOM     18  N   LIG d   1       0.667  84.485 108.699  0.00  0.00     0.381 N 
ATOM     19  H   LIG d   1       0.658  84.030 107.809  0.00  0.00    -0.090 HD
ATOM     20  H   LIG d   1       1.411  85.161 108.701  0.00  0.00    -0.090 HD
ATOM     21  H   LIG d   1      -0.205  84.940 108.857  0.00  0.00    -0.090 HD
ENDBRANCH   5  18
BRANCH   3  22
ATOM     22  C   LIG d   1       1.832  79.936 109.640  0.00  0.00     0.382 C 
ATOM     23  O   LIG d   1       2.885  79.266 109.513  0.00  0.00    -0.241 OA
ATOM     24  O   LIG d   1       0.734  79.409 109.378  0.00  0.00    -0.241 OA
ENDBRANCH   3  22
TORSDOF 7
ENDMDL
MODEL 9
REMARK VINA RESULT:      -5.5      3.126      4.236
REMARK  7 active torsions:
REMARK  status: ('A' for Active; 'I' for Inactive)
REMARK    1  A    between atoms: C_2  and  C_3 
REMARK    2  A    between atoms: C_3  and  O_6 
REMARK    3  A    between atoms: C_3  and  C_4 
REMARK    4  A    between atoms: C_7  and  O_6 
REMARK    5  A    between atoms: C_9  and  C_10 
REMARK    6  A    between atoms: N_15  and  C_14 
REMARK    7  A    between atoms: N_20  and  C_19 
REMARK       I    between atoms: C_22  and  N_20 
ROOT
ATOM      1  C   LIG d   1       2.720  82.262 111.987  0.00  0.00     0.161 C 
ATOM      2  C   LIG d   1       2.361  81.313 111.016  0.00  0.00     0.016 C 
ATOM      3  C   LIG d   1       1.047  81.172 110.514  0.00  0.00     0.038 C 
ATOM      4  C   LIG d   1       0.027  82.078 110.841  0.00  0.00     0.028 C 
ATOM      5  C   LIG d   1       0.219  82.741 112.201  0.00  0.00    -0.047 C 
ATOM      6  C   LIG d   1       1.646  83.332 112.274  0.00  0.00     0.091 C 
ENDROOT
BRANCH   1   7
ATOM      7  O   LIG d   1       3.966  82.889 111.621  0.00  0.00    -0.368 OA
BRANCH   7   8
ATOM      8  C   LIG d   1       3.948  83.681 110.408  0.00  0.00     0.119 C 
BRANCH   8   9
ATOM      9  C   LIG d   1       5.082  83.165 109.501  0.00  0.00     0.028 C 
ATOM     10  C   LIG d   1       4.553  82.361 108.301  0.00  0.00     0.006 C 
ENDBRANCH   8   9
BRANCH   8  11
ATOM     11  C   LIG d   1       4.293  85.146 110.694  0.00  0.00     0.028 C 
ATOM     12  C   LIG d   1       4.936  85.347 112.076  0.00  0.00     0.006 C 
ENDBRANCH   8  11
ENDBRANCH   7   8
ENDBRANCH   1   7
BRANCH   6  13
ATOM     13  N   LIG d   1       1.946  83.925 113.603  0.00  0.00    -0.311 N 
ATOM     14  C   LIG d   1       1.761  85.213 113.890  0.00  0.00     0.210 C 
ATOM     15  C   LIG d   1       2.154  85.621 115.313  0.00  0.00     0.109 C 
ATOM     16  O   LIG d   1       1.279  86.049 113.111  0.00  0.00    -0.276 OA
ATOM     17  H   LIG d   1       2.312  83.312 114.305  0.00  0.00     0.149 HD
ENDBRANCH   6  13
BRANCH   5  18
ATOM     18  N   LIG d   1      -0.837  83.759 112.354  0.00  0.00     0.381 N 
ATOM     19  H   LIG d   1      -0.649  84.324 113.158  0.00  0.00    -0.090 HD
ATOM     20  H   LIG d   1      -1.718  83.296 112.494  0.00  0.00    -0.090 HD
ATOM     21  H   LIG d   1      -0.880  84.331 111.540  0.00  0.00    -0.090 HD
ENDBRANCH   5  18
BRANCH   3  22
ATOM     22  C   LIG d   1       0.732  80.091 109.704  0.00  0.00     0.382 C 
ATOM     23  O   LIG d   1       1.623  79.268 109.384  0.00  0.00    -0.241 OA
ATOM     24  O   LIG d   1      -0.421  79.954 109.254  0.00  0.00    -0.241 OA
ENDBRANCH   3  22
TORSDOF 7
ENDMDL
