MODEL 1
REMARK VINA RESULT:      -6.8      0.000      0.000
REMARK  7 active torsions:
REMARK  status: ('A' for Active; 'I' for Inactive)
REMARK    1  A    between atoms: C_2  and  C_3 
REMARK    2  A    between atoms: C_3  and  O_6 
REMARK    3  A    between atoms: C_3  and  C_4 
REMARK    4  A    between atoms: C_7  and  O_6 
REMARK    5  A    between atoms: C_9  and  C_10 
REMARK    6  A    between atoms: N_15  and  C_14 
REMARK    7  A    between atoms: N_20  and  C_19 
REMARK       I    between atoms: C_22  and  N_20 
ROOT
ATOM      1  C   LIG d   1       0.672  83.996 109.460  0.00  0.00     0.161 C 
ATOM      2  C   LIG d   1       0.358  85.293 109.898  0.00  0.00     0.016 C 
ATOM      3  C   LIG d   1      -0.345  85.562 111.095  0.00  0.00     0.038 C 
ATOM      4  C   LIG d   1      -0.650  84.550 112.018  0.00  0.00     0.028 C 
ATOM      5  C   LIG d   1      -0.799  83.173 111.381  0.00  0.00    -0.047 C 
ATOM      6  C   LIG d   1       0.445  82.887 110.509  0.00  0.00     0.091 C 
ENDROOT
BRANCH   1   7
ATOM      7  O   LIG d   1       2.030  83.958 108.978  0.00  0.00    -0.368 OA
BRANCH   7   8
ATOM      8  C   LIG d   1       3.060  83.812 109.986  0.00  0.00     0.119 C 
BRANCH   8   9
ATOM      9  C   LIG d   1       3.679  85.204 110.220  0.00  0.00     0.028 C 
ATOM     10  C   LIG d   1       3.551  85.665 111.681  0.00  0.00     0.006 C 
ENDBRANCH   8   9
BRANCH   8  11
ATOM     11  C   LIG d   1       4.211  82.936 109.483  0.00  0.00     0.028 C 
ATOM     12  C   LIG d   1       3.846  82.139 108.221  0.00  0.00     0.006 C 
ENDBRANCH   8  11
ENDBRANCH   7   8
ENDBRANCH   1   7
BRANCH   6  13
ATOM     13  N   LIG d   1       0.342  81.595 109.781  0.00  0.00    -0.311 N 
ATOM     14  C   LIG d   1       1.145  80.558 110.012  0.00  0.00     0.210 C 
ATOM     15  C   LIG d   1       0.881  79.328 109.137  0.00  0.00     0.109 C 
ATOM     16  O   LIG d   1       2.031  80.528 110.880  0.00  0.00    -0.276 OA
ATOM     17  H   LIG d   1      -0.370  81.521 109.081  0.00  0.00     0.149 HD
ENDBRANCH   6  13
BRANCH   5  18
ATOM     18  N   LIG d   1      -0.980  82.195 112.470  0.00  0.00     0.381 N 
ATOM     19  H   LIG d   1      -1.824  82.394 112.967  0.00  0.00    -0.090 HD
ATOM     20  H   LIG d   1      -0.210  82.276 113.110  0.00  0.00    -0.090 HD
ATOM     21  H   LIG d   1      -1.015  81.272 112.097  0.00  0.00    -0.090 HD
ENDBRANCH   5  18
BRANCH   3  22
ATOM     22  C   LIG d   1      -0.784  86.850 111.360  0.00  0.00     0.382 C 
ATOM     23  O   LIG d   1       0.038  87.737 111.693  0.00  0.00    -0.241 OA
ATOM     24  O   LIG d   1      -1.998  87.125 111.313  0.00  0.00    -0.241 OA
ENDBRANCH   3  22
TORSDOF 7
ENDMDL
MODEL 2
REMARK VINA RESULT:      -6.4      2.665      4.815
REMARK  7 active torsions:
REMARK  status: ('A' for Active; 'I' for Inactive)
REMARK    1  A    between atoms: C_2  and  C_3 
REMARK    2  A    between atoms: C_3  and  O_6 
REMARK    3  A    between atoms: C_3  and  C_4 
REMARK    4  A    between atoms: C_7  and  O_6 
REMARK    5  A    between atoms: C_9  and  C_10 
REMARK    6  A    between atoms: N_15  and  C_14 
REMARK    7  A    between atoms: N_20  and  C_19 
REMARK       I    between atoms: C_22  and  N_20 
ROOT
ATOM      1  C   LIG d   1       2.202  83.547 112.172  0.00  0.00     0.161 C 
ATOM      2  C   LIG d   1       1.192  82.578 112.056  0.00  0.00     0.016 C 
ATOM      3  C   LIG d   1      -0.176  82.895 111.888  0.00  0.00     0.038 C 
ATOM      4  C   LIG d   1      -0.610  84.211 111.672  0.00  0.00     0.028 C 
ATOM      5  C   LIG d   1       0.311  85.261 112.285  0.00  0.00    -0.047 C 
ATOM      6  C   LIG d   1       1.761  84.985 111.827  0.00  0.00     0.091 C 
ENDROOT
BRANCH   1   7
ATOM      7  O   LIG d   1       3.339  83.166 111.371  0.00  0.00    -0.368 OA
BRANCH   7   8
ATOM      8  C   LIG d   1       3.047  82.428 110.160  0.00  0.00     0.119 C 
BRANCH   8   9
ATOM      9  C   LIG d   1       4.169  81.390 109.968  0.00  0.00     0.028 C 
ATOM     10  C   LIG d   1       3.682  80.127 109.237  0.00  0.00     0.006 C 
ENDBRANCH   8   9
BRANCH   8  11
ATOM     11  C   LIG d   1       3.115  83.332 108.925  0.00  0.00     0.028 C 
ATOM     12  C   LIG d   1       1.733  83.617 108.317  0.00  0.00     0.006 C 
ENDBRANCH   8  11
ENDBRANCH   7   8
ENDBRANCH   1   7
BRANCH   6  13
ATOM     13  N   LIG d   1       2.738  85.916 112.448  0.00  0.00    -0.311 N 
ATOM     14  C   LIG d   1       3.082  87.085 111.910  0.00  0.00     0.210 C 
ATOM     15  C   LIG d   1       4.122  87.882 112.704  0.00  0.00     0.109 C 
ATOM     16  O   LIG d   1       2.600  87.552 110.867  0.00  0.00    -0.276 OA
ATOM     17  H   LIG d   1       3.155  85.630 113.313  0.00  0.00     0.149 HD
ENDBRANCH   6  13
BRANCH   5  18
ATOM     18  N   LIG d   1      -0.185  86.586 111.867  0.00  0.00     0.381 N 
ATOM     19  H   LIG d   1       0.299  86.885 111.044  0.00  0.00    -0.090 HD
ATOM     20  H   LIG d   1       0.001  87.249 112.600  0.00  0.00    -0.090 HD
ATOM     21  H   LIG d   1      -1.164  86.544 111.689  0.00  0.00    -0.090 HD
ENDBRANCH   5  18
BRANCH   3  22
ATOM     22  C   LIG d   1      -1.129  81.892 111.976  0.00  0.00     0.382 C 
ATOM     23  O   LIG d   1      -0.858  80.732 111.582  0.00  0.00    -0.241 OA
ATOM     24  O   LIG d   1      -2.272  82.143 112.402  0.00  0.00    -0.241 OA
ENDBRANCH   3  22
TORSDOF 7
ENDMDL
MODEL 3
REMARK VINA RESULT:      -6.4      2.586      4.281
REMARK  7 active torsions:
REMARK  status: ('A' for Active; 'I' for Inactive)
REMARK    1  A    between atoms: C_2  and  C_3 
REMARK    2  A    between atoms: C_3  and  O_6 
REMARK    3  A    between atoms: C_3  and  C_4 
REMARK    4  A    between atoms: C_7  and  O_6 
REMARK    5  A    between atoms: C_9  and  C_10 
REMARK    6  A    between atoms: N_15  and  C_14 
REMARK    7  A    between atoms: N_20  and  C_19 
REMARK       I    between atoms: C_22  and  N_20 
ROOT
ATOM      1  C   LIG d   1       0.342  82.097 111.169  0.00  0.00     0.161 C 
ATOM      2  C   LIG d   1      -0.813  81.911 111.947  0.00  0.00     0.016 C 
ATOM      3  C   LIG d   1      -1.482  80.671 112.062  0.00  0.00     0.038 C 
ATOM      4  C   LIG d   1      -0.950  79.489 111.524  0.00  0.00     0.028 C 
ATOM      5  C   LIG d   1      -0.057  79.724 110.311  0.00  0.00    -0.047 C 
ATOM      6  C   LIG d   1       0.999  80.795 110.665  0.00  0.00     0.091 C 
ENDROOT
BRANCH   1   7
ATOM      7  O   LIG d   1       1.299  82.892 111.898  0.00  0.00    -0.368 OA
BRANCH   7   8
ATOM      8  C   LIG d   1       1.332  84.304 111.575  0.00  0.00     0.119 C 
BRANCH   8   9
ATOM      9  C   LIG d   1       0.773  84.466 110.149  0.00  0.00     0.028 C 
ATOM     10  C   LIG d   1      -0.359  85.505 110.076  0.00  0.00     0.006 C 
ENDBRANCH   8   9
BRANCH   8  11
ATOM     11  C   LIG d   1       2.770  84.827 111.510  0.00  0.00     0.028 C 
ATOM     12  C   LIG d   1       3.263  85.034 110.069  0.00  0.00     0.006 C 
ENDBRANCH   8  11
ENDBRANCH   7   8
ENDBRANCH   1   7
BRANCH   6  13
ATOM     13  N   LIG d   1       1.861  81.146 109.506  0.00  0.00    -0.311 N 
ATOM     14  C   LIG d   1       3.175  81.346 109.604  0.00  0.00     0.210 C 
ATOM     15  C   LIG d   1       3.871  81.718 108.291  0.00  0.00     0.109 C 
ATOM     16  O   LIG d   1       3.834  81.220 110.647  0.00  0.00    -0.276 OA
ATOM     17  H   LIG d   1       1.413  81.238 108.616  0.00  0.00     0.149 HD
ENDBRANCH   6  13
BRANCH   5  18
ATOM     18  N   LIG d   1       0.538  78.427 109.938  0.00  0.00     0.381 N 
ATOM     19  H   LIG d   1       1.019  78.036 110.723  0.00  0.00    -0.090 HD
ATOM     20  H   LIG d   1       1.204  78.575 109.200  0.00  0.00    -0.090 HD
ATOM     21  H   LIG d   1      -0.174  77.801 109.631  0.00  0.00    -0.090 HD
ENDBRANCH   5  18
BRANCH   3  22
ATOM     22  C   LIG d   1      -2.717  80.612 112.688  0.00  0.00     0.382 C 
ATOM     23  O   LIG d   1      -3.082  79.556 113.259  0.00  0.00    -0.241 OA
ATOM     24  O   LIG d   1      -3.491  81.587 112.652  0.00  0.00    -0.241 OA
ENDBRANCH   3  22
TORSDOF 7
ENDMDL
MODEL 4
REMARK VINA RESULT:      -6.3      2.556      4.890
REMARK  7 active torsions:
REMARK  status: ('A' for Active; 'I' for Inactive)
REMARK    1  A    between atoms: C_2  and  C_3 
REMARK    2  A    between atoms: C_3  and  O_6 
REMARK    3  A    between atoms: C_3  and  C_4 
REMARK    4  A    between atoms: C_7  and  O_6 
REMARK    5  A    between atoms: C_9  and  C_10 
REMARK    6  A    between atoms: N_15  and  C_14 
REMARK    7  A    between atoms: N_20  and  C_19 
REMARK       I    between atoms: C_22  and  N_20 
ROOT
ATOM      1  C   LIG d   1       1.068  81.581 112.166  0.00  0.00     0.161 C 
ATOM      2  C   LIG d   1       2.237  82.053 111.546  0.00  0.00     0.016 C 
ATOM      3  C   LIG d   1       2.502  81.898 110.166  0.00  0.00     0.038 C 
ATOM      4  C   LIG d   1       1.542  81.390 109.278  0.00  0.00     0.028 C 
ATOM      5  C   LIG d   1       0.548  80.441 109.939  0.00  0.00    -0.047 C 
ATOM      6  C   LIG d   1      -0.040  81.124 111.195  0.00  0.00     0.091 C 
ENDROOT
BRANCH   1   7
ATOM      7  O   LIG d   1       0.559  82.579 113.073  0.00  0.00    -0.368 OA
BRANCH   7   8
ATOM      8  C   LIG d   1       0.787  83.959 112.695  0.00  0.00     0.119 C 
BRANCH   8   9
ATOM      9  C   LIG d   1       1.204  84.724 113.967  0.00  0.00     0.028 C 
ATOM     10  C   LIG d   1       1.567  86.190 113.677  0.00  0.00     0.006 C 
ENDBRANCH   8   9
BRANCH   8  11
ATOM     11  C   LIG d   1      -0.506  84.630 112.225  0.00  0.00     0.028 C 
ATOM     12  C   LIG d   1      -0.580  84.775 110.696  0.00  0.00     0.006 C 
ENDBRANCH   8  11
ENDBRANCH   7   8
ENDBRANCH   1   7
BRANCH   6  13
ATOM     13  N   LIG d   1      -0.959  80.231 111.948  0.00  0.00    -0.311 N 
ATOM     14  C   LIG d   1      -2.098  80.647 112.499  0.00  0.00     0.210 C 
ATOM     15  C   LIG d   1      -2.886  79.568 113.248  0.00  0.00     0.109 C 
ATOM     16  O   LIG d   1      -2.547  81.800 112.410  0.00  0.00    -0.276 OA
ATOM     17  H   LIG d   1      -0.688  79.272 112.042  0.00  0.00     0.149 HD
ENDBRANCH   6  13
BRANCH   5  18
ATOM     18  N   LIG d   1      -0.475  80.096 108.935  0.00  0.00     0.381 N 
ATOM     19  H   LIG d   1      -0.845  80.932 108.527  0.00  0.00    -0.090 HD
ATOM     20  H   LIG d   1      -1.227  79.609 109.390  0.00  0.00    -0.090 HD
ATOM     21  H   LIG d   1      -0.077  79.521 108.226  0.00  0.00    -0.090 HD
ENDBRANCH   5  18
BRANCH   3  22
ATOM     22  C   LIG d   1       3.756  82.216 109.667  0.00  0.00     0.382 C 
ATOM     23  O   LIG d   1       4.664  82.592 110.448  0.00  0.00    -0.241 OA
ATOM     24  O   LIG d   1       3.979  82.175 108.443  0.00  0.00    -0.241 OA
ENDBRANCH   3  22
TORSDOF 7
ENDMDL
MODEL 5
REMARK VINA RESULT:      -5.9      2.141      4.258
REMARK  7 active torsions:
REMARK  status: ('A' for Active; 'I' for Inactive)
REMARK    1  A    between atoms: C_2  and  C_3 
REMARK    2  A    between atoms: C_3  and  O_6 
REMARK    3  A    between atoms: C_3  and  C_4 
REMARK    4  A    between atoms: C_7  and  O_6 
REMARK    5  A    between atoms: C_9  and  C_10 
REMARK    6  A    between atoms: N_15  and  C_14 
REMARK    7  A    between atoms: N_20  and  C_19 
REMARK       I    between atoms: C_22  and  N_20 
ROOT
ATOM      1  C   LIG d   1       0.301  82.688 111.454  0.00  0.00     0.161 C 
ATOM      2  C   LIG d   1      -0.548  83.712 111.904  0.00  0.00     0.016 C 
ATOM      3  C   LIG d   1      -0.339  85.080 111.614  0.00  0.00     0.038 C 
ATOM      4  C   LIG d   1       0.657  85.505 110.722  0.00  0.00     0.028 C 
ATOM      5  C   LIG d   1       1.847  84.555 110.646  0.00  0.00    -0.047 C 
ATOM      6  C   LIG d   1       1.329  83.122 110.388  0.00  0.00     0.091 C 
ENDROOT
BRANCH   1   7
ATOM      7  O   LIG d   1      -0.483  81.579 110.972  0.00  0.00    -0.368 OA
BRANCH   7   8
ATOM      8  C   LIG d   1      -0.110  80.270 111.469  0.00  0.00     0.119 C 
BRANCH   8   9
ATOM      9  C   LIG d   1      -0.469  79.242 110.379  0.00  0.00     0.028 C 
ATOM     10  C   LIG d   1      -0.052  79.705 108.973  0.00  0.00     0.006 C 
ENDBRANCH   8   9
BRANCH   8  11
ATOM     11  C   LIG d   1      -0.948  79.878 112.689  0.00  0.00     0.028 C 
ATOM     12  C   LIG d   1      -2.408  79.559 112.332  0.00  0.00     0.006 C 
ENDBRANCH   8  11
ENDBRANCH   7   8
ENDBRANCH   1   7
BRANCH   6  13
ATOM     13  N   LIG d   1       2.423  82.116 110.383  0.00  0.00    -0.311 N 
ATOM     14  C   LIG d   1       3.057  81.727 109.278  0.00  0.00     0.210 C 
ATOM     15  C   LIG d   1       4.140  80.665 109.493  0.00  0.00     0.109 C 
ATOM     16  O   LIG d   1       2.847  82.184 108.145  0.00  0.00    -0.276 OA
ATOM     17  H   LIG d   1       2.680  81.716 111.265  0.00  0.00     0.149 HD
ENDBRANCH   6  13
BRANCH   5  18
ATOM     18  N   LIG d   1       2.742  85.046 109.582  0.00  0.00     0.381 N 
ATOM     19  H   LIG d   1       3.107  84.273 109.062  0.00  0.00    -0.090 HD
ATOM     20  H   LIG d   1       3.513  85.534 110.004  0.00  0.00    -0.090 HD
ATOM     21  H   LIG d   1       2.245  85.659 108.974  0.00  0.00    -0.090 HD
ENDBRANCH   5  18
BRANCH   3  22
ATOM     22  C   LIG d   1      -1.107  86.043 112.251  0.00  0.00     0.382 C 
ATOM     23  O   LIG d   1      -1.690  86.926 111.577  0.00  0.00    -0.241 OA
ATOM     24  O   LIG d   1      -1.188  86.066 113.494  0.00  0.00    -0.241 OA
ENDBRANCH   3  22
TORSDOF 7
ENDMDL
MODEL 6
REMARK VINA RESULT:      -5.8      1.996      2.628
REMARK  7 active torsions:
REMARK  status: ('A' for Active; 'I' for Inactive)
REMARK    1  A    between atoms: C_2  and  C_3 
REMARK    2  A    between atoms: C_3  and  O_6 
REMARK    3  A    between atoms: C_3  and  C_4 
REMARK    4  A    between atoms: C_7  and  O_6 
REMARK    5  A    between atoms: C_9  and  C_10 
REMARK    6  A    between atoms: N_15  and  C_14 
REMARK    7  A    between atoms: N_20  and  C_19 
REMARK       I    between atoms: C_22  and  N_20 
ROOT
ATOM      1  C   LIG d   1       2.256  83.840 110.420  0.00  0.00     0.161 C 
ATOM      2  C   LIG d   1       2.269  85.242 110.517  0.00  0.00     0.016 C 
ATOM      3  C   LIG d   1       1.902  85.945 111.687  0.00  0.00     0.038 C 
ATOM      4  C   LIG d   1       1.639  85.285 112.897  0.00  0.00     0.028 C 
ATOM      5  C   LIG d   1       1.123  83.862 112.710  0.00  0.00    -0.047 C 
ATOM      6  C   LIG d   1       2.079  83.101 111.763  0.00  0.00     0.091 C 
ENDROOT
BRANCH   1   7
ATOM      7  O   LIG d   1       3.449  83.385 109.751  0.00  0.00    -0.368 OA
BRANCH   7   8
ATOM      8  C   LIG d   1       3.275  82.901 108.397  0.00  0.00     0.119 C 
BRANCH   8   9
ATOM      9  C   LIG d   1       1.786  83.067 108.034  0.00  0.00     0.028 C 
ATOM     10  C   LIG d   1       1.585  83.849 106.725  0.00  0.00     0.006 C 
ENDBRANCH   8   9
BRANCH   8  11
ATOM     11  C   LIG d   1       3.550  81.398 108.303  0.00  0.00     0.028 C 
ATOM     12  C   LIG d   1       4.269  80.845 109.543  0.00  0.00     0.006 C 
ENDBRANCH   8  11
ENDBRANCH   7   8
ENDBRANCH   1   7
BRANCH   6  13
ATOM     13  N   LIG d   1       1.601  81.727 111.460  0.00  0.00    -0.311 N 
ATOM     14  C   LIG d   1       0.384  81.460 110.990  0.00  0.00     0.210 C 
ATOM     15  C   LIG d   1       0.089  79.974 110.765  0.00  0.00     0.109 C 
ATOM     16  O   LIG d   1      -0.468  82.316 110.707  0.00  0.00    -0.276 OA
ATOM     17  H   LIG d   1       2.240  80.974 111.631  0.00  0.00     0.149 HD
ENDBRANCH   6  13
BRANCH   5  18
ATOM     18  N   LIG d   1       1.022  83.246 114.047  0.00  0.00     0.381 N 
ATOM     19  H   LIG d   1       1.565  82.406 114.074  0.00  0.00    -0.090 HD
ATOM     20  H   LIG d   1       0.062  83.006 114.223  0.00  0.00    -0.090 HD
ATOM     21  H   LIG d   1       1.346  83.883 114.741  0.00  0.00    -0.090 HD
ENDBRANCH   5  18
BRANCH   3  22
ATOM     22  C   LIG d   1       1.756  87.323 111.644  0.00  0.00     0.382 C 
ATOM     23  O   LIG d   1       2.765  88.057 111.512  0.00  0.00    -0.241 OA
ATOM     24  O   LIG d   1       0.633  87.844 111.779  0.00  0.00    -0.241 OA
ENDBRANCH   3  22
TORSDOF 7
ENDMDL
MODEL 7
REMARK VINA RESULT:      -5.7      2.110      3.016
REMARK  7 active torsions:
REMARK  status: ('A' for Active; 'I' for Inactive)
REMARK    1  A    between atoms: C_2  and  C_3 
REMARK    2  A    between atoms: C_3  and  O_6 
REMARK    3  A    between atoms: C_3  and  C_4 
REMARK    4  A    between atoms: C_7  and  O_6 
REMARK    5  A    between atoms: C_9  and  C_10 
REMARK    6  A    between atoms: N_15  and  C_14 
REMARK    7  A    between atoms: N_20  and  C_19 
REMARK       I    between atoms: C_22  and  N_20 
ROOT
ATOM      1  C   LIG d   1       0.545  82.856 110.470  0.00  0.00     0.161 C 
ATOM      2  C   LIG d   1       0.907  84.188 110.209  0.00  0.00     0.016 C 
ATOM      3  C   LIG d   1       1.356  85.082 111.208  0.00  0.00     0.038 C 
ATOM      4  C   LIG d   1       1.619  84.657 112.519  0.00  0.00     0.028 C 
ATOM      5  C   LIG d   1       0.789  83.450 112.943  0.00  0.00    -0.047 C 
ATOM      6  C   LIG d   1       0.931  82.343 111.873  0.00  0.00     0.091 C 
ENDROOT
BRANCH   1   7
ATOM      7  O   LIG d   1       1.092  81.993 109.453  0.00  0.00    -0.368 OA
BRANCH   7   8
ATOM      8  C   LIG d   1       2.339  81.333 109.781  0.00  0.00     0.119 C 
BRANCH   8   9
ATOM      9  C   LIG d   1       3.446  81.989 108.934  0.00  0.00     0.028 C 
ATOM     10  C   LIG d   1       4.379  82.877 109.774  0.00  0.00     0.006 C 
ENDBRANCH   8   9
BRANCH   8  11
ATOM     11  C   LIG d   1       2.320  79.862 109.355  0.00  0.00     0.028 C 
ATOM     12  C   LIG d   1       0.902  79.268 109.328  0.00  0.00     0.006 C 
ENDBRANCH   8  11
ENDBRANCH   7   8
ENDBRANCH   1   7
BRANCH   6  13
ATOM     13  N   LIG d   1       0.084  81.158 112.168  0.00  0.00    -0.311 N 
ATOM     14  C   LIG d   1      -1.237  81.223 112.331  0.00  0.00     0.210 C 
ATOM     15  C   LIG d   1      -1.915  79.887 112.649  0.00  0.00     0.109 C 
ATOM     16  O   LIG d   1      -1.914  82.255 112.211  0.00  0.00    -0.276 OA
ATOM     17  H   LIG d   1       0.548  80.275 112.252  0.00  0.00     0.149 HD
ENDBRANCH   6  13
BRANCH   5  18
ATOM     18  N   LIG d   1       1.262  83.030 114.276  0.00  0.00     0.381 N 
ATOM     19  H   LIG d   1       2.250  82.874 114.251  0.00  0.00    -0.090 HD
ATOM     20  H   LIG d   1       0.812  82.166 114.523  0.00  0.00    -0.090 HD
ATOM     21  H   LIG d   1       1.046  83.731 114.951  0.00  0.00    -0.090 HD
ENDBRANCH   5  18
BRANCH   3  22
ATOM     22  C   LIG d   1       1.509  86.427 110.908  0.00  0.00     0.382 C 
ATOM     23  O   LIG d   1       0.641  87.254 111.278  0.00  0.00    -0.241 OA
ATOM     24  O   LIG d   1       2.481  86.818 110.235  0.00  0.00    -0.241 OA
ENDBRANCH   3  22
TORSDOF 7
ENDMDL
MODEL 8
REMARK VINA RESULT:      -5.6      1.963      5.148
REMARK  7 active torsions:
REMARK  status: ('A' for Active; 'I' for Inactive)
REMARK    1  A    between atoms: C_2  and  C_3 
REMARK    2  A    between atoms: C_3  and  O_6 
REMARK    3  A    between atoms: C_3  and  C_4 
REMARK    4  A    between atoms: C_7  and  O_6 
REMARK    5  A    between atoms: C_9  and  C_10 
REMARK    6  A    between atoms: N_15  and  C_14 
REMARK    7  A    between atoms: N_20  and  C_19 
REMARK       I    between atoms: C_22  and  N_20 
ROOT
ATOM      1  C   LIG d   1       1.744  82.506 110.180  0.00  0.00     0.161 C 
ATOM      2  C   LIG d   1       1.924  81.319 109.449  0.00  0.00     0.016 C 
ATOM      3  C   LIG d   1       1.337  80.085 109.812  0.00  0.00     0.038 C 
ATOM      4  C   LIG d   1       0.403  79.986 110.854  0.00  0.00     0.028 C 
ATOM      5  C   LIG d   1       0.580  81.052 111.930  0.00  0.00    -0.047 C 
ATOM      6  C   LIG d   1       0.638  82.442 111.254  0.00  0.00     0.091 C 
ENDROOT
BRANCH   1   7
ATOM      7  O   LIG d   1       1.502  83.603 109.277  0.00  0.00    -0.368 OA
BRANCH   7   8
ATOM      8  C   LIG d   1       2.454  84.694 109.332  0.00  0.00     0.119 C 
BRANCH   8   9
ATOM      9  C   LIG d   1       3.486  84.354 110.425  0.00  0.00     0.028 C 
ATOM     10  C   LIG d   1       3.715  85.522 111.399  0.00  0.00     0.006 C 
ENDBRANCH   8   9
BRANCH   8  11
ATOM     11  C   LIG d   1       1.787  85.993 109.795  0.00  0.00     0.028 C 
ATOM     12  C   LIG d   1       0.264  85.989 109.583  0.00  0.00     0.006 C 
ENDBRANCH   8  11
ENDBRANCH   7   8
ENDBRANCH   1   7
BRANCH   6  13
ATOM     13  N   LIG d   1       0.895  83.535 112.228  0.00  0.00    -0.311 N 
ATOM     14  C   LIG d   1      -0.069  84.288 112.755  0.00  0.00     0.210 C 
ATOM     15  C   LIG d   1       0.414  85.373 113.723  0.00  0.00     0.109 C 
ATOM     16  O   LIG d   1      -1.281  84.141 112.536  0.00  0.00    -0.276 OA
ATOM     17  H   LIG d   1       1.848  83.703 112.485  0.00  0.00     0.149 HD
ENDBRANCH   6  13
BRANCH   5  18
ATOM     18  N   LIG d   1      -0.541  80.918 112.879  0.00  0.00     0.381 N 
ATOM     19  H   LIG d   1      -1.311  81.481 112.576  0.00  0.00    -0.090 HD
ATOM     20  H   LIG d   1      -0.245  81.247 113.781  0.00  0.00    -0.090 HD
ATOM     21  H   LIG d   1      -0.822  79.964 112.942  0.00  0.00    -0.090 HD
ENDBRANCH   5  18
BRANCH   3  22
ATOM     22  C   LIG d   1       1.716  78.924 109.155  0.00  0.00     0.382 C 
ATOM     23  O   LIG d   1       1.298  77.812 109.556  0.00  0.00    -0.241 OA
ATOM     24  O   LIG d   1       2.507  78.972 108.193  0.00  0.00    -0.241 OA
ENDBRANCH   3  22
TORSDOF 7
ENDMDL
MODEL 9
REMARK VINA RESULT:      -5.6      2.354      4.840
REMARK  7 active torsions:
REMARK  status: ('A' for Active; 'I' for Inactive)
REMARK    1  A    between atoms: C_2  and  C_3 
REMARK    2  A    between atoms: C_3  and  O_6 
REMARK    3  A    between atoms: C_3  and  C_4 
REMARK    4  A    between atoms: C_7  and  O_6 
REMARK    5  A    between atoms: C_9  and  C_10 
REMARK    6  A    between atoms: N_15  and  C_14 
REMARK    7  A    between atoms: N_20  and  C_19 
REMARK       I    between atoms: C_22  and  N_20 
ROOT
ATOM      1  C   LIG d   1       0.528  82.309 110.837  0.00  0.00     0.161 C 
ATOM      2  C   LIG d   1       1.322  82.840 109.806  0.00  0.00     0.016 C 
ATOM      3  C   LIG d   1       1.941  82.045 108.814  0.00  0.00     0.038 C 
ATOM      4  C   LIG d   1       1.684  80.671 108.696  0.00  0.00     0.028 C 
ATOM      5  C   LIG d   1       1.293  80.013 110.015  0.00  0.00    -0.047 C 
ATOM      6  C   LIG d   1       0.145  80.825 110.660  0.00  0.00     0.091 C 
ENDROOT
BRANCH   1   7
ATOM      7  O   LIG d   1      -0.655  83.115 111.006  0.00  0.00    -0.368 OA
BRANCH   7   8
ATOM      8  C   LIG d   1      -0.579  84.156 112.011  0.00  0.00     0.119 C 
BRANCH   8   9
ATOM      9  C   LIG d   1      -0.040  85.425 111.322  0.00  0.00     0.028 C 
ATOM     10  C   LIG d   1      -1.148  86.454 111.039  0.00  0.00     0.006 C 
ENDBRANCH   8   9
BRANCH   8  11
ATOM     11  C   LIG d   1       0.451  83.813 113.092  0.00  0.00     0.028 C 
ATOM     12  C   LIG d   1       1.493  84.924 113.296  0.00  0.00     0.006 C 
ENDBRANCH   8  11
ENDBRANCH   7   8
ENDBRANCH   1   7
BRANCH   6  13
ATOM     13  N   LIG d   1      -0.241  80.298 111.994  0.00  0.00    -0.311 N 
ATOM     14  C   LIG d   1      -1.244  79.441 112.182  0.00  0.00     0.210 C 
ATOM     15  C   LIG d   1      -1.487  79.040 113.640  0.00  0.00     0.109 C 
ATOM     16  O   LIG d   1      -1.934  78.951 111.276  0.00  0.00    -0.276 OA
ATOM     17  H   LIG d   1       0.286  80.619 112.782  0.00  0.00     0.149 HD
ENDBRANCH   6  13
BRANCH   5  18
ATOM     18  N   LIG d   1       0.920  78.617 109.723  0.00  0.00     0.381 N 
ATOM     19  H   LIG d   1       1.726  78.029 109.795  0.00  0.00    -0.090 HD
ATOM     20  H   LIG d   1       0.573  78.563 108.781  0.00  0.00    -0.090 HD
ATOM     21  H   LIG d   1       0.218  78.310 110.361  0.00  0.00    -0.090 HD
ENDBRANCH   5  18
BRANCH   3  22
ATOM     22  C   LIG d   1       2.861  82.619 107.949  0.00  0.00     0.382 C 
ATOM     23  O   LIG d   1       2.476  83.119 106.865  0.00  0.00    -0.241 OA
ATOM     24  O   LIG d   1       4.077  82.604 108.220  0.00  0.00    -0.241 OA
ENDBRANCH   3  22
TORSDOF 7
ENDMDL
