MODEL 1
REMARK VINA RESULT:      -6.3      0.000      0.000
REMARK  7 active torsions:
REMARK  status: ('A' for Active; 'I' for Inactive)
REMARK    1  A    between atoms: C_2  and  C_3 
REMARK    2  A    between atoms: C_3  and  O_6 
REMARK    3  A    between atoms: C_3  and  C_4 
REMARK    4  A    between atoms: C_7  and  O_6 
REMARK    5  A    between atoms: C_9  and  C_10 
REMARK    6  A    between atoms: N_15  and  C_14 
REMARK    7  A    between atoms: N_20  and  C_19 
REMARK       I    between atoms: C_22  and  N_20 
ROOT
ATOM      1  C   LIG d   1       1.892  83.182 111.745  0.00  0.00     0.161 C 
ATOM      2  C   LIG d   1       2.863  82.941 110.759  0.00  0.00     0.016 C 
ATOM      3  C   LIG d   1       2.818  81.836 109.877  0.00  0.00     0.038 C 
ATOM      4  C   LIG d   1       1.711  80.976 109.822  0.00  0.00     0.028 C 
ATOM      5  C   LIG d   1       0.948  80.887 111.139  0.00  0.00    -0.047 C 
ATOM      6  C   LIG d   1       0.621  82.316 111.627  0.00  0.00     0.091 C 
ENDROOT
BRANCH   1   7
ATOM      7  O   LIG d   1       1.546  84.581 111.758  0.00  0.00    -0.368 OA
BRANCH   7   8
ATOM      8  C   LIG d   1       1.884  85.333 110.566  0.00  0.00     0.119 C 
BRANCH   8   9
ATOM      9  C   LIG d   1       2.407  86.709 111.019  0.00  0.00     0.028 C 
ATOM     10  C   LIG d   1       3.859  86.648 111.525  0.00  0.00     0.006 C 
ENDBRANCH   8   9
BRANCH   8  11
ATOM     11  C   LIG d   1       0.640  85.629 109.724  0.00  0.00     0.028 C 
ATOM     12  C   LIG d   1      -0.601  85.931 110.579  0.00  0.00     0.006 C 
ENDBRANCH   8  11
ENDBRANCH   7   8
ENDBRANCH   1   7
BRANCH   6  13
ATOM     13  N   LIG d   1      -0.052  82.323 112.952  0.00  0.00    -0.311 N 
ATOM     14  C   LIG d   1      -1.376  82.319 113.103  0.00  0.00     0.210 C 
ATOM     15  C   LIG d   1      -1.862  82.348 114.555  0.00  0.00     0.109 C 
ATOM     16  O   LIG d   1      -2.193  82.262 112.171  0.00  0.00    -0.276 OA
ATOM     17  H   LIG d   1       0.536  82.338 113.763  0.00  0.00     0.149 HD
ENDBRANCH   6  13
BRANCH   5  18
ATOM     18  N   LIG d   1      -0.255  80.067 110.902  0.00  0.00     0.381 N 
ATOM     19  H   LIG d   1      -0.484  79.554 111.730  0.00  0.00    -0.090 HD
ATOM     20  H   LIG d   1      -0.061  79.410 110.168  0.00  0.00    -0.090 HD
ATOM     21  H   LIG d   1      -1.020  80.651 110.643  0.00  0.00    -0.090 HD
ENDBRANCH   5  18
BRANCH   3  22
ATOM     22  C   LIG d   1       3.907  81.561 109.064  0.00  0.00     0.382 C 
ATOM     23  O   LIG d   1       4.272  82.395 108.201  0.00  0.00    -0.241 OA
ATOM     24  O   LIG d   1       4.502  80.470 109.153  0.00  0.00    -0.241 OA
ENDBRANCH   3  22
TORSDOF 7
ENDMDL
MODEL 2
REMARK VINA RESULT:      -6.1      2.247      5.469
REMARK  7 active torsions:
REMARK  status: ('A' for Active; 'I' for Inactive)
REMARK    1  A    between atoms: C_2  and  C_3 
REMARK    2  A    between atoms: C_3  and  O_6 
REMARK    3  A    between atoms: C_3  and  C_4 
REMARK    4  A    between atoms: C_7  and  O_6 
REMARK    5  A    between atoms: C_9  and  C_10 
REMARK    6  A    between atoms: N_15  and  C_14 
REMARK    7  A    between atoms: N_20  and  C_19 
REMARK       I    between atoms: C_22  and  N_20 
ROOT
ATOM      1  C   LIG d   1       1.650  82.516 111.635  0.00  0.00     0.161 C 
ATOM      2  C   LIG d   1       0.529  81.718 111.914  0.00  0.00     0.016 C 
ATOM      3  C   LIG d   1      -0.726  82.245 112.298  0.00  0.00     0.038 C 
ATOM      4  C   LIG d   1      -0.987  83.623 112.282  0.00  0.00     0.028 C 
ATOM      5  C   LIG d   1       0.257  84.478 112.495  0.00  0.00    -0.047 C 
ATOM      6  C   LIG d   1       1.353  84.025 111.504  0.00  0.00     0.091 C 
ENDROOT
BRANCH   1   7
ATOM      7  O   LIG d   1       2.312  82.031 110.450  0.00  0.00    -0.368 OA
BRANCH   7   8
ATOM      8  C   LIG d   1       3.539  81.290 110.663  0.00  0.00     0.119 C 
BRANCH   8   9
ATOM      9  C   LIG d   1       4.703  82.169 110.168  0.00  0.00     0.028 C 
ATOM     10  C   LIG d   1       4.338  82.974 108.910  0.00  0.00     0.006 C 
ENDBRANCH   8   9
BRANCH   8  11
ATOM     11  C   LIG d   1       3.585  80.028 109.796  0.00  0.00     0.028 C 
ATOM     12  C   LIG d   1       2.209  79.642 109.231  0.00  0.00     0.006 C 
ENDBRANCH   8  11
ENDBRANCH   7   8
ENDBRANCH   1   7
BRANCH   6  13
ATOM     13  N   LIG d   1       2.633  84.754 111.702  0.00  0.00    -0.311 N 
ATOM     14  C   LIG d   1       2.924  85.904 111.095  0.00  0.00     0.210 C 
ATOM     15  C   LIG d   1       4.306  86.477 111.423  0.00  0.00     0.109 C 
ATOM     16  O   LIG d   1       2.155  86.519 110.341  0.00  0.00    -0.276 OA
ATOM     17  H   LIG d   1       3.302  84.341 112.322  0.00  0.00     0.149 HD
ENDBRANCH   6  13
BRANCH   5  18
ATOM     18  N   LIG d   1      -0.136  85.889 112.317  0.00  0.00     0.381 N 
ATOM     19  H   LIG d   1       0.488  86.336 111.675  0.00  0.00    -0.090 HD
ATOM     20  H   LIG d   1      -0.067  86.359 113.202  0.00  0.00    -0.090 HD
ATOM     21  H   LIG d   1      -1.070  85.942 111.976  0.00  0.00    -0.090 HD
ENDBRANCH   5  18
BRANCH   3  22
ATOM     22  C   LIG d   1      -1.723  81.390 112.742  0.00  0.00     0.382 C 
ATOM     23  O   LIG d   1      -1.423  80.264 113.207  0.00  0.00    -0.241 OA
ATOM     24  O   LIG d   1      -2.922  81.713 112.643  0.00  0.00    -0.241 OA
ENDBRANCH   3  22
TORSDOF 7
ENDMDL
MODEL 3
REMARK VINA RESULT:      -6.1      1.665      4.903
REMARK  7 active torsions:
REMARK  status: ('A' for Active; 'I' for Inactive)
REMARK    1  A    between atoms: C_2  and  C_3 
REMARK    2  A    between atoms: C_3  and  O_6 
REMARK    3  A    between atoms: C_3  and  C_4 
REMARK    4  A    between atoms: C_7  and  O_6 
REMARK    5  A    between atoms: C_9  and  C_10 
REMARK    6  A    between atoms: N_15  and  C_14 
REMARK    7  A    between atoms: N_20  and  C_19 
REMARK       I    between atoms: C_22  and  N_20 
ROOT
ATOM      1  C   LIG d   1       0.704  83.230 111.823  0.00  0.00     0.161 C 
ATOM      2  C   LIG d   1      -0.494  82.934 112.496  0.00  0.00     0.016 C 
ATOM      3  C   LIG d   1      -1.119  81.667 112.449  0.00  0.00     0.038 C 
ATOM      4  C   LIG d   1      -0.505  80.559 111.846  0.00  0.00     0.028 C 
ATOM      5  C   LIG d   1       0.459  80.935 110.727  0.00  0.00    -0.047 C 
ATOM      6  C   LIG d   1       1.445  82.004 111.252  0.00  0.00     0.091 C 
ENDROOT
BRANCH   1   7
ATOM      7  O   LIG d   1       1.576  83.985 112.688  0.00  0.00    -0.368 OA
BRANCH   7   8
ATOM      8  C   LIG d   1       1.547  85.424 112.524  0.00  0.00     0.119 C 
BRANCH   8   9
ATOM      9  C   LIG d   1       0.958  85.719 111.131  0.00  0.00     0.028 C 
ATOM     10  C   LIG d   1      -0.342  86.538 111.205  0.00  0.00     0.006 C 
ENDBRANCH   8   9
BRANCH   8  11
ATOM     11  C   LIG d   1       2.962  86.010 112.498  0.00  0.00     0.028 C 
ATOM     12  C   LIG d   1       3.605  85.954 111.104  0.00  0.00     0.006 C 
ENDBRANCH   8  11
ENDBRANCH   7   8
ENDBRANCH   1   7
BRANCH   6  13
ATOM     13  N   LIG d   1       2.370  82.489 110.195  0.00  0.00    -0.311 N 
ATOM     14  C   LIG d   1       3.689  82.307 110.235  0.00  0.00     0.210 C 
ATOM     15  C   LIG d   1       4.460  82.905 109.054  0.00  0.00     0.109 C 
ATOM     16  O   LIG d   1       4.290  81.679 111.119  0.00  0.00    -0.276 OA
ATOM     17  H   LIG d   1       1.964  82.983 109.424  0.00  0.00     0.149 HD
ENDBRANCH   6  13
BRANCH   5  18
ATOM     18  N   LIG d   1       1.129  79.699 110.281  0.00  0.00     0.381 N 
ATOM     19  H   LIG d   1       2.104  79.875 110.138  0.00  0.00    -0.090 HD
ATOM     20  H   LIG d   1       0.729  79.410 109.406  0.00  0.00    -0.090 HD
ATOM     21  H   LIG d   1       1.010  78.982 110.962  0.00  0.00    -0.090 HD
ENDBRANCH   5  18
BRANCH   3  22
ATOM     22  C   LIG d   1      -2.391  81.509 112.977  0.00  0.00     0.382 C 
ATOM     23  O   LIG d   1      -3.088  80.518 112.648  0.00  0.00    -0.241 OA
ATOM     24  O   LIG d   1      -2.868  82.367 113.744  0.00  0.00    -0.241 OA
ENDBRANCH   3  22
TORSDOF 7
ENDMDL
MODEL 4
REMARK VINA RESULT:      -5.7      2.389      4.996
REMARK  7 active torsions:
REMARK  status: ('A' for Active; 'I' for Inactive)
REMARK    1  A    between atoms: C_2  and  C_3 
REMARK    2  A    between atoms: C_3  and  O_6 
REMARK    3  A    between atoms: C_3  and  C_4 
REMARK    4  A    between atoms: C_7  and  O_6 
REMARK    5  A    between atoms: C_9  and  C_10 
REMARK    6  A    between atoms: N_15  and  C_14 
REMARK    7  A    between atoms: N_20  and  C_19 
REMARK       I    between atoms: C_22  and  N_20 
ROOT
ATOM      1  C   LIG d   1       2.714  83.498 111.963  0.00  0.00     0.161 C 
ATOM      2  C   LIG d   1       2.624  84.870 112.252  0.00  0.00     0.016 C 
ATOM      3  C   LIG d   1       2.177  85.834 111.319  0.00  0.00     0.038 C 
ATOM      4  C   LIG d   1       1.643  85.469 110.074  0.00  0.00     0.028 C 
ATOM      5  C   LIG d   1       2.183  84.143 109.548  0.00  0.00    -0.047 C 
ATOM      6  C   LIG d   1       2.031  83.068 110.648  0.00  0.00     0.091 C 
ENDROOT
BRANCH   1   7
ATOM      7  O   LIG d   1       2.199  82.731 113.069  0.00  0.00    -0.368 OA
BRANCH   7   8
ATOM      8  C   LIG d   1       0.764  82.537 113.097  0.00  0.00     0.119 C 
BRANCH   8   9
ATOM      9  C   LIG d   1       0.216  83.309 114.314  0.00  0.00     0.028 C 
ATOM     10  C   LIG d   1      -0.652  84.510 113.904  0.00  0.00     0.006 C 
ENDBRANCH   8   9
BRANCH   8  11
ATOM     11  C   LIG d   1       0.404  81.071 113.352  0.00  0.00     0.028 C 
ATOM     12  C   LIG d   1      -0.814  80.606 112.538  0.00  0.00     0.006 C 
ENDBRANCH   8  11
ENDBRANCH   7   8
ENDBRANCH   1   7
BRANCH   6  13
ATOM     13  N   LIG d   1       2.612  81.760 110.246  0.00  0.00    -0.311 N 
ATOM     14  C   LIG d   1       1.898  80.778 109.699  0.00  0.00     0.210 C 
ATOM     15  C   LIG d   1       2.689  79.505 109.379  0.00  0.00     0.109 C 
ATOM     16  O   LIG d   1       0.693  80.851 109.419  0.00  0.00    -0.276 OA
ATOM     17  H   LIG d   1       3.591  81.626 110.409  0.00  0.00     0.149 HD
ENDBRANCH   6  13
BRANCH   5  18
ATOM     18  N   LIG d   1       1.443  83.818 108.315  0.00  0.00     0.381 N 
ATOM     19  H   LIG d   1       0.486  84.095 108.411  0.00  0.00    -0.090 HD
ATOM     20  H   LIG d   1       1.470  82.823 108.172  0.00  0.00    -0.090 HD
ATOM     21  H   LIG d   1       1.855  84.284 107.537  0.00  0.00    -0.090 HD
ENDBRANCH   5  18
BRANCH   3  22
ATOM     22  C   LIG d   1       2.300  87.183 111.613  0.00  0.00     0.382 C 
ATOM     23  O   LIG d   1       3.433  87.722 111.623  0.00  0.00    -0.241 OA
ATOM     24  O   LIG d   1       1.296  87.858 111.912  0.00  0.00    -0.241 OA
ENDBRANCH   3  22
TORSDOF 7
ENDMDL
MODEL 5
REMARK VINA RESULT:      -4.5      2.521      6.013
REMARK  7 active torsions:
REMARK  status: ('A' for Active; 'I' for Inactive)
REMARK    1  A    between atoms: C_2  and  C_3 
REMARK    2  A    between atoms: C_3  and  O_6 
REMARK    3  A    between atoms: C_3  and  C_4 
REMARK    4  A    between atoms: C_7  and  O_6 
REMARK    5  A    between atoms: C_9  and  C_10 
REMARK    6  A    between atoms: N_15  and  C_14 
REMARK    7  A    between atoms: N_20  and  C_19 
REMARK       I    between atoms: C_22  and  N_20 
ROOT
ATOM      1  C   LIG d   1       1.529  83.330 112.026  0.00  0.00     0.161 C 
ATOM      2  C   LIG d   1       0.607  83.998 112.849  0.00  0.00     0.016 C 
ATOM      3  C   LIG d   1      -0.052  85.190 112.472  0.00  0.00     0.038 C 
ATOM      4  C   LIG d   1       0.053  85.717 111.176  0.00  0.00     0.028 C 
ATOM      5  C   LIG d   1       1.362  85.358 110.480  0.00  0.00    -0.047 C 
ATOM      6  C   LIG d   1       1.573  83.829 110.566  0.00  0.00     0.091 C 
ENDROOT
BRANCH   1   7
ATOM      7  O   LIG d   1       1.279  81.911 112.063  0.00  0.00    -0.368 OA
BRANCH   7   8
ATOM      8  C   LIG d   1       0.078  81.458 111.392  0.00  0.00     0.119 C 
BRANCH   8   9
ATOM      9  C   LIG d   1      -0.730  80.622 112.403  0.00  0.00     0.028 C 
ATOM     10  C   LIG d   1      -0.033  80.520 113.770  0.00  0.00     0.006 C 
ENDBRANCH   8   9
BRANCH   8  11
ATOM     11  C   LIG d   1       0.409  80.498 110.245  0.00  0.00     0.028 C 
ATOM     12  C   LIG d   1       1.884  80.065 110.237  0.00  0.00     0.006 C 
ENDBRANCH   8  11
ENDBRANCH   7   8
ENDBRANCH   1   7
BRANCH   6  13
ATOM     13  N   LIG d   1       2.871  83.402 109.984  0.00  0.00    -0.311 N 
ATOM     14  C   LIG d   1       3.009  82.988 108.725  0.00  0.00     0.210 C 
ATOM     15  C   LIG d   1       4.431  82.575 108.333  0.00  0.00     0.109 C 
ATOM     16  O   LIG d   1       2.096  82.954 107.887  0.00  0.00    -0.276 OA
ATOM     17  H   LIG d   1       3.672  83.428 110.585  0.00  0.00     0.149 HD
ENDBRANCH   6  13
BRANCH   5  18
ATOM     18  N   LIG d   1       1.279  85.853 109.093  0.00  0.00     0.381 N 
ATOM     19  H   LIG d   1       1.848  86.670 108.991  0.00  0.00    -0.090 HD
ATOM     20  H   LIG d   1       0.327  86.104 108.893  0.00  0.00    -0.090 HD
ATOM     21  H   LIG d   1       1.584  85.146 108.460  0.00  0.00    -0.090 HD
ENDBRANCH   5  18
BRANCH   3  22
ATOM     22  C   LIG d   1      -0.796  85.890 113.409  0.00  0.00     0.382 C 
ATOM     23  O   LIG d   1      -1.916  86.361 113.096  0.00  0.00    -0.241 OA
ATOM     24  O   LIG d   1      -0.342  86.095 114.551  0.00  0.00    -0.241 OA
ENDBRANCH   3  22
TORSDOF 7
ENDMDL
MODEL 6
REMARK VINA RESULT:      -4.4      1.892      2.875
REMARK  7 active torsions:
REMARK  status: ('A' for Active; 'I' for Inactive)
REMARK    1  A    between atoms: C_2  and  C_3 
REMARK    2  A    between atoms: C_3  and  O_6 
REMARK    3  A    between atoms: C_3  and  C_4 
REMARK    4  A    between atoms: C_7  and  O_6 
REMARK    5  A    between atoms: C_9  and  C_10 
REMARK    6  A    between atoms: N_15  and  C_14 
REMARK    7  A    between atoms: N_20  and  C_19 
REMARK       I    between atoms: C_22  and  N_20 
ROOT
ATOM      1  C   LIG d   1       0.716  82.534 111.498  0.00  0.00     0.161 C 
ATOM      2  C   LIG d   1       2.008  83.072 111.377  0.00  0.00     0.016 C 
ATOM      3  C   LIG d   1       3.077  82.395 110.747  0.00  0.00     0.038 C 
ATOM      4  C   LIG d   1       2.886  81.190 110.055  0.00  0.00     0.028 C 
ATOM      5  C   LIG d   1       1.715  80.368 110.583  0.00  0.00    -0.047 C 
ATOM      6  C   LIG d   1       0.461  81.269 110.653  0.00  0.00     0.091 C 
ENDROOT
BRANCH   1   7
ATOM      7  O   LIG d   1      -0.265  83.546 111.194  0.00  0.00    -0.368 OA
BRANCH   7   8
ATOM      8  C   LIG d   1      -0.827  84.250 112.328  0.00  0.00     0.119 C 
BRANCH   8   9
ATOM      9  C   LIG d   1      -0.237  85.674 112.328  0.00  0.00     0.028 C 
ATOM     10  C   LIG d   1      -0.701  86.501 111.117  0.00  0.00     0.006 C 
ENDBRANCH   8   9
BRANCH   8  11
ATOM     11  C   LIG d   1      -0.376  83.625 113.652  0.00  0.00     0.028 C 
ATOM     12  C   LIG d   1      -1.554  83.156 114.521  0.00  0.00     0.006 C 
ENDBRANCH   8  11
ENDBRANCH   7   8
ENDBRANCH   1   7
BRANCH   6  13
ATOM     13  N   LIG d   1      -0.710  80.566 111.239  0.00  0.00    -0.311 N 
ATOM     14  C   LIG d   1      -0.761  80.154 112.504  0.00  0.00     0.210 C 
ATOM     15  C   LIG d   1      -2.053  79.432 112.898  0.00  0.00     0.109 C 
ATOM     16  O   LIG d   1       0.129  80.347 113.347  0.00  0.00    -0.276 OA
ATOM     17  H   LIG d   1      -1.490  80.395 110.633  0.00  0.00     0.149 HD
ENDBRANCH   6  13
BRANCH   5  18
ATOM     18  N   LIG d   1       1.545  79.208 109.688  0.00  0.00     0.381 N 
ATOM     19  H   LIG d   1       0.851  78.592 110.060  0.00  0.00    -0.090 HD
ATOM     20  H   LIG d   1       2.415  78.708 109.634  0.00  0.00    -0.090 HD
ATOM     21  H   LIG d   1       1.274  79.516 108.780  0.00  0.00    -0.090 HD
ENDBRANCH   5  18
BRANCH   3  22
ATOM     22  C   LIG d   1       4.363  82.906 110.838  0.00  0.00     0.382 C 
ATOM     23  O   LIG d   1       4.675  83.651 111.798  0.00  0.00    -0.241 OA
ATOM     24  O   LIG d   1       5.202  82.667 109.949  0.00  0.00    -0.241 OA
ENDBRANCH   3  22
TORSDOF 7
ENDMDL
MODEL 7
REMARK VINA RESULT:      -4.4      2.524      4.694
REMARK  7 active torsions:
REMARK  status: ('A' for Active; 'I' for Inactive)
REMARK    1  A    between atoms: C_2  and  C_3 
REMARK    2  A    between atoms: C_3  and  O_6 
REMARK    3  A    between atoms: C_3  and  C_4 
REMARK    4  A    between atoms: C_7  and  O_6 
REMARK    5  A    between atoms: C_9  and  C_10 
REMARK    6  A    between atoms: N_15  and  C_14 
REMARK    7  A    between atoms: N_20  and  C_19 
REMARK       I    between atoms: C_22  and  N_20 
ROOT
ATOM      1  C   LIG d   1       2.011  83.819 111.839  0.00  0.00     0.161 C 
ATOM      2  C   LIG d   1       2.577  85.027 112.281  0.00  0.00     0.016 C 
ATOM      3  C   LIG d   1       3.742  85.594 111.713  0.00  0.00     0.038 C 
ATOM      4  C   LIG d   1       4.337  85.065 110.559  0.00  0.00     0.028 C 
ATOM      5  C   LIG d   1       4.097  83.569 110.385  0.00  0.00    -0.047 C 
ATOM      6  C   LIG d   1       2.583  83.285 110.509  0.00  0.00     0.091 C 
ENDROOT
BRANCH   1   7
ATOM      7  O   LIG d   1       0.579  83.954 111.751  0.00  0.00    -0.368 OA
BRANCH   7   8
ATOM      8  C   LIG d   1       0.020  85.177 112.290  0.00  0.00     0.119 C 
BRANCH   8   9
ATOM      9  C   LIG d   1      -0.974  84.782 113.400  0.00  0.00     0.028 C 
ATOM     10  C   LIG d   1      -0.999  85.798 114.554  0.00  0.00     0.006 C 
ENDBRANCH   8   9
BRANCH   8  11
ATOM     11  C   LIG d   1      -0.817  85.917 111.242  0.00  0.00     0.028 C 
ATOM     12  C   LIG d   1      -0.223  85.816 109.827  0.00  0.00     0.006 C 
ENDBRANCH   8  11
ENDBRANCH   7   8
ENDBRANCH   1   7
BRANCH   6  13
ATOM     13  N   LIG d   1       2.270  81.834 110.436  0.00  0.00    -0.311 N 
ATOM     14  C   LIG d   1       2.058  81.187 109.291  0.00  0.00     0.210 C 
ATOM     15  C   LIG d   1       1.731  79.698 109.441  0.00  0.00     0.109 C 
ATOM     16  O   LIG d   1       2.143  81.698 108.164  0.00  0.00    -0.276 OA
ATOM     17  H   LIG d   1       2.213  81.335 111.302  0.00  0.00     0.149 HD
ENDBRANCH   6  13
BRANCH   5  18
ATOM     18  N   LIG d   1       4.653  83.177 109.076  0.00  0.00     0.381 N 
ATOM     19  H   LIG d   1       3.998  82.599 108.589  0.00  0.00    -0.090 HD
ATOM     20  H   LIG d   1       5.493  82.645 109.225  0.00  0.00    -0.090 HD
ATOM     21  H   LIG d   1       4.858  83.989 108.536  0.00  0.00    -0.090 HD
ENDBRANCH   5  18
BRANCH   3  22
ATOM     22  C   LIG d   1       4.345  86.681 112.327  0.00  0.00     0.382 C 
ATOM     23  O   LIG d   1       4.266  86.823 113.571  0.00  0.00    -0.241 OA
ATOM     24  O   LIG d   1       4.931  87.545 111.647  0.00  0.00    -0.241 OA
ENDBRANCH   3  22
TORSDOF 7
ENDMDL
MODEL 8
REMARK VINA RESULT:      -4.3      3.090      5.966
REMARK  7 active torsions:
REMARK  status: ('A' for Active; 'I' for Inactive)
REMARK    1  A    between atoms: C_2  and  C_3 
REMARK    2  A    between atoms: C_3  and  O_6 
REMARK    3  A    between atoms: C_3  and  C_4 
REMARK    4  A    between atoms: C_7  and  O_6 
REMARK    5  A    between atoms: C_9  and  C_10 
REMARK    6  A    between atoms: N_15  and  C_14 
REMARK    7  A    between atoms: N_20  and  C_19 
REMARK       I    between atoms: C_22  and  N_20 
ROOT
ATOM      1  C   LIG d   1       4.014  85.085 112.196  0.00  0.00     0.161 C 
ATOM      2  C   LIG d   1       4.314  86.108 113.110  0.00  0.00     0.016 C 
ATOM      3  C   LIG d   1       3.638  87.350 113.138  0.00  0.00     0.038 C 
ATOM      4  C   LIG d   1       2.507  87.596 112.346  0.00  0.00     0.028 C 
ATOM      5  C   LIG d   1       2.482  86.783 111.056  0.00  0.00    -0.047 C 
ATOM      6  C   LIG d   1       2.710  85.292 111.398  0.00  0.00     0.091 C 
ENDROOT
BRANCH   1   7
ATOM      7  O   LIG d   1       3.989  83.814 112.876  0.00  0.00    -0.368 OA
BRANCH   7   8
ATOM      8  C   LIG d   1       2.739  83.083 112.814  0.00  0.00     0.119 C 
BRANCH   8   9
ATOM      9  C   LIG d   1       2.120  83.105 114.225  0.00  0.00     0.028 C 
ATOM     10  C   LIG d   1       1.249  84.349 114.465  0.00  0.00     0.006 C 
ENDBRANCH   8   9
BRANCH   8  11
ATOM     11  C   LIG d   1       2.975  81.603 112.497  0.00  0.00     0.028 C 
ATOM     12  C   LIG d   1       3.680  81.388 111.149  0.00  0.00     0.006 C 
ENDBRANCH   8  11
ENDBRANCH   7   8
ENDBRANCH   1   7
BRANCH   6  13
ATOM     13  N   LIG d   1       2.784  84.437 110.185  0.00  0.00    -0.311 N 
ATOM     14  C   LIG d   1       1.710  83.974 109.548  0.00  0.00     0.210 C 
ATOM     15  C   LIG d   1       2.010  83.094 108.330  0.00  0.00     0.109 C 
ATOM     16  O   LIG d   1       0.537  84.234 109.857  0.00  0.00    -0.276 OA
ATOM     17  H   LIG d   1       3.697  84.203 109.847  0.00  0.00     0.149 HD
ENDBRANCH   6  13
BRANCH   5  18
ATOM     18  N   LIG d   1       1.186  87.033 110.397  0.00  0.00     0.381 N 
ATOM     19  H   LIG d   1       1.331  87.207 109.422  0.00  0.00    -0.090 HD
ATOM     20  H   LIG d   1       0.767  87.850 110.804  0.00  0.00    -0.090 HD
ATOM     21  H   LIG d   1       0.586  86.247 110.516  0.00  0.00    -0.090 HD
ENDBRANCH   5  18
BRANCH   3  22
ATOM     22  C   LIG d   1       4.118  88.376 113.938  0.00  0.00     0.382 C 
ATOM     23  O   LIG d   1       3.493  89.461 114.007  0.00  0.00    -0.241 OA
ATOM     24  O   LIG d   1       5.192  88.246 114.555  0.00  0.00    -0.241 OA
ENDBRANCH   3  22
TORSDOF 7
ENDMDL
MODEL 9
REMARK VINA RESULT:      -4.1     21.774     24.482
REMARK  7 active torsions:
REMARK  status: ('A' for Active; 'I' for Inactive)
REMARK    1  A    between atoms: C_2  and  C_3 
REMARK    2  A    between atoms: C_3  and  O_6 
REMARK    3  A    between atoms: C_3  and  C_4 
REMARK    4  A    between atoms: C_7  and  O_6 
REMARK    5  A    between atoms: C_9  and  C_10 
REMARK    6  A    between atoms: N_15  and  C_14 
REMARK    7  A    between atoms: N_20  and  C_19 
REMARK       I    between atoms: C_22  and  N_20 
ROOT
ATOM      1  C   LIG d   1       8.938  60.339 110.735  0.00  0.00     0.161 C 
ATOM      2  C   LIG d   1       8.522  61.646 110.431  0.00  0.00     0.016 C 
ATOM      3  C   LIG d   1       9.393  62.760 110.436  0.00  0.00     0.038 C 
ATOM      4  C   LIG d   1      10.779  62.617 110.599  0.00  0.00     0.028 C 
ATOM      5  C   LIG d   1      11.170  61.385 111.407  0.00  0.00    -0.047 C 
ATOM      6  C   LIG d   1      10.467  60.146 110.805  0.00  0.00     0.091 C 
ENDROOT
BRANCH   1   7
ATOM      7  O   LIG d   1       8.359  59.412 109.795  0.00  0.00    -0.368 OA
BRANCH   7   8
ATOM      8  C   LIG d   1       7.911  59.975 108.537  0.00  0.00     0.119 C 
BRANCH   8   9
ATOM      9  C   LIG d   1       6.628  59.227 108.126  0.00  0.00     0.028 C 
ATOM     10  C   LIG d   1       6.880  57.734 107.856  0.00  0.00     0.006 C 
ENDBRANCH   8   9
BRANCH   8  11
ATOM     11  C   LIG d   1       8.917  59.702 107.415  0.00  0.00     0.028 C 
ATOM     12  C   LIG d   1       9.661  60.968 106.961  0.00  0.00     0.006 C 
ENDBRANCH   8  11
ENDBRANCH   7   8
ENDBRANCH   1   7
BRANCH   6  13
ATOM     13  N   LIG d   1      10.729  58.910 111.588  0.00  0.00    -0.311 N 
ATOM     14  C   LIG d   1      11.115  57.761 111.036  0.00  0.00     0.210 C 
ATOM     15  C   LIG d   1      11.311  56.604 112.020  0.00  0.00     0.109 C 
ATOM     16  O   LIG d   1      11.346  57.599 109.828  0.00  0.00    -0.276 OA
ATOM     17  H   LIG d   1      10.597  58.961 112.579  0.00  0.00     0.149 HD
ENDBRANCH   6  13
BRANCH   5  18
ATOM     18  N   LIG d   1      12.642  61.283 111.381  0.00  0.00     0.381 N 
ATOM     19  H   LIG d   1      12.915  60.321 111.397  0.00  0.00    -0.090 HD
ATOM     20  H   LIG d   1      13.013  61.731 112.201  0.00  0.00    -0.090 HD
ATOM     21  H   LIG d   1      12.999  61.724 110.562  0.00  0.00    -0.090 HD
ENDBRANCH   5  18
BRANCH   3  22
ATOM     22  C   LIG d   1       8.872  64.040 110.317  0.00  0.00     0.382 C 
ATOM     23  O   LIG d   1       9.469  65.011 110.841  0.00  0.00    -0.241 OA
ATOM     24  O   LIG d   1       7.790  64.229 109.730  0.00  0.00    -0.241 OA
ENDBRANCH   3  22
TORSDOF 7
ENDMDL
