MODEL 1
REMARK VINA RESULT:      -6.6      0.000      0.000
REMARK  7 active torsions:
REMARK  status: ('A' for Active; 'I' for Inactive)
REMARK    1  A    between atoms: C_2  and  C_3 
REMARK    2  A    between atoms: C_3  and  O_6 
REMARK    3  A    between atoms: C_3  and  C_4 
REMARK    4  A    between atoms: C_7  and  O_6 
REMARK    5  A    between atoms: C_9  and  C_10 
REMARK    6  A    between atoms: N_15  and  C_14 
REMARK    7  A    between atoms: N_20  and  C_19 
REMARK       I    between atoms: C_22  and  N_20 
ROOT
ATOM      1  C   LIG d   1       1.111  83.845 109.273  0.00  0.00     0.161 C 
ATOM      2  C   LIG d   1       1.328  85.163 109.707  0.00  0.00     0.016 C 
ATOM      3  C   LIG d   1       0.915  85.644 110.971  0.00  0.00     0.038 C 
ATOM      4  C   LIG d   1       0.387  84.791 111.953  0.00  0.00     0.028 C 
ATOM      5  C   LIG d   1      -0.312  83.564 111.377  0.00  0.00    -0.047 C 
ATOM      6  C   LIG d   1       0.636  82.871 110.372  0.00  0.00     0.091 C 
ENDROOT
BRANCH   1   7
ATOM      7  O   LIG d   1       2.300  83.339 108.634  0.00  0.00    -0.368 OA
BRANCH   7   8
ATOM      8  C   LIG d   1       3.158  82.508 109.453  0.00  0.00     0.119 C 
BRANCH   8   9
ATOM      9  C   LIG d   1       4.405  83.340 109.810  0.00  0.00     0.028 C 
ATOM     10  C   LIG d   1       4.430  83.755 111.290  0.00  0.00     0.006 C 
ENDBRANCH   8   9
BRANCH   8  11
ATOM     11  C   LIG d   1       3.685  81.305 108.665  0.00  0.00     0.028 C 
ATOM     12  C   LIG d   1       4.100  80.135 109.571  0.00  0.00     0.006 C 
ENDBRANCH   8  11
ENDBRANCH   7   8
ENDBRANCH   1   7
BRANCH   6  13
ATOM     13  N   LIG d   1      -0.001  81.710 109.699  0.00  0.00    -0.311 N 
ATOM     14  C   LIG d   1       0.191  80.447 110.078  0.00  0.00     0.210 C 
ATOM     15  C   LIG d   1      -0.545  79.400 109.236  0.00  0.00     0.109 C 
ATOM     16  O   LIG d   1       0.876  80.097 111.051  0.00  0.00    -0.276 OA
ATOM     17  H   LIG d   1      -0.598  81.905 108.919  0.00  0.00     0.149 HD
ENDBRANCH   6  13
BRANCH   5  18
ATOM     18  N   LIG d   1      -0.692  82.696 112.507  0.00  0.00     0.381 N 
ATOM     19  H   LIG d   1      -1.672  82.784 112.688  0.00  0.00    -0.090 HD
ATOM     20  H   LIG d   1      -0.192  82.993 113.327  0.00  0.00    -0.090 HD
ATOM     21  H   LIG d   1      -0.469  81.748 112.299  0.00  0.00    -0.090 HD
ENDBRANCH   5  18
BRANCH   3  22
ATOM     22  C   LIG d   1       0.991  87.000 111.249  0.00  0.00     0.382 C 
ATOM     23  O   LIG d   1       2.095  87.592 111.181  0.00  0.00    -0.241 OA
ATOM     24  O   LIG d   1      -0.021  87.629 111.611  0.00  0.00    -0.241 OA
ENDBRANCH   3  22
TORSDOF 7
ENDMDL
MODEL 2
REMARK VINA RESULT:      -6.2      2.780      3.751
REMARK  7 active torsions:
REMARK  status: ('A' for Active; 'I' for Inactive)
REMARK    1  A    between atoms: C_2  and  C_3 
REMARK    2  A    between atoms: C_3  and  O_6 
REMARK    3  A    between atoms: C_3  and  C_4 
REMARK    4  A    between atoms: C_7  and  O_6 
REMARK    5  A    between atoms: C_9  and  C_10 
REMARK    6  A    between atoms: N_15  and  C_14 
REMARK    7  A    between atoms: N_20  and  C_19 
REMARK       I    between atoms: C_22  and  N_20 
ROOT
ATOM      1  C   LIG d   1       3.937  85.539 111.255  0.00  0.00     0.161 C 
ATOM      2  C   LIG d   1       4.096  86.610 112.150  0.00  0.00     0.016 C 
ATOM      3  C   LIG d   1       3.090  87.572 112.398  0.00  0.00     0.038 C 
ATOM      4  C   LIG d   1       1.793  87.440 111.879  0.00  0.00     0.028 C 
ATOM      5  C   LIG d   1       1.741  86.654 110.574  0.00  0.00    -0.047 C 
ATOM      6  C   LIG d   1       2.491  85.316 110.763  0.00  0.00     0.091 C 
ENDROOT
BRANCH   1   7
ATOM      7  O   LIG d   1       4.459  84.331 111.842  0.00  0.00    -0.368 OA
BRANCH   7   8
ATOM      8  C   LIG d   1       3.503  83.499 112.545  0.00  0.00     0.119 C 
BRANCH   8   9
ATOM      9  C   LIG d   1       3.604  83.843 114.043  0.00  0.00     0.028 C 
ATOM     10  C   LIG d   1       2.287  84.402 114.608  0.00  0.00     0.006 C 
ENDBRANCH   8   9
BRANCH   8  11
ATOM     11  C   LIG d   1       3.873  82.017 112.443  0.00  0.00     0.028 C 
ATOM     12  C   LIG d   1       3.870  81.499 110.996  0.00  0.00     0.006 C 
ENDBRANCH   8  11
ENDBRANCH   7   8
ENDBRANCH   1   7
BRANCH   6  13
ATOM     13  N   LIG d   1       2.560  84.522 109.509  0.00  0.00    -0.311 N 
ATOM     14  C   LIG d   1       1.658  83.601 109.174  0.00  0.00     0.210 C 
ATOM     15  C   LIG d   1       1.928  82.884 107.848  0.00  0.00     0.109 C 
ATOM     16  O   LIG d   1       0.643  83.332 109.834  0.00  0.00    -0.276 OA
ATOM     17  H   LIG d   1       3.335  84.698 108.900  0.00  0.00     0.149 HD
ENDBRANCH   6  13
BRANCH   5  18
ATOM     18  N   LIG d   1       0.320  86.475 110.218  0.00  0.00     0.381 N 
ATOM     19  H   LIG d   1      -0.258  86.949 110.883  0.00  0.00    -0.090 HD
ATOM     20  H   LIG d   1       0.098  85.495 110.249  0.00  0.00    -0.090 HD
ATOM     21  H   LIG d   1       0.150  86.832 109.304  0.00  0.00    -0.090 HD
ENDBRANCH   5  18
BRANCH   3  22
ATOM     22  C   LIG d   1       3.389  88.703 113.144  0.00  0.00     0.382 C 
ATOM     23  O   LIG d   1       2.633  89.054 114.081  0.00  0.00    -0.241 OA
ATOM     24  O   LIG d   1       4.381  89.401 112.862  0.00  0.00    -0.241 OA
ENDBRANCH   3  22
TORSDOF 7
ENDMDL
MODEL 3
REMARK VINA RESULT:      -6.1      2.553      4.971
REMARK  7 active torsions:
REMARK  status: ('A' for Active; 'I' for Inactive)
REMARK    1  A    between atoms: C_2  and  C_3 
REMARK    2  A    between atoms: C_3  and  O_6 
REMARK    3  A    between atoms: C_3  and  C_4 
REMARK    4  A    between atoms: C_7  and  O_6 
REMARK    5  A    between atoms: C_9  and  C_10 
REMARK    6  A    between atoms: N_15  and  C_14 
REMARK    7  A    between atoms: N_20  and  C_19 
REMARK       I    between atoms: C_22  and  N_20 
ROOT
ATOM      1  C   LIG d   1       0.020  82.293 111.261  0.00  0.00     0.161 C 
ATOM      2  C   LIG d   1      -1.033  82.062 112.162  0.00  0.00     0.016 C 
ATOM      3  C   LIG d   1      -1.609  80.788 112.376  0.00  0.00     0.038 C 
ATOM      4  C   LIG d   1      -1.065  79.625 111.811  0.00  0.00     0.028 C 
ATOM      5  C   LIG d   1      -0.321  79.876 110.504  0.00  0.00    -0.047 C 
ATOM      6  C   LIG d   1       0.699  81.018 110.719  0.00  0.00     0.091 C 
ENDROOT
BRANCH   1   7
ATOM      7  O   LIG d   1       0.997  83.163 111.865  0.00  0.00    -0.368 OA
BRANCH   7   8
ATOM      8  C   LIG d   1       1.064  84.510 111.337  0.00  0.00     0.119 C 
BRANCH   8   9
ATOM      9  C   LIG d   1       0.037  84.611 110.192  0.00  0.00     0.028 C 
ATOM     10  C   LIG d   1      -0.901  85.820 110.350  0.00  0.00     0.006 C 
ENDBRANCH   8   9
BRANCH   8  11
ATOM     11  C   LIG d   1       2.423  84.787 110.687  0.00  0.00     0.028 C 
ATOM     12  C   LIG d   1       3.604  84.309 111.548  0.00  0.00     0.006 C 
ENDBRANCH   8  11
ENDBRANCH   7   8
ENDBRANCH   1   7
BRANCH   6  13
ATOM     13  N   LIG d   1       1.411  81.385 109.467  0.00  0.00    -0.311 N 
ATOM     14  C   LIG d   1       2.737  81.368 109.347  0.00  0.00     0.210 C 
ATOM     15  C   LIG d   1       3.268  81.802 107.976  0.00  0.00     0.109 C 
ATOM     16  O   LIG d   1       3.524  81.004 110.234  0.00  0.00    -0.276 OA
ATOM     17  H   LIG d   1       0.849  81.663 108.687  0.00  0.00     0.149 HD
ENDBRANCH   6  13
BRANCH   5  18
ATOM     18  N   LIG d   1       0.310  78.606 110.099  0.00  0.00     0.381 N 
ATOM     19  H   LIG d   1       0.047  77.880 110.734  0.00  0.00    -0.090 HD
ATOM     20  H   LIG d   1       1.308  78.712 110.137  0.00  0.00    -0.090 HD
ATOM     21  H   LIG d   1       0.029  78.366 109.173  0.00  0.00    -0.090 HD
ENDBRANCH   5  18
BRANCH   3  22
ATOM     22  C   LIG d   1      -2.766  80.675 113.132  0.00  0.00     0.382 C 
ATOM     23  O   LIG d   1      -2.778  79.948 114.154  0.00  0.00    -0.241 OA
ATOM     24  O   LIG d   1      -3.810  81.255 112.779  0.00  0.00    -0.241 OA
ENDBRANCH   3  22
TORSDOF 7
ENDMDL
MODEL 4
REMARK VINA RESULT:      -6.1      2.384      4.862
REMARK  7 active torsions:
REMARK  status: ('A' for Active; 'I' for Inactive)
REMARK    1  A    between atoms: C_2  and  C_3 
REMARK    2  A    between atoms: C_3  and  O_6 
REMARK    3  A    between atoms: C_3  and  C_4 
REMARK    4  A    between atoms: C_7  and  O_6 
REMARK    5  A    between atoms: C_9  and  C_10 
REMARK    6  A    between atoms: N_15  and  C_14 
REMARK    7  A    between atoms: N_20  and  C_19 
REMARK       I    between atoms: C_22  and  N_20 
ROOT
ATOM      1  C   LIG d   1       1.975  82.805 111.838  0.00  0.00     0.161 C 
ATOM      2  C   LIG d   1       0.838  81.986 111.934  0.00  0.00     0.016 C 
ATOM      3  C   LIG d   1      -0.471  82.489 112.112  0.00  0.00     0.038 C 
ATOM      4  C   LIG d   1      -0.751  83.863 112.055  0.00  0.00     0.028 C 
ATOM      5  C   LIG d   1       0.427  84.739 112.465  0.00  0.00    -0.047 C 
ATOM      6  C   LIG d   1       1.676  84.309 111.662  0.00  0.00     0.091 C 
ENDROOT
BRANCH   1   7
ATOM      7  O   LIG d   1       2.827  82.336 110.774  0.00  0.00    -0.368 OA
BRANCH   7   8
ATOM      8  C   LIG d   1       2.170  82.027 109.521  0.00  0.00     0.119 C 
BRANCH   8   9
ATOM      9  C   LIG d   1       2.671  80.643 109.064  0.00  0.00     0.028 C 
ATOM     10  C   LIG d   1       4.068  80.313 109.615  0.00  0.00     0.006 C 
ENDBRANCH   8   9
BRANCH   8  11
ATOM     11  C   LIG d   1       2.595  82.997 108.414  0.00  0.00     0.028 C 
ATOM     12  C   LIG d   1       1.431  83.401 107.496  0.00  0.00     0.006 C 
ENDBRANCH   8  11
ENDBRANCH   7   8
ENDBRANCH   1   7
BRANCH   6  13
ATOM     13  N   LIG d   1       2.894  85.059 112.063  0.00  0.00    -0.311 N 
ATOM     14  C   LIG d   1       3.235  86.237 111.541  0.00  0.00     0.210 C 
ATOM     15  C   LIG d   1       4.540  86.830 112.080  0.00  0.00     0.109 C 
ATOM     16  O   LIG d   1       2.563  86.861 110.706  0.00  0.00    -0.276 OA
ATOM     17  H   LIG d   1       3.481  84.640 112.757  0.00  0.00     0.149 HD
ENDBRANCH   6  13
BRANCH   5  18
ATOM     18  N   LIG d   1       0.043  86.143 112.227  0.00  0.00     0.381 N 
ATOM     19  H   LIG d   1      -0.065  86.618 113.102  0.00  0.00    -0.090 HD
ATOM     20  H   LIG d   1      -0.840  86.162 111.748  0.00  0.00    -0.090 HD
ATOM     21  H   LIG d   1       0.738  86.599 111.677  0.00  0.00    -0.090 HD
ENDBRANCH   5  18
BRANCH   3  22
ATOM     22  C   LIG d   1      -1.511  81.616 112.391  0.00  0.00     0.382 C 
ATOM     23  O   LIG d   1      -2.511  82.017 113.034  0.00  0.00    -0.241 OA
ATOM     24  O   LIG d   1      -1.443  80.421 112.046  0.00  0.00    -0.241 OA
ENDBRANCH   3  22
TORSDOF 7
ENDMDL
MODEL 5
REMARK VINA RESULT:      -5.9      1.853      2.497
REMARK  7 active torsions:
REMARK  status: ('A' for Active; 'I' for Inactive)
REMARK    1  A    between atoms: C_2  and  C_3 
REMARK    2  A    between atoms: C_3  and  O_6 
REMARK    3  A    between atoms: C_3  and  C_4 
REMARK    4  A    between atoms: C_7  and  O_6 
REMARK    5  A    between atoms: C_9  and  C_10 
REMARK    6  A    between atoms: N_15  and  C_14 
REMARK    7  A    between atoms: N_20  and  C_19 
REMARK       I    between atoms: C_22  and  N_20 
ROOT
ATOM      1  C   LIG d   1       0.551  83.291 110.769  0.00  0.00     0.161 C 
ATOM      2  C   LIG d   1       0.804  84.659 110.577  0.00  0.00     0.016 C 
ATOM      3  C   LIG d   1       1.219  85.527 111.613  0.00  0.00     0.038 C 
ATOM      4  C   LIG d   1       1.557  85.050 112.889  0.00  0.00     0.028 C 
ATOM      5  C   LIG d   1       0.834  83.761 113.265  0.00  0.00    -0.047 C 
ATOM      6  C   LIG d   1       1.021  82.731 112.128  0.00  0.00     0.091 C 
ENDROOT
BRANCH   1   7
ATOM      7  O   LIG d   1       1.127  82.531 109.688  0.00  0.00    -0.368 OA
BRANCH   7   8
ATOM      8  C   LIG d   1       2.274  83.124 109.032  0.00  0.00     0.119 C 
BRANCH   8   9
ATOM      9  C   LIG d   1       2.135  82.853 107.521  0.00  0.00     0.028 C 
ATOM     10  C   LIG d   1       1.277  83.914 106.811  0.00  0.00     0.006 C 
ENDBRANCH   8   9
BRANCH   8  11
ATOM     11  C   LIG d   1       3.575  82.432 109.450  0.00  0.00     0.028 C 
ATOM     12  C   LIG d   1       4.366  83.233 110.496  0.00  0.00     0.006 C 
ENDBRANCH   8  11
ENDBRANCH   7   8
ENDBRANCH   1   7
BRANCH   6  13
ATOM     13  N   LIG d   1       0.275  81.470 112.377  0.00  0.00    -0.311 N 
ATOM     14  C   LIG d   1      -1.054  81.403 112.434  0.00  0.00     0.210 C 
ATOM     15  C   LIG d   1      -1.620  80.009 112.721  0.00  0.00     0.109 C 
ATOM     16  O   LIG d   1      -1.819  82.361 112.242  0.00  0.00    -0.276 OA
ATOM     17  H   LIG d   1       0.816  80.639 112.513  0.00  0.00     0.149 HD
ENDBRANCH   6  13
BRANCH   5  18
ATOM     18  N   LIG d   1       1.381  83.304 114.556  0.00  0.00     0.381 N 
ATOM     19  H   LIG d   1       0.816  82.563 114.920  0.00  0.00    -0.090 HD
ATOM     20  H   LIG d   1       1.357  84.068 115.208  0.00  0.00    -0.090 HD
ATOM     21  H   LIG d   1       2.318  82.989 114.437  0.00  0.00    -0.090 HD
ENDBRANCH   5  18
BRANCH   3  22
ATOM     22  C   LIG d   1       1.261  86.894 111.389  0.00  0.00     0.382 C 
ATOM     23  O   LIG d   1       2.319  87.431 110.981  0.00  0.00    -0.241 OA
ATOM     24  O   LIG d   1       0.267  87.605 111.631  0.00  0.00    -0.241 OA
ENDBRANCH   3  22
TORSDOF 7
ENDMDL
MODEL 6
REMARK VINA RESULT:      -5.7      2.886      6.141
REMARK  7 active torsions:
REMARK  status: ('A' for Active; 'I' for Inactive)
REMARK    1  A    between atoms: C_2  and  C_3 
REMARK    2  A    between atoms: C_3  and  O_6 
REMARK    3  A    between atoms: C_3  and  C_4 
REMARK    4  A    between atoms: C_7  and  O_6 
REMARK    5  A    between atoms: C_9  and  C_10 
REMARK    6  A    between atoms: N_15  and  C_14 
REMARK    7  A    between atoms: N_20  and  C_19 
REMARK       I    between atoms: C_22  and  N_20 
ROOT
ATOM      1  C   LIG d   1       3.852  84.868 110.758  0.00  0.00     0.161 C 
ATOM      2  C   LIG d   1       3.730  83.792 109.864  0.00  0.00     0.016 C 
ATOM      3  C   LIG d   1       3.769  82.437 110.267  0.00  0.00     0.038 C 
ATOM      4  C   LIG d   1       3.780  82.066 111.620  0.00  0.00     0.028 C 
ATOM      5  C   LIG d   1       4.411  83.114 112.530  0.00  0.00    -0.047 C 
ATOM      6  C   LIG d   1       3.753  84.485 112.249  0.00  0.00     0.091 C 
ENDROOT
BRANCH   1   7
ATOM      7  O   LIG d   1       2.880  85.883 110.436  0.00  0.00    -0.368 OA
BRANCH   7   8
ATOM      8  C   LIG d   1       1.519  85.618 110.857  0.00  0.00     0.119 C 
BRANCH   8   9
ATOM      9  C   LIG d   1       0.631  85.645 109.598  0.00  0.00     0.028 C 
ATOM     10  C   LIG d   1      -0.842  85.945 109.925  0.00  0.00     0.006 C 
ENDBRANCH   8   9
BRANCH   8  11
ATOM     11  C   LIG d   1       0.986  86.739 111.755  0.00  0.00     0.028 C 
ATOM     12  C   LIG d   1       1.945  87.936 111.846  0.00  0.00     0.006 C 
ENDBRANCH   8  11
ENDBRANCH   7   8
ENDBRANCH   1   7
BRANCH   6  13
ATOM     13  N   LIG d   1       4.371  85.582 113.038  0.00  0.00    -0.311 N 
ATOM     14  C   LIG d   1       3.897  86.000 114.210  0.00  0.00     0.210 C 
ATOM     15  C   LIG d   1       4.673  87.157 114.846  0.00  0.00     0.109 C 
ATOM     16  O   LIG d   1       2.927  85.499 114.799  0.00  0.00    -0.276 OA
ATOM     17  H   LIG d   1       5.182  86.024 112.648  0.00  0.00     0.149 HD
ENDBRANCH   6  13
BRANCH   5  18
ATOM     18  N   LIG d   1       4.233  82.662 113.922  0.00  0.00     0.381 N 
ATOM     19  H   LIG d   1       4.842  81.890 114.108  0.00  0.00    -0.090 HD
ATOM     20  H   LIG d   1       3.285  82.351 114.044  0.00  0.00    -0.090 HD
ATOM     21  H   LIG d   1       4.429  83.408 114.552  0.00  0.00    -0.090 HD
ENDBRANCH   5  18
BRANCH   3  22
ATOM     22  C   LIG d   1       3.836  81.437 109.309  0.00  0.00     0.382 C 
ATOM     23  O   LIG d   1       4.307  80.313 109.608  0.00  0.00    -0.241 OA
ATOM     24  O   LIG d   1       3.473  81.657 108.138  0.00  0.00    -0.241 OA
ENDBRANCH   3  22
TORSDOF 7
ENDMDL
MODEL 7
REMARK VINA RESULT:      -5.7      2.631      5.873
REMARK  7 active torsions:
REMARK  status: ('A' for Active; 'I' for Inactive)
REMARK    1  A    between atoms: C_2  and  C_3 
REMARK    2  A    between atoms: C_3  and  O_6 
REMARK    3  A    between atoms: C_3  and  C_4 
REMARK    4  A    between atoms: C_7  and  O_6 
REMARK    5  A    between atoms: C_9  and  C_10 
REMARK    6  A    between atoms: N_15  and  C_14 
REMARK    7  A    between atoms: N_20  and  C_19 
REMARK       I    between atoms: C_22  and  N_20 
ROOT
ATOM      1  C   LIG d   1       2.509  85.236 110.689  0.00  0.00     0.161 C 
ATOM      2  C   LIG d   1       2.440  84.362 109.591  0.00  0.00     0.016 C 
ATOM      3  C   LIG d   1       3.093  83.109 109.552  0.00  0.00     0.038 C 
ATOM      4  C   LIG d   1       3.741  82.575 110.676  0.00  0.00     0.028 C 
ATOM      5  C   LIG d   1       4.264  83.638 111.636  0.00  0.00    -0.047 C 
ATOM      6  C   LIG d   1       3.118  84.622 111.966  0.00  0.00     0.091 C 
ENDROOT
BRANCH   1   7
ATOM      7  O   LIG d   1       1.201  85.775 110.966  0.00  0.00    -0.368 OA
BRANCH   7   8
ATOM      8  C   LIG d   1       0.076  84.980 110.520  0.00  0.00     0.119 C 
BRANCH   8   9
ATOM      9  C   LIG d   1      -1.056  85.953 110.136  0.00  0.00     0.028 C 
ATOM     10  C   LIG d   1      -1.306  87.018 111.217  0.00  0.00     0.006 C 
ENDBRANCH   8   9
BRANCH   8  11
ATOM     11  C   LIG d   1      -0.491  84.128 111.660  0.00  0.00     0.028 C 
ATOM     12  C   LIG d   1      -0.358  82.620 111.400  0.00  0.00     0.006 C 
ENDBRANCH   8  11
ENDBRANCH   7   8
ENDBRANCH   1   7
BRANCH   6  13
ATOM     13  N   LIG d   1       3.567  85.743 112.834  0.00  0.00    -0.311 N 
ATOM     14  C   LIG d   1       4.379  86.712 112.418  0.00  0.00     0.210 C 
ATOM     15  C   LIG d   1       4.733  87.760 113.478  0.00  0.00     0.109 C 
ATOM     16  O   LIG d   1       4.815  86.822 111.262  0.00  0.00    -0.276 OA
ATOM     17  H   LIG d   1       3.235  85.749 113.779  0.00  0.00     0.149 HD
ENDBRANCH   6  13
BRANCH   5  18
ATOM     18  N   LIG d   1       4.791  82.944 112.826  0.00  0.00     0.381 N 
ATOM     19  H   LIG d   1       5.781  83.077 112.885  0.00  0.00    -0.090 HD
ATOM     20  H   LIG d   1       4.610  81.960 112.734  0.00  0.00    -0.090 HD
ATOM     21  H   LIG d   1       4.351  83.295 113.648  0.00  0.00    -0.090 HD
ENDBRANCH   5  18
BRANCH   3  22
ATOM     22  C   LIG d   1       3.137  82.394 108.365  0.00  0.00     0.382 C 
ATOM     23  O   LIG d   1       2.477  82.785 107.372  0.00  0.00    -0.241 OA
ATOM     24  O   LIG d   1       3.792  81.337 108.287  0.00  0.00    -0.241 OA
ENDBRANCH   3  22
TORSDOF 7
ENDMDL
MODEL 8
REMARK VINA RESULT:      -5.6      1.805      2.259
REMARK  7 active torsions:
REMARK  status: ('A' for Active; 'I' for Inactive)
REMARK    1  A    between atoms: C_2  and  C_3 
REMARK    2  A    between atoms: C_3  and  O_6 
REMARK    3  A    between atoms: C_3  and  C_4 
REMARK    4  A    between atoms: C_7  and  O_6 
REMARK    5  A    between atoms: C_9  and  C_10 
REMARK    6  A    between atoms: N_15  and  C_14 
REMARK    7  A    between atoms: N_20  and  C_19 
REMARK       I    between atoms: C_22  and  N_20 
ROOT
ATOM      1  C   LIG d   1       1.205  82.895 110.308  0.00  0.00     0.161 C 
ATOM      2  C   LIG d   1       0.621  84.141 110.593  0.00  0.00     0.016 C 
ATOM      3  C   LIG d   1      -0.267  84.356 111.672  0.00  0.00     0.038 C 
ATOM      4  C   LIG d   1      -0.515  83.368 112.636  0.00  0.00     0.028 C 
ATOM      5  C   LIG d   1      -0.344  81.948 112.106  0.00  0.00    -0.047 C 
ATOM      6  C   LIG d   1       1.034  81.833 111.414  0.00  0.00     0.091 C 
ENDROOT
BRANCH   1   7
ATOM      7  O   LIG d   1       2.601  83.070 109.993  0.00  0.00    -0.368 OA
BRANCH   7   8
ATOM      8  C   LIG d   1       2.967  82.901 108.602  0.00  0.00     0.119 C 
BRANCH   8   9
ATOM      9  C   LIG d   1       1.662  82.754 107.795  0.00  0.00     0.028 C 
ATOM     10  C   LIG d   1       1.442  83.921 106.817  0.00  0.00     0.006 C 
ENDBRANCH   8   9
BRANCH   8  11
ATOM     11  C   LIG d   1       3.729  81.591 108.382  0.00  0.00     0.028 C 
ATOM     12  C   LIG d   1       4.299  81.007 109.684  0.00  0.00     0.006 C 
ENDBRANCH   8  11
ENDBRANCH   7   8
ENDBRANCH   1   7
BRANCH   6  13
ATOM     13  N   LIG d   1       1.247  80.499 110.794  0.00  0.00    -0.311 N 
ATOM     14  C   LIG d   1       0.412  79.961 109.907  0.00  0.00     0.210 C 
ATOM     15  C   LIG d   1       0.808  78.569 109.407  0.00  0.00     0.109 C 
ATOM     16  O   LIG d   1      -0.604  80.519 109.463  0.00  0.00    -0.276 OA
ATOM     17  H   LIG d   1       2.063  79.991 111.074  0.00  0.00     0.149 HD
ENDBRANCH   6  13
BRANCH   5  18
ATOM     18  N   LIG d   1      -0.496  81.025 113.247  0.00  0.00     0.381 N 
ATOM     19  H   LIG d   1      -0.867  80.152 112.929  0.00  0.00    -0.090 HD
ATOM     20  H   LIG d   1      -1.145  81.423 113.902  0.00  0.00    -0.090 HD
ATOM     21  H   LIG d   1       0.385  80.879 113.688  0.00  0.00    -0.090 HD
ENDBRANCH   5  18
BRANCH   3  22
ATOM     22  C   LIG d   1      -0.949  85.559 111.771  0.00  0.00     0.382 C 
ATOM     23  O   LIG d   1      -1.300  86.168 110.732  0.00  0.00    -0.241 OA
ATOM     24  O   LIG d   1      -1.178  86.065 112.886  0.00  0.00    -0.241 OA
ENDBRANCH   3  22
TORSDOF 7
ENDMDL
MODEL 9
REMARK VINA RESULT:      -5.6      2.925      4.408
REMARK  7 active torsions:
REMARK  status: ('A' for Active; 'I' for Inactive)
REMARK    1  A    between atoms: C_2  and  C_3 
REMARK    2  A    between atoms: C_3  and  O_6 
REMARK    3  A    between atoms: C_3  and  C_4 
REMARK    4  A    between atoms: C_7  and  O_6 
REMARK    5  A    between atoms: C_9  and  C_10 
REMARK    6  A    between atoms: N_15  and  C_14 
REMARK    7  A    between atoms: N_20  and  C_19 
REMARK       I    between atoms: C_22  and  N_20 
ROOT
ATOM      1  C   LIG d   1       2.450  86.033 111.699  0.00  0.00     0.161 C 
ATOM      2  C   LIG d   1       2.750  87.358 112.057  0.00  0.00     0.016 C 
ATOM      3  C   LIG d   1       3.593  87.700 113.139  0.00  0.00     0.038 C 
ATOM      4  C   LIG d   1       4.319  86.731 113.848  0.00  0.00     0.028 C 
ATOM      5  C   LIG d   1       3.656  85.357 113.848  0.00  0.00    -0.047 C 
ATOM      6  C   LIG d   1       3.320  84.963 112.391  0.00  0.00     0.091 C 
ENDROOT
BRANCH   1   7
ATOM      7  O   LIG d   1       2.520  85.886 110.267  0.00  0.00    -0.368 OA
BRANCH   7   8
ATOM      8  C   LIG d   1       1.254  85.881 109.564  0.00  0.00     0.119 C 
BRANCH   8   9
ATOM      9  C   LIG d   1       0.185  86.427 110.531  0.00  0.00     0.028 C 
ATOM     10  C   LIG d   1      -1.091  85.568 110.540  0.00  0.00     0.006 C 
ENDBRANCH   8   9
BRANCH   8  11
ATOM     11  C   LIG d   1       0.807  84.455 109.229  0.00  0.00     0.028 C 
ATOM     12  C   LIG d   1       1.890  83.650 108.492  0.00  0.00     0.006 C 
ENDBRANCH   8  11
ENDBRANCH   7   8
ENDBRANCH   1   7
BRANCH   6  13
ATOM     13  N   LIG d   1       2.594  83.669 112.308  0.00  0.00    -0.311 N 
ATOM     14  C   LIG d   1       3.090  82.588 111.710  0.00  0.00     0.210 C 
ATOM     15  C   LIG d   1       2.168  81.364 111.719  0.00  0.00     0.109 C 
ATOM     16  O   LIG d   1       4.218  82.516 111.201  0.00  0.00    -0.276 OA
ATOM     17  H   LIG d   1       1.683  83.630 112.722  0.00  0.00     0.149 HD
ENDBRANCH   6  13
BRANCH   5  18
ATOM     18  N   LIG d   1       4.584  84.415 114.502  0.00  0.00     0.381 N 
ATOM     19  H   LIG d   1       5.495  84.824 114.563  0.00  0.00    -0.090 HD
ATOM     20  H   LIG d   1       4.648  83.582 113.944  0.00  0.00    -0.090 HD
ATOM     21  H   LIG d   1       4.252  84.189 115.414  0.00  0.00    -0.090 HD
ENDBRANCH   5  18
BRANCH   3  22
ATOM     22  C   LIG d   1       3.686  89.022 113.547  0.00  0.00     0.382 C 
ATOM     23  O   LIG d   1       2.852  89.486 114.361  0.00  0.00    -0.241 OA
ATOM     24  O   LIG d   1       4.566  89.768 113.078  0.00  0.00    -0.241 OA
ENDBRANCH   3  22
TORSDOF 7
ENDMDL
