MODEL 1
REMARK VINA RESULT:      -5.7      0.000      0.000
REMARK  7 active torsions:
REMARK  status: ('A' for Active; 'I' for Inactive)
REMARK    1  A    between atoms: C_2  and  C_3 
REMARK    2  A    between atoms: C_3  and  O_6 
REMARK    3  A    between atoms: C_3  and  C_4 
REMARK    4  A    between atoms: C_7  and  O_6 
REMARK    5  A    between atoms: C_9  and  C_10 
REMARK    6  A    between atoms: N_15  and  C_14 
REMARK    7  A    between atoms: N_20  and  C_19 
REMARK       I    between atoms: C_22  and  N_20 
ROOT
ATOM      1  C   LIG d   1       3.339  84.295 110.143  0.00  0.00     0.161 C 
ATOM      2  C   LIG d   1       3.144  82.964 109.739  0.00  0.00     0.016 C 
ATOM      3  C   LIG d   1       3.532  81.849 110.517  0.00  0.00     0.038 C 
ATOM      4  C   LIG d   1       4.009  81.990 111.829  0.00  0.00     0.028 C 
ATOM      5  C   LIG d   1       4.692  83.329 112.084  0.00  0.00    -0.047 C 
ATOM      6  C   LIG d   1       3.756  84.468 111.619  0.00  0.00     0.091 C 
ENDROOT
BRANCH   1   7
ATOM      7  O   LIG d   1       2.157  85.069 109.862  0.00  0.00    -0.368 OA
BRANCH   7   8
ATOM      8  C   LIG d   1       1.159  85.112 110.912  0.00  0.00     0.119 C 
BRANCH   8   9
ATOM      9  C   LIG d   1      -0.086  84.363 110.397  0.00  0.00     0.028 C 
ATOM     10  C   LIG d   1      -0.353  83.064 111.176  0.00  0.00     0.006 C 
ENDBRANCH   8   9
BRANCH   8  11
ATOM     11  C   LIG d   1       0.689  86.546 111.176  0.00  0.00     0.028 C 
ATOM     12  C   LIG d   1      -0.635  86.605 111.953  0.00  0.00     0.006 C 
ENDBRANCH   8  11
ENDBRANCH   7   8
ENDBRANCH   1   7
BRANCH   6  13
ATOM     13  N   LIG d   1       4.382  85.808 111.755  0.00  0.00    -0.311 N 
ATOM     14  C   LIG d   1       4.191  86.603 112.807  0.00  0.00     0.210 C 
ATOM     15  C   LIG d   1       4.915  87.952 112.738  0.00  0.00     0.109 C 
ATOM     16  O   LIG d   1       3.517  86.306 113.805  0.00  0.00    -0.276 OA
ATOM     17  H   LIG d   1       4.970  86.116 111.005  0.00  0.00     0.149 HD
ENDBRANCH   6  13
BRANCH   5  18
ATOM     18  N   LIG d   1       5.016  83.398 113.521  0.00  0.00     0.381 N 
ATOM     19  H   LIG d   1       4.333  83.954 113.996  0.00  0.00    -0.090 HD
ATOM     20  H   LIG d   1       5.913  83.837 113.632  0.00  0.00    -0.090 HD
ATOM     21  H   LIG d   1       5.037  82.481 113.910  0.00  0.00    -0.090 HD
ENDBRANCH   5  18
BRANCH   3  22
ATOM     22  C   LIG d   1       3.483  80.577 109.968  0.00  0.00     0.382 C 
ATOM     23  O   LIG d   1       4.546  79.953 109.733  0.00  0.00    -0.241 OA
ATOM     24  O   LIG d   1       2.390  80.062 109.663  0.00  0.00    -0.241 OA
ENDBRANCH   3  22
TORSDOF 7
ENDMDL
MODEL 2
REMARK VINA RESULT:      -5.5      2.377      6.034
REMARK  7 active torsions:
REMARK  status: ('A' for Active; 'I' for Inactive)
REMARK    1  A    between atoms: C_2  and  C_3 
REMARK    2  A    between atoms: C_3  and  O_6 
REMARK    3  A    between atoms: C_3  and  C_4 
REMARK    4  A    between atoms: C_7  and  O_6 
REMARK    5  A    between atoms: C_9  and  C_10 
REMARK    6  A    between atoms: N_15  and  C_14 
REMARK    7  A    between atoms: N_20  and  C_19 
REMARK       I    between atoms: C_22  and  N_20 
ROOT
ATOM      1  C   LIG d   1       4.411  85.225 112.636  0.00  0.00     0.161 C 
ATOM      2  C   LIG d   1       4.354  86.486 113.252  0.00  0.00     0.016 C 
ATOM      3  C   LIG d   1       3.514  87.532 112.807  0.00  0.00     0.038 C 
ATOM      4  C   LIG d   1       2.555  87.336 111.802  0.00  0.00     0.028 C 
ATOM      5  C   LIG d   1       2.928  86.233 110.817  0.00  0.00    -0.047 C 
ATOM      6  C   LIG d   1       3.293  84.956 111.608  0.00  0.00     0.091 C 
ENDROOT
BRANCH   1   7
ATOM      7  O   LIG d   1       4.427  84.191 113.640  0.00  0.00    -0.368 OA
BRANCH   7   8
ATOM      8  C   LIG d   1       3.133  83.751 114.123  0.00  0.00     0.119 C 
BRANCH   8   9
ATOM      9  C   LIG d   1       3.072  84.062 115.631  0.00  0.00     0.028 C 
ATOM     10  C   LIG d   1       2.074  85.186 115.958  0.00  0.00     0.006 C 
ENDBRANCH   8   9
BRANCH   8  11
ATOM     11  C   LIG d   1       2.986  82.231 114.016  0.00  0.00     0.028 C 
ATOM     12  C   LIG d   1       4.292  81.533 113.602  0.00  0.00     0.006 C 
ENDBRANCH   8  11
ENDBRANCH   7   8
ENDBRANCH   1   7
BRANCH   6  13
ATOM     13  N   LIG d   1       3.751  83.853 110.723  0.00  0.00    -0.311 N 
ATOM     14  C   LIG d   1       2.951  82.878 110.294  0.00  0.00     0.210 C 
ATOM     15  C   LIG d   1       3.630  81.829 109.407  0.00  0.00     0.109 C 
ATOM     16  O   LIG d   1       1.738  82.799 110.538  0.00  0.00    -0.276 OA
ATOM     17  H   LIG d   1       4.714  83.856 110.451  0.00  0.00     0.149 HD
ENDBRANCH   6  13
BRANCH   5  18
ATOM     18  N   LIG d   1       1.782  86.042 109.907  0.00  0.00     0.381 N 
ATOM     19  H   LIG d   1       2.033  85.411 109.173  0.00  0.00    -0.090 HD
ATOM     20  H   LIG d   1       1.543  86.927 109.495  0.00  0.00    -0.090 HD
ATOM     21  H   LIG d   1       1.002  85.682 110.412  0.00  0.00    -0.090 HD
ENDBRANCH   5  18
BRANCH   3  22
ATOM     22  C   LIG d   1       3.655  88.803 113.344  0.00  0.00     0.382 C 
ATOM     23  O   LIG d   1       4.557  89.565 112.921  0.00  0.00    -0.241 OA
ATOM     24  O   LIG d   1       2.920  89.180 114.276  0.00  0.00    -0.241 OA
ENDBRANCH   3  22
TORSDOF 7
ENDMDL
MODEL 3
REMARK VINA RESULT:      -5.5      2.237      4.640
REMARK  7 active torsions:
REMARK  status: ('A' for Active; 'I' for Inactive)
REMARK    1  A    between atoms: C_2  and  C_3 
REMARK    2  A    between atoms: C_3  and  O_6 
REMARK    3  A    between atoms: C_3  and  C_4 
REMARK    4  A    between atoms: C_7  and  O_6 
REMARK    5  A    between atoms: C_9  and  C_10 
REMARK    6  A    between atoms: N_15  and  C_14 
REMARK    7  A    between atoms: N_20  and  C_19 
REMARK       I    between atoms: C_22  and  N_20 
ROOT
ATOM      1  C   LIG d   1       2.941  84.636 112.518  0.00  0.00     0.161 C 
ATOM      2  C   LIG d   1       1.802  84.268 111.782  0.00  0.00     0.016 C 
ATOM      3  C   LIG d   1       0.957  85.200 111.138  0.00  0.00     0.038 C 
ATOM      4  C   LIG d   1       1.281  86.563 111.058  0.00  0.00     0.028 C 
ATOM      5  C   LIG d   1       2.151  87.047 112.213  0.00  0.00    -0.047 C 
ATOM      6  C   LIG d   1       3.371  86.108 112.349  0.00  0.00     0.091 C 
ENDROOT
BRANCH   1   7
ATOM      7  O   LIG d   1       4.035  83.754 112.199  0.00  0.00    -0.368 OA
BRANCH   7   8
ATOM      8  C   LIG d   1       3.719  82.342 112.140  0.00  0.00     0.119 C 
BRANCH   8   9
ATOM      9  C   LIG d   1       4.348  81.675 113.380  0.00  0.00     0.028 C 
ATOM     10  C   LIG d   1       3.442  81.771 114.620  0.00  0.00     0.006 C 
ENDBRANCH   8   9
BRANCH   8  11
ATOM     11  C   LIG d   1       4.388  81.670 110.937  0.00  0.00     0.028 C 
ATOM     12  C   LIG d   1       4.529  82.613 109.731  0.00  0.00     0.006 C 
ENDBRANCH   8  11
ENDBRANCH   7   8
ENDBRANCH   1   7
BRANCH   6  13
ATOM     13  N   LIG d   1       4.231  86.461 113.509  0.00  0.00    -0.311 N 
ATOM     14  C   LIG d   1       5.260  87.303 113.430  0.00  0.00     0.210 C 
ATOM     15  C   LIG d   1       6.027  87.512 114.739  0.00  0.00     0.109 C 
ATOM     16  O   LIG d   1       5.592  87.920 112.407  0.00  0.00    -0.276 OA
ATOM     17  H   LIG d   1       4.014  86.029 114.386  0.00  0.00     0.149 HD
ENDBRANCH   6  13
BRANCH   5  18
ATOM     18  N   LIG d   1       2.526  88.446 111.933  0.00  0.00     0.381 N 
ATOM     19  H   LIG d   1       2.194  89.039 112.667  0.00  0.00    -0.090 HD
ATOM     20  H   LIG d   1       2.090  88.733 111.074  0.00  0.00    -0.090 HD
ATOM     21  H   LIG d   1       3.516  88.524 111.854  0.00  0.00    -0.090 HD
ENDBRANCH   5  18
BRANCH   3  22
ATOM     22  C   LIG d   1      -0.248  84.777 110.597  0.00  0.00     0.382 C 
ATOM     23  O   LIG d   1      -0.890  85.532 109.829  0.00  0.00    -0.241 OA
ATOM     24  O   LIG d   1      -0.722  83.666 110.904  0.00  0.00    -0.241 OA
ENDBRANCH   3  22
TORSDOF 7
ENDMDL
MODEL 4
REMARK VINA RESULT:      -5.5      8.888     11.186
REMARK  7 active torsions:
REMARK  status: ('A' for Active; 'I' for Inactive)
REMARK    1  A    between atoms: C_2  and  C_3 
REMARK    2  A    between atoms: C_3  and  O_6 
REMARK    3  A    between atoms: C_3  and  C_4 
REMARK    4  A    between atoms: C_7  and  O_6 
REMARK    5  A    between atoms: C_9  and  C_10 
REMARK    6  A    between atoms: N_15  and  C_14 
REMARK    7  A    between atoms: N_20  and  C_19 
REMARK       I    between atoms: C_22  and  N_20 
ROOT
ATOM      1  C   LIG d   1      -3.051  77.190 115.992  0.00  0.00     0.161 C 
ATOM      2  C   LIG d   1      -3.268  78.157 114.996  0.00  0.00     0.016 C 
ATOM      3  C   LIG d   1      -2.404  78.345 113.893  0.00  0.00     0.038 C 
ATOM      4  C   LIG d   1      -1.338  77.473 113.629  0.00  0.00     0.028 C 
ATOM      5  C   LIG d   1      -0.785  76.796 114.879  0.00  0.00    -0.047 C 
ATOM      6  C   LIG d   1      -1.955  76.156 115.662  0.00  0.00     0.091 C 
ENDROOT
BRANCH   1   7
ATOM      7  O   LIG d   1      -4.291  76.524 116.305  0.00  0.00    -0.368 OA
BRANCH   7   8
ATOM      8  C   LIG d   1      -5.126  76.169 115.175  0.00  0.00     0.119 C 
BRANCH   8   9
ATOM      9  C   LIG d   1      -6.579  76.527 115.543  0.00  0.00     0.028 C 
ATOM     10  C   LIG d   1      -6.670  77.349 116.839  0.00  0.00     0.006 C 
ENDBRANCH   8   9
BRANCH   8  11
ATOM     11  C   LIG d   1      -5.129  74.656 114.938  0.00  0.00     0.028 C 
ATOM     12  C   LIG d   1      -5.798  73.875 116.080  0.00  0.00     0.006 C 
ENDBRANCH   8  11
ENDBRANCH   7   8
ENDBRANCH   1   7
BRANCH   6  13
ATOM     13  N   LIG d   1      -1.512  75.545 116.943  0.00  0.00    -0.311 N 
ATOM     14  C   LIG d   1      -1.156  74.268 117.061  0.00  0.00     0.210 C 
ATOM     15  C   LIG d   1      -0.752  73.837 118.474  0.00  0.00     0.109 C 
ATOM     16  O   LIG d   1      -1.105  73.458 116.122  0.00  0.00    -0.276 OA
ATOM     17  H   LIG d   1      -1.494  76.139 117.749  0.00  0.00     0.149 HD
ENDBRANCH   6  13
BRANCH   5  18
ATOM     18  N   LIG d   1       0.226  75.814 114.444  0.00  0.00     0.381 N 
ATOM     19  H   LIG d   1       0.998  76.288 114.021  0.00  0.00    -0.090 HD
ATOM     20  H   LIG d   1      -0.186  75.206 113.759  0.00  0.00    -0.090 HD
ATOM     21  H   LIG d   1       0.541  75.281 115.225  0.00  0.00    -0.090 HD
ENDBRANCH   5  18
BRANCH   3  22
ATOM     22  C   LIG d   1      -2.580  79.441 113.062  0.00  0.00     0.382 C 
ATOM     23  O   LIG d   1      -3.359  80.365 113.399  0.00  0.00    -0.241 OA
ATOM     24  O   LIG d   1      -2.003  79.497 111.959  0.00  0.00    -0.241 OA
ENDBRANCH   3  22
TORSDOF 7
ENDMDL
MODEL 5
REMARK VINA RESULT:      -5.4      2.224      3.836
REMARK  7 active torsions:
REMARK  status: ('A' for Active; 'I' for Inactive)
REMARK    1  A    between atoms: C_2  and  C_3 
REMARK    2  A    between atoms: C_3  and  O_6 
REMARK    3  A    between atoms: C_3  and  C_4 
REMARK    4  A    between atoms: C_7  and  O_6 
REMARK    5  A    between atoms: C_9  and  C_10 
REMARK    6  A    between atoms: N_15  and  C_14 
REMARK    7  A    between atoms: N_20  and  C_19 
REMARK       I    between atoms: C_22  and  N_20 
ROOT
ATOM      1  C   LIG d   1       3.128  82.896 111.712  0.00  0.00     0.161 C 
ATOM      2  C   LIG d   1       3.462  81.722 111.016  0.00  0.00     0.016 C 
ATOM      3  C   LIG d   1       2.545  81.009 110.210  0.00  0.00     0.038 C 
ATOM      4  C   LIG d   1       1.265  81.507 109.923  0.00  0.00     0.028 C 
ATOM      5  C   LIG d   1       0.717  82.427 111.008  0.00  0.00    -0.047 C 
ATOM      6  C   LIG d   1       1.769  83.515 111.323  0.00  0.00     0.091 C 
ENDROOT
BRANCH   1   7
ATOM      7  O   LIG d   1       4.182  83.868 111.565  0.00  0.00    -0.368 OA
BRANCH   7   8
ATOM      8  C   LIG d   1       4.933  84.180 112.764  0.00  0.00     0.119 C 
BRANCH   8   9
ATOM      9  C   LIG d   1       4.323  83.362 113.919  0.00  0.00     0.028 C 
ATOM     10  C   LIG d   1       3.868  84.249 115.090  0.00  0.00     0.006 C 
ENDBRANCH   8   9
BRANCH   8  11
ATOM     11  C   LIG d   1       4.755  85.647 113.167  0.00  0.00     0.028 C 
ATOM     12  C   LIG d   1       4.725  86.597 111.960  0.00  0.00     0.006 C 
ENDBRANCH   8  11
ENDBRANCH   7   8
ENDBRANCH   1   7
BRANCH   6  13
ATOM     13  N   LIG d   1       1.347  84.407 112.434  0.00  0.00    -0.311 N 
ATOM     14  C   LIG d   1       1.159  85.718 112.290  0.00  0.00     0.210 C 
ATOM     15  C   LIG d   1       0.744  86.456 113.567  0.00  0.00     0.109 C 
ATOM     16  O   LIG d   1       1.265  86.335 111.219  0.00  0.00    -0.276 OA
ATOM     17  H   LIG d   1       1.208  83.985 113.331  0.00  0.00     0.149 HD
ENDBRANCH   6  13
BRANCH   5  18
ATOM     18  N   LIG d   1      -0.559  82.982 110.519  0.00  0.00     0.381 N 
ATOM     19  H   LIG d   1      -0.450  83.956 110.317  0.00  0.00    -0.090 HD
ATOM     20  H   LIG d   1      -1.253  82.885 111.239  0.00  0.00    -0.090 HD
ATOM     21  H   LIG d   1      -0.850  82.497 109.699  0.00  0.00    -0.090 HD
ENDBRANCH   5  18
BRANCH   3  22
ATOM     22  C   LIG d   1       2.893  79.762 109.713  0.00  0.00     0.382 C 
ATOM     23  O   LIG d   1       2.001  78.917 109.459  0.00  0.00    -0.241 OA
ATOM     24  O   LIG d   1       4.090  79.455 109.557  0.00  0.00    -0.241 OA
ENDBRANCH   3  22
TORSDOF 7
ENDMDL
MODEL 6
REMARK VINA RESULT:      -5.4      2.330      5.351
REMARK  7 active torsions:
REMARK  status: ('A' for Active; 'I' for Inactive)
REMARK    1  A    between atoms: C_2  and  C_3 
REMARK    2  A    between atoms: C_3  and  O_6 
REMARK    3  A    between atoms: C_3  and  C_4 
REMARK    4  A    between atoms: C_7  and  O_6 
REMARK    5  A    between atoms: C_9  and  C_10 
REMARK    6  A    between atoms: N_15  and  C_14 
REMARK    7  A    between atoms: N_20  and  C_19 
REMARK       I    between atoms: C_22  and  N_20 
ROOT
ATOM      1  C   LIG d   1       3.451  85.150 111.621  0.00  0.00     0.161 C 
ATOM      2  C   LIG d   1       4.078  86.406 111.647  0.00  0.00     0.016 C 
ATOM      3  C   LIG d   1       4.423  87.079 112.842  0.00  0.00     0.038 C 
ATOM      4  C   LIG d   1       4.300  86.469 114.099  0.00  0.00     0.028 C 
ATOM      5  C   LIG d   1       3.207  85.407 114.152  0.00  0.00    -0.047 C 
ATOM      6  C   LIG d   1       3.409  84.419 112.980  0.00  0.00     0.091 C 
ENDROOT
BRANCH   1   7
ATOM      7  O   LIG d   1       4.070  84.315 110.623  0.00  0.00    -0.368 OA
BRANCH   7   8
ATOM      8  C   LIG d   1       3.248  83.970 109.481  0.00  0.00     0.119 C 
BRANCH   8   9
ATOM      9  C   LIG d   1       1.819  84.468 109.773  0.00  0.00     0.028 C 
ATOM     10  C   LIG d   1       0.780  83.335 109.714  0.00  0.00     0.006 C 
ENDBRANCH   8   9
BRANCH   8  11
ATOM     11  C   LIG d   1       3.124  82.452 109.321  0.00  0.00     0.028 C 
ATOM     12  C   LIG d   1       4.400  81.703 109.736  0.00  0.00     0.006 C 
ENDBRANCH   8  11
ENDBRANCH   7   8
ENDBRANCH   1   7
BRANCH   6  13
ATOM     13  N   LIG d   1       2.333  83.397 112.908  0.00  0.00    -0.311 N 
ATOM     14  C   LIG d   1       2.561  82.087 112.984  0.00  0.00     0.210 C 
ATOM     15  C   LIG d   1       1.313  81.206 112.868  0.00  0.00     0.109 C 
ATOM     16  O   LIG d   1       3.674  81.572 113.169  0.00  0.00    -0.276 OA
ATOM     17  H   LIG d   1       1.396  83.728 112.790  0.00  0.00     0.149 HD
ENDBRANCH   6  13
BRANCH   5  18
ATOM     18  N   LIG d   1       3.280  84.758 115.474  0.00  0.00     0.381 N 
ATOM     19  H   LIG d   1       3.623  83.823 115.374  0.00  0.00    -0.090 HD
ATOM     20  H   LIG d   1       2.356  84.714 115.866  0.00  0.00    -0.090 HD
ATOM     21  H   LIG d   1       3.880  85.277 116.077  0.00  0.00    -0.090 HD
ENDBRANCH   5  18
BRANCH   3  22
ATOM     22  C   LIG d   1       4.861  88.394 112.788  0.00  0.00     0.382 C 
ATOM     23  O   LIG d   1       6.042  88.648 112.448  0.00  0.00    -0.241 OA
ATOM     24  O   LIG d   1       4.104  89.326 113.118  0.00  0.00    -0.241 OA
ENDBRANCH   3  22
TORSDOF 7
ENDMDL
MODEL 7
REMARK VINA RESULT:      -5.4      2.174      5.279
REMARK  7 active torsions:
REMARK  status: ('A' for Active; 'I' for Inactive)
REMARK    1  A    between atoms: C_2  and  C_3 
REMARK    2  A    between atoms: C_3  and  O_6 
REMARK    3  A    between atoms: C_3  and  C_4 
REMARK    4  A    between atoms: C_7  and  O_6 
REMARK    5  A    between atoms: C_9  and  C_10 
REMARK    6  A    between atoms: N_15  and  C_14 
REMARK    7  A    between atoms: N_20  and  C_19 
REMARK       I    between atoms: C_22  and  N_20 
ROOT
ATOM      1  C   LIG d   1       3.025  85.799 111.870  0.00  0.00     0.161 C 
ATOM      2  C   LIG d   1       3.623  87.053 112.075  0.00  0.00     0.016 C 
ATOM      3  C   LIG d   1       4.386  87.374 113.222  0.00  0.00     0.038 C 
ATOM      4  C   LIG d   1       4.732  86.406 114.176  0.00  0.00     0.028 C 
ATOM      5  C   LIG d   1       3.731  85.259 114.266  0.00  0.00    -0.047 C 
ATOM      6  C   LIG d   1       3.484  84.696 112.848  0.00  0.00     0.091 C 
ENDROOT
BRANCH   1   7
ATOM      7  O   LIG d   1       3.230  85.377 110.507  0.00  0.00    -0.368 OA
BRANCH   7   8
ATOM      8  C   LIG d   1       2.055  85.367 109.660  0.00  0.00     0.119 C 
BRANCH   8   9
ATOM      9  C   LIG d   1       0.886  85.942 110.483  0.00  0.00     0.028 C 
ATOM     10  C   LIG d   1      -0.472  85.355 110.063  0.00  0.00     0.006 C 
ENDBRANCH   8   9
BRANCH   8  11
ATOM     11  C   LIG d   1       1.636  83.937 109.305  0.00  0.00     0.028 C 
ATOM     12  C   LIG d   1       2.817  82.953 109.306  0.00  0.00     0.006 C 
ENDBRANCH   8  11
ENDBRANCH   7   8
ENDBRANCH   1   7
BRANCH   6  13
ATOM     13  N   LIG d   1       2.454  83.625 112.834  0.00  0.00    -0.311 N 
ATOM     14  C   LIG d   1       2.744  82.327 112.898  0.00  0.00     0.210 C 
ATOM     15  C   LIG d   1       1.533  81.390 112.849  0.00  0.00     0.109 C 
ATOM     16  O   LIG d   1       3.888  81.864 113.023  0.00  0.00    -0.276 OA
ATOM     17  H   LIG d   1       1.497  83.914 112.766  0.00  0.00     0.149 HD
ENDBRANCH   6  13
BRANCH   5  18
ATOM     18  N   LIG d   1       4.283  84.257 115.197  0.00  0.00     0.381 N 
ATOM     19  H   LIG d   1       3.866  83.365 115.022  0.00  0.00    -0.090 HD
ATOM     20  H   LIG d   1       4.060  84.530 116.138  0.00  0.00    -0.090 HD
ATOM     21  H   LIG d   1       5.272  84.197 115.086  0.00  0.00    -0.090 HD
ENDBRANCH   5  18
BRANCH   3  22
ATOM     22  C   LIG d   1       4.778  88.685 113.442  0.00  0.00     0.382 C 
ATOM     23  O   LIG d   1       5.531  89.261 112.620  0.00  0.00    -0.241 OA
ATOM     24  O   LIG d   1       4.424  89.286 114.474  0.00  0.00    -0.241 OA
ENDBRANCH   3  22
TORSDOF 7
ENDMDL
MODEL 8
REMARK VINA RESULT:      -5.3     13.220     15.386
REMARK  7 active torsions:
REMARK  status: ('A' for Active; 'I' for Inactive)
REMARK    1  A    between atoms: C_2  and  C_3 
REMARK    2  A    between atoms: C_3  and  O_6 
REMARK    3  A    between atoms: C_3  and  C_4 
REMARK    4  A    between atoms: C_7  and  O_6 
REMARK    5  A    between atoms: C_9  and  C_10 
REMARK    6  A    between atoms: N_15  and  C_14 
REMARK    7  A    between atoms: N_20  and  C_19 
REMARK       I    between atoms: C_22  and  N_20 
ROOT
ATOM      1  C   LIG d   1      -8.180  76.285 117.269  0.00  0.00     0.161 C 
ATOM      2  C   LIG d   1      -9.046  75.229 116.941  0.00  0.00     0.016 C 
ATOM      3  C   LIG d   1     -10.367  75.123 117.434  0.00  0.00     0.038 C 
ATOM      4  C   LIG d   1     -10.966  76.152 118.175  0.00  0.00     0.028 C 
ATOM      5  C   LIG d   1      -9.966  77.002 118.951  0.00  0.00    -0.047 C 
ATOM      6  C   LIG d   1      -8.854  77.474 117.986  0.00  0.00     0.091 C 
ENDROOT
BRANCH   1   7
ATOM      7  O   LIG d   1      -7.491  76.738 116.087  0.00  0.00    -0.368 OA
BRANCH   7   8
ATOM      8  C   LIG d   1      -6.060  76.514 116.058  0.00  0.00     0.119 C 
BRANCH   8   9
ATOM      9  C   LIG d   1      -5.784  75.427 115.001  0.00  0.00     0.028 C 
ATOM     10  C   LIG d   1      -5.685  74.021 115.617  0.00  0.00     0.006 C 
ENDBRANCH   8   9
BRANCH   8  11
ATOM     11  C   LIG d   1      -5.561  75.928 117.382  0.00  0.00     0.028 C 
ATOM     12  C   LIG d   1      -4.471  76.789 118.041  0.00  0.00     0.006 C 
ENDBRANCH   8  11
ENDBRANCH   7   8
ENDBRANCH   1   7
BRANCH   6  13
ATOM     13  N   LIG d   1      -7.788  78.242 118.682  0.00  0.00    -0.311 N 
ATOM     14  C   LIG d   1      -7.358  79.435 118.273  0.00  0.00     0.210 C 
ATOM     15  C   LIG d   1      -6.239  80.044 119.123  0.00  0.00     0.109 C 
ATOM     16  O   LIG d   1      -7.820  80.060 117.307  0.00  0.00    -0.276 OA
ATOM     17  H   LIG d   1      -7.380  77.823 119.494  0.00  0.00     0.149 HD
ENDBRANCH   6  13
BRANCH   5  18
ATOM     18  N   LIG d   1     -10.710  78.118 119.565  0.00  0.00     0.381 N 
ATOM     19  H   LIG d   1     -10.137  78.937 119.586  0.00  0.00    -0.090 HD
ATOM     20  H   LIG d   1     -10.943  77.872 120.511  0.00  0.00    -0.090 HD
ATOM     21  H   LIG d   1     -11.542  78.299 119.047  0.00  0.00    -0.090 HD
ENDBRANCH   5  18
BRANCH   3  22
ATOM     22  C   LIG d   1     -11.089  73.958 117.221  0.00  0.00     0.382 C 
ATOM     23  O   LIG d   1     -10.523  72.951 116.733  0.00  0.00    -0.241 OA
ATOM     24  O   LIG d   1     -12.309  73.917 117.469  0.00  0.00    -0.241 OA
ENDBRANCH   3  22
TORSDOF 7
ENDMDL
MODEL 9
REMARK VINA RESULT:      -5.3     12.546     14.661
REMARK  7 active torsions:
REMARK  status: ('A' for Active; 'I' for Inactive)
REMARK    1  A    between atoms: C_2  and  C_3 
REMARK    2  A    between atoms: C_3  and  O_6 
REMARK    3  A    between atoms: C_3  and  C_4 
REMARK    4  A    between atoms: C_7  and  O_6 
REMARK    5  A    between atoms: C_9  and  C_10 
REMARK    6  A    between atoms: N_15  and  C_14 
REMARK    7  A    between atoms: N_20  and  C_19 
REMARK       I    between atoms: C_22  and  N_20 
ROOT
ATOM      1  C   LIG d   1      -8.136  76.488 117.081  0.00  0.00     0.161 C 
ATOM      2  C   LIG d   1      -7.564  75.904 115.939  0.00  0.00     0.016 C 
ATOM      3  C   LIG d   1      -6.259  76.199 115.484  0.00  0.00     0.038 C 
ATOM      4  C   LIG d   1      -5.375  76.992 116.232  0.00  0.00     0.028 C 
ATOM      5  C   LIG d   1      -6.080  78.004 117.128  0.00  0.00    -0.047 C 
ATOM      6  C   LIG d   1      -7.147  77.270 117.971  0.00  0.00     0.091 C 
ENDROOT
BRANCH   1   7
ATOM      7  O   LIG d   1      -8.819  75.482 117.856  0.00  0.00    -0.368 OA
BRANCH   7   8
ATOM      8  C   LIG d   1     -10.266  75.548 117.852  0.00  0.00     0.119 C 
BRANCH   8   9
ATOM      9  C   LIG d   1     -10.734  75.540 119.320  0.00  0.00     0.028 C 
ATOM     10  C   LIG d   1     -11.168  76.934 119.805  0.00  0.00     0.006 C 
ENDBRANCH   8   9
BRANCH   8  11
ATOM     11  C   LIG d   1     -10.879  74.293 117.224  0.00  0.00     0.028 C 
ATOM     12  C   LIG d   1     -12.354  74.094 117.609  0.00  0.00     0.006 C 
ENDBRANCH   8  11
ENDBRANCH   7   8
ENDBRANCH   1   7
BRANCH   6  13
ATOM     13  N   LIG d   1      -7.941  78.201 118.815  0.00  0.00    -0.311 N 
ATOM     14  C   LIG d   1      -8.277  79.432 118.433  0.00  0.00     0.210 C 
ATOM     15  C   LIG d   1      -9.081  80.232 119.463  0.00  0.00     0.109 C 
ATOM     16  O   LIG d   1      -8.014  79.925 117.326  0.00  0.00    -0.276 OA
ATOM     17  H   LIG d   1      -8.224  77.870 119.717  0.00  0.00     0.149 HD
ENDBRANCH   6  13
BRANCH   5  18
ATOM     18  N   LIG d   1      -5.049  78.666 117.950  0.00  0.00     0.381 N 
ATOM     19  H   LIG d   1      -4.662  79.441 117.449  0.00  0.00    -0.090 HD
ATOM     20  H   LIG d   1      -4.310  78.010 118.135  0.00  0.00    -0.090 HD
ATOM     21  H   LIG d   1      -5.446  78.981 118.807  0.00  0.00    -0.090 HD
ENDBRANCH   5  18
BRANCH   3  22
ATOM     22  C   LIG d   1      -5.839  75.732 114.248  0.00  0.00     0.382 C 
ATOM     23  O   LIG d   1      -5.116  74.709 114.177  0.00  0.00    -0.241 OA
ATOM     24  O   LIG d   1      -6.138  76.345 113.206  0.00  0.00    -0.241 OA
ENDBRANCH   3  22
TORSDOF 7
ENDMDL
