MODEL 1
REMARK VINA RESULT:      -5.9      0.000      0.000
REMARK  7 active torsions:
REMARK  status: ('A' for Active; 'I' for Inactive)
REMARK    1  A    between atoms: C_2  and  C_3 
REMARK    2  A    between atoms: C_3  and  O_6 
REMARK    3  A    between atoms: C_3  and  C_4 
REMARK    4  A    between atoms: C_7  and  O_6 
REMARK    5  A    between atoms: C_9  and  C_10 
REMARK    6  A    between atoms: N_15  and  C_14 
REMARK    7  A    between atoms: N_20  and  C_19 
REMARK       I    between atoms: C_22  and  N_20 
ROOT
ATOM      1  C   LIG d   1       2.218  84.372 110.056  0.00  0.00     0.161 C 
ATOM      2  C   LIG d   1       1.238  85.343 110.320  0.00  0.00     0.016 C 
ATOM      3  C   LIG d   1      -0.082  85.028 110.719  0.00  0.00     0.038 C 
ATOM      4  C   LIG d   1      -0.469  83.716 111.030  0.00  0.00     0.028 C 
ATOM      5  C   LIG d   1       0.341  82.655 110.293  0.00  0.00    -0.047 C 
ATOM      6  C   LIG d   1       1.846  82.941 110.497  0.00  0.00     0.091 C 
ENDROOT
BRANCH   1   7
ATOM      7  O   LIG d   1       3.471  84.769 110.648  0.00  0.00    -0.368 OA
BRANCH   7   8
ATOM      8  C   LIG d   1       3.382  85.641 111.802  0.00  0.00     0.119 C 
BRANCH   8   9
ATOM      9  C   LIG d   1       4.395  86.785 111.596  0.00  0.00     0.028 C 
ATOM     10  C   LIG d   1       4.428  87.760 112.785  0.00  0.00     0.006 C 
ENDBRANCH   8   9
BRANCH   8  11
ATOM     11  C   LIG d   1       3.834  84.924 113.078  0.00  0.00     0.028 C 
ATOM     12  C   LIG d   1       2.665  84.590 114.019  0.00  0.00     0.006 C 
ENDBRANCH   8  11
ENDBRANCH   7   8
ENDBRANCH   1   7
BRANCH   6  13
ATOM     13  N   LIG d   1       2.710  81.998 109.739  0.00  0.00    -0.311 N 
ATOM     14  C   LIG d   1       3.174  80.858 110.249  0.00  0.00     0.210 C 
ATOM     15  C   LIG d   1       4.064  80.043 109.305  0.00  0.00     0.109 C 
ATOM     16  O   LIG d   1       2.906  80.429 111.381  0.00  0.00    -0.276 OA
ATOM     17  H   LIG d   1       2.951  82.253 108.802  0.00  0.00     0.149 HD
ENDBRANCH   6  13
BRANCH   5  18
ATOM     18  N   LIG d   1      -0.073  81.338 110.812  0.00  0.00     0.381 N 
ATOM     19  H   LIG d   1      -1.049  81.352 111.032  0.00  0.00    -0.090 HD
ATOM     20  H   LIG d   1       0.437  81.147 111.657  0.00  0.00    -0.090 HD
ATOM     21  H   LIG d   1       0.113  80.630 110.136  0.00  0.00    -0.090 HD
ENDBRANCH   5  18
BRANCH   3  22
ATOM     22  C   LIG d   1      -1.041  86.028 110.772  0.00  0.00     0.382 C 
ATOM     23  O   LIG d   1      -1.971  86.050 109.931  0.00  0.00    -0.241 OA
ATOM     24  O   LIG d   1      -0.962  86.934 111.623  0.00  0.00    -0.241 OA
ENDBRANCH   3  22
TORSDOF 7
ENDMDL
MODEL 2
REMARK VINA RESULT:      -5.7      2.585      5.015
REMARK  7 active torsions:
REMARK  status: ('A' for Active; 'I' for Inactive)
REMARK    1  A    between atoms: C_2  and  C_3 
REMARK    2  A    between atoms: C_3  and  O_6 
REMARK    3  A    between atoms: C_3  and  C_4 
REMARK    4  A    between atoms: C_7  and  O_6 
REMARK    5  A    between atoms: C_9  and  C_10 
REMARK    6  A    between atoms: N_15  and  C_14 
REMARK    7  A    between atoms: N_20  and  C_19 
REMARK       I    between atoms: C_22  and  N_20 
ROOT
ATOM      1  C   LIG d   1       1.797  82.852 112.390  0.00  0.00     0.161 C 
ATOM      2  C   LIG d   1       0.730  81.941 112.319  0.00  0.00     0.016 C 
ATOM      3  C   LIG d   1      -0.598  82.321 112.017  0.00  0.00     0.038 C 
ATOM      4  C   LIG d   1      -0.923  83.625 111.615  0.00  0.00     0.028 C 
ATOM      5  C   LIG d   1       0.030  84.683 112.162  0.00  0.00    -0.047 C 
ATOM      6  C   LIG d   1       1.483  84.261 111.846  0.00  0.00     0.091 C 
ENDROOT
BRANCH   1   7
ATOM      7  O   LIG d   1       2.952  82.303 111.725  0.00  0.00    -0.368 OA
BRANCH   7   8
ATOM      8  C   LIG d   1       2.722  81.735 110.412  0.00  0.00     0.119 C 
BRANCH   8   9
ATOM      9  C   LIG d   1       3.535  80.430 110.323  0.00  0.00     0.028 C 
ATOM     10  C   LIG d   1       2.679  79.234 109.874  0.00  0.00     0.006 C 
ENDBRANCH   8   9
BRANCH   8  11
ATOM     11  C   LIG d   1       3.281  82.638 109.308  0.00  0.00     0.028 C 
ATOM     12  C   LIG d   1       4.567  83.367 109.729  0.00  0.00     0.006 C 
ENDBRANCH   8  11
ENDBRANCH   7   8
ENDBRANCH   1   7
BRANCH   6  13
ATOM     13  N   LIG d   1       2.483  85.198 112.420  0.00  0.00    -0.311 N 
ATOM     14  C   LIG d   1       2.953  86.260 111.766  0.00  0.00     0.210 C 
ATOM     15  C   LIG d   1       3.992  87.083 112.533  0.00  0.00     0.109 C 
ATOM     16  O   LIG d   1       2.583  86.616 110.637  0.00  0.00    -0.276 OA
ATOM     17  H   LIG d   1       2.815  85.002 113.344  0.00  0.00     0.149 HD
ENDBRANCH   6  13
BRANCH   5  18
ATOM     18  N   LIG d   1      -0.342  85.975 111.554  0.00  0.00     0.381 N 
ATOM     19  H   LIG d   1       0.203  86.709 111.960  0.00  0.00    -0.090 HD
ATOM     20  H   LIG d   1      -1.311  86.158 111.747  0.00  0.00    -0.090 HD
ATOM     21  H   LIG d   1      -0.192  85.944 110.570  0.00  0.00    -0.090 HD
ENDBRANCH   5  18
BRANCH   3  22
ATOM     22  C   LIG d   1      -1.625  81.400 112.155  0.00  0.00     0.382 C 
ATOM     23  O   LIG d   1      -1.434  80.198 111.848  0.00  0.00    -0.241 OA
ATOM     24  O   LIG d   1      -2.752  81.763 112.541  0.00  0.00    -0.241 OA
ENDBRANCH   3  22
TORSDOF 7
ENDMDL
MODEL 3
REMARK VINA RESULT:      -5.5      2.426      3.822
REMARK  7 active torsions:
REMARK  status: ('A' for Active; 'I' for Inactive)
REMARK    1  A    between atoms: C_2  and  C_3 
REMARK    2  A    between atoms: C_3  and  O_6 
REMARK    3  A    between atoms: C_3  and  C_4 
REMARK    4  A    between atoms: C_7  and  O_6 
REMARK    5  A    between atoms: C_9  and  C_10 
REMARK    6  A    between atoms: N_15  and  C_14 
REMARK    7  A    between atoms: N_20  and  C_19 
REMARK       I    between atoms: C_22  and  N_20 
ROOT
ATOM      1  C   LIG d   1       3.643  84.736 112.217  0.00  0.00     0.161 C 
ATOM      2  C   LIG d   1       3.814  86.067 112.633  0.00  0.00     0.016 C 
ATOM      3  C   LIG d   1       3.064  87.147 112.115  0.00  0.00     0.038 C 
ATOM      4  C   LIG d   1       1.978  86.948 111.248  0.00  0.00     0.028 C 
ATOM      5  C   LIG d   1       2.095  85.676 110.414  0.00  0.00    -0.047 C 
ATOM      6  C   LIG d   1       2.388  84.485 111.354  0.00  0.00     0.091 C 
ENDROOT
BRANCH   1   7
ATOM      7  O   LIG d   1       3.647  83.862 113.363  0.00  0.00    -0.368 OA
BRANCH   7   8
ATOM      8  C   LIG d   1       3.047  84.391 114.570  0.00  0.00     0.119 C 
BRANCH   8   9
ATOM      9  C   LIG d   1       4.030  84.131 115.728  0.00  0.00     0.028 C 
ATOM     10  C   LIG d   1       4.780  85.404 116.157  0.00  0.00     0.006 C 
ENDBRANCH   8   9
BRANCH   8  11
ATOM     11  C   LIG d   1       1.773  83.626 114.941  0.00  0.00     0.028 C 
ATOM     12  C   LIG d   1       1.599  83.458 116.459  0.00  0.00     0.006 C 
ENDBRANCH   8  11
ENDBRANCH   7   8
ENDBRANCH   1   7
BRANCH   6  13
ATOM     13  N   LIG d   1       2.600  83.215 110.611  0.00  0.00    -0.311 N 
ATOM     14  C   LIG d   1       1.625  82.346 110.351  0.00  0.00     0.210 C 
ATOM     15  C   LIG d   1       2.063  81.091 109.590  0.00  0.00     0.109 C 
ATOM     16  O   LIG d   1       0.433  82.510 110.651  0.00  0.00    -0.276 OA
ATOM     17  H   LIG d   1       3.532  83.017 110.303  0.00  0.00     0.149 HD
ENDBRANCH   6  13
BRANCH   5  18
ATOM     18  N   LIG d   1       0.837  85.521 109.660  0.00  0.00     0.381 N 
ATOM     19  H   LIG d   1       0.116  85.187 110.268  0.00  0.00    -0.090 HD
ATOM     20  H   LIG d   1       0.975  84.842 108.933  0.00  0.00    -0.090 HD
ATOM     21  H   LIG d   1       0.568  86.394 109.263  0.00  0.00    -0.090 HD
ENDBRANCH   5  18
BRANCH   3  22
ATOM     22  C   LIG d   1       3.422  88.448 112.432  0.00  0.00     0.382 C 
ATOM     23  O   LIG d   1       4.632  88.780 112.444  0.00  0.00    -0.241 OA
ATOM     24  O   LIG d   1       2.554  89.283 112.751  0.00  0.00    -0.241 OA
ENDBRANCH   3  22
TORSDOF 7
ENDMDL
MODEL 4
REMARK VINA RESULT:      -5.5      2.535      4.097
REMARK  7 active torsions:
REMARK  status: ('A' for Active; 'I' for Inactive)
REMARK    1  A    between atoms: C_2  and  C_3 
REMARK    2  A    between atoms: C_3  and  O_6 
REMARK    3  A    between atoms: C_3  and  C_4 
REMARK    4  A    between atoms: C_7  and  O_6 
REMARK    5  A    between atoms: C_9  and  C_10 
REMARK    6  A    between atoms: N_15  and  C_14 
REMARK    7  A    between atoms: N_20  and  C_19 
REMARK       I    between atoms: C_22  and  N_20 
ROOT
ATOM      1  C   LIG d   1       3.552  84.600 112.309  0.00  0.00     0.161 C 
ATOM      2  C   LIG d   1       3.949  85.891 112.695  0.00  0.00     0.016 C 
ATOM      3  C   LIG d   1       3.365  87.071 112.180  0.00  0.00     0.038 C 
ATOM      4  C   LIG d   1       2.234  87.038 111.351  0.00  0.00     0.028 C 
ATOM      5  C   LIG d   1       2.115  85.753 110.538  0.00  0.00    -0.047 C 
ATOM      6  C   LIG d   1       2.244  84.543 111.491  0.00  0.00     0.091 C 
ENDROOT
BRANCH   1   7
ATOM      7  O   LIG d   1       3.453  83.752 113.471  0.00  0.00    -0.368 OA
BRANCH   7   8
ATOM      8  C   LIG d   1       2.168  83.735 114.140  0.00  0.00     0.119 C 
BRANCH   8   9
ATOM      9  C   LIG d   1       2.349  84.420 115.508  0.00  0.00     0.028 C 
ATOM     10  C   LIG d   1       1.665  85.796 115.572  0.00  0.00     0.006 C 
ENDBRANCH   8   9
BRANCH   8  11
ATOM     11  C   LIG d   1       1.725  82.304 114.458  0.00  0.00     0.028 C 
ATOM     12  C   LIG d   1       2.048  81.887 115.902  0.00  0.00     0.006 C 
ENDBRANCH   8  11
ENDBRANCH   7   8
ENDBRANCH   1   7
BRANCH   6  13
ATOM     13  N   LIG d   1       2.224  83.246 110.766  0.00  0.00    -0.311 N 
ATOM     14  C   LIG d   1       1.117  82.529 110.578  0.00  0.00     0.210 C 
ATOM     15  C   LIG d   1       1.321  81.212 109.822  0.00  0.00     0.109 C 
ATOM     16  O   LIG d   1      -0.018  82.874 110.936  0.00  0.00    -0.276 OA
ATOM     17  H   LIG d   1       3.097  82.907 110.414  0.00  0.00     0.149 HD
ENDBRANCH   6  13
BRANCH   5  18
ATOM     18  N   LIG d   1       0.824  85.794 109.827  0.00  0.00     0.381 N 
ATOM     19  H   LIG d   1       0.978  85.982 108.856  0.00  0.00    -0.090 HD
ATOM     20  H   LIG d   1       0.266  86.538 110.207  0.00  0.00    -0.090 HD
ATOM     21  H   LIG d   1       0.349  84.925 109.933  0.00  0.00    -0.090 HD
ENDBRANCH   5  18
BRANCH   3  22
ATOM     22  C   LIG d   1       3.940  88.302 112.461  0.00  0.00     0.382 C 
ATOM     23  O   LIG d   1       3.210  89.296 112.691  0.00  0.00    -0.241 OA
ATOM     24  O   LIG d   1       5.178  88.440 112.444  0.00  0.00    -0.241 OA
ENDBRANCH   3  22
TORSDOF 7
ENDMDL
MODEL 5
REMARK VINA RESULT:      -5.3      3.183      5.363
REMARK  7 active torsions:
REMARK  status: ('A' for Active; 'I' for Inactive)
REMARK    1  A    between atoms: C_2  and  C_3 
REMARK    2  A    between atoms: C_3  and  O_6 
REMARK    3  A    between atoms: C_3  and  C_4 
REMARK    4  A    between atoms: C_7  and  O_6 
REMARK    5  A    between atoms: C_9  and  C_10 
REMARK    6  A    between atoms: N_15  and  C_14 
REMARK    7  A    between atoms: N_20  and  C_19 
REMARK       I    between atoms: C_22  and  N_20 
ROOT
ATOM      1  C   LIG d   1       2.389  86.622 112.613  0.00  0.00     0.161 C 
ATOM      2  C   LIG d   1       2.810  87.961 112.655  0.00  0.00     0.016 C 
ATOM      3  C   LIG d   1       3.711  88.464 113.621  0.00  0.00     0.038 C 
ATOM      4  C   LIG d   1       4.375  87.621 114.525  0.00  0.00     0.028 C 
ATOM      5  C   LIG d   1       3.601  86.347 114.846  0.00  0.00    -0.047 C 
ATOM      6  C   LIG d   1       3.188  85.664 113.522  0.00  0.00     0.091 C 
ENDROOT
BRANCH   1   7
ATOM      7  O   LIG d   1       2.403  86.148 111.252  0.00  0.00    -0.368 OA
BRANCH   7   8
ATOM      8  C   LIG d   1       1.122  86.118 110.574  0.00  0.00     0.119 C 
BRANCH   8   9
ATOM      9  C   LIG d   1       0.055  85.738 111.619  0.00  0.00     0.028 C 
ATOM     10  C   LIG d   1      -1.243  86.547 111.453  0.00  0.00     0.006 C 
ENDBRANCH   8   9
BRANCH   8  11
ATOM     11  C   LIG d   1       1.074  85.007 109.522  0.00  0.00     0.028 C 
ATOM     12  C   LIG d   1       0.533  83.681 110.080  0.00  0.00     0.006 C 
ENDBRANCH   8  11
ENDBRANCH   7   8
ENDBRANCH   1   7
BRANCH   6  13
ATOM     13  N   LIG d   1       2.354  84.455 113.744  0.00  0.00    -0.311 N 
ATOM     14  C   LIG d   1       2.485  83.333 113.037  0.00  0.00     0.210 C 
ATOM     15  C   LIG d   1       1.512  82.213 113.415  0.00  0.00     0.109 C 
ATOM     16  O   LIG d   1       3.338  83.149 112.156  0.00  0.00    -0.276 OA
ATOM     17  H   LIG d   1       1.658  84.506 114.462  0.00  0.00     0.149 HD
ENDBRANCH   6  13
BRANCH   5  18
ATOM     18  N   LIG d   1       4.466  85.500 115.688  0.00  0.00     0.381 N 
ATOM     19  H   LIG d   1       3.917  85.051 116.394  0.00  0.00    -0.090 HD
ATOM     20  H   LIG d   1       5.148  86.082 116.142  0.00  0.00    -0.090 HD
ATOM     21  H   LIG d   1       4.923  84.815 115.127  0.00  0.00    -0.090 HD
ENDBRANCH   5  18
BRANCH   3  22
ATOM     22  C   LIG d   1       3.927  89.831 113.715  0.00  0.00     0.382 C 
ATOM     23  O   LIG d   1       3.965  90.532 112.676  0.00  0.00    -0.241 OA
ATOM     24  O   LIG d   1       4.127  90.364 114.823  0.00  0.00    -0.241 OA
ENDBRANCH   3  22
TORSDOF 7
ENDMDL
MODEL 6
REMARK VINA RESULT:      -5.3      2.932      4.683
REMARK  7 active torsions:
REMARK  status: ('A' for Active; 'I' for Inactive)
REMARK    1  A    between atoms: C_2  and  C_3 
REMARK    2  A    between atoms: C_3  and  O_6 
REMARK    3  A    between atoms: C_3  and  C_4 
REMARK    4  A    between atoms: C_7  and  O_6 
REMARK    5  A    between atoms: C_9  and  C_10 
REMARK    6  A    between atoms: N_15  and  C_14 
REMARK    7  A    between atoms: N_20  and  C_19 
REMARK       I    between atoms: C_22  and  N_20 
ROOT
ATOM      1  C   LIG d   1       1.882  84.152 113.342  0.00  0.00     0.161 C 
ATOM      2  C   LIG d   1       0.952  83.140 113.052  0.00  0.00     0.016 C 
ATOM      3  C   LIG d   1       0.218  83.082 111.845  0.00  0.00     0.038 C 
ATOM      4  C   LIG d   1       0.477  83.953 110.776  0.00  0.00     0.028 C 
ATOM      5  C   LIG d   1       1.049  85.296 111.215  0.00  0.00    -0.047 C 
ATOM      6  C   LIG d   1       2.259  85.047 112.144  0.00  0.00     0.091 C 
ENDROOT
BRANCH   1   7
ATOM      7  O   LIG d   1       3.066  83.574 113.928  0.00  0.00    -0.368 OA
BRANCH   7   8
ATOM      8  C   LIG d   1       3.278  83.844 115.335  0.00  0.00     0.119 C 
BRANCH   8   9
ATOM      9  C   LIG d   1       2.033  84.587 115.857  0.00  0.00     0.028 C 
ATOM     10  C   LIG d   1       1.347  83.842 117.014  0.00  0.00     0.006 C 
ENDBRANCH   8   9
BRANCH   8  11
ATOM     11  C   LIG d   1       4.446  84.812 115.547  0.00  0.00     0.028 C 
ATOM     12  C   LIG d   1       3.994  86.188 116.061  0.00  0.00     0.006 C 
ENDBRANCH   8  11
ENDBRANCH   7   8
ENDBRANCH   1   7
BRANCH   6  13
ATOM     13  N   LIG d   1       2.827  86.309 112.686  0.00  0.00    -0.311 N 
ATOM     14  C   LIG d   1       3.830  86.969 112.110  0.00  0.00     0.210 C 
ATOM     15  C   LIG d   1       4.276  88.237 112.844  0.00  0.00     0.109 C 
ATOM     16  O   LIG d   1       4.372  86.642 111.044  0.00  0.00    -0.276 OA
ATOM     17  H   LIG d   1       2.426  86.663 113.532  0.00  0.00     0.149 HD
ENDBRANCH   6  13
BRANCH   5  18
ATOM     18  N   LIG d   1       1.400  86.051 109.997  0.00  0.00     0.381 N 
ATOM     19  H   LIG d   1       0.920  85.664 109.209  0.00  0.00    -0.090 HD
ATOM     20  H   LIG d   1       2.388  85.967 109.837  0.00  0.00    -0.090 HD
ATOM     21  H   LIG d   1       1.154  87.010 110.107  0.00  0.00    -0.090 HD
ENDBRANCH   5  18
BRANCH   3  22
ATOM     22  C   LIG d   1      -0.817  82.167 111.713  0.00  0.00     0.382 C 
ATOM     23  O   LIG d   1      -0.643  81.115 111.053  0.00  0.00    -0.241 OA
ATOM     24  O   LIG d   1      -1.935  82.403 112.210  0.00  0.00    -0.241 OA
ENDBRANCH   3  22
TORSDOF 7
ENDMDL
MODEL 7
REMARK VINA RESULT:      -5.1     24.500     27.542
REMARK  7 active torsions:
REMARK  status: ('A' for Active; 'I' for Inactive)
REMARK    1  A    between atoms: C_2  and  C_3 
REMARK    2  A    between atoms: C_3  and  O_6 
REMARK    3  A    between atoms: C_3  and  C_4 
REMARK    4  A    between atoms: C_7  and  O_6 
REMARK    5  A    between atoms: C_9  and  C_10 
REMARK    6  A    between atoms: N_15  and  C_14 
REMARK    7  A    between atoms: N_20  and  C_19 
REMARK       I    between atoms: C_22  and  N_20 
ROOT
ATOM      1  C   LIG d   1     -25.638  85.340 114.128  0.00  0.00     0.161 C 
ATOM      2  C   LIG d   1     -24.583  86.267 114.076  0.00  0.00     0.016 C 
ATOM      3  C   LIG d   1     -23.256  85.917 113.733  0.00  0.00     0.038 C 
ATOM      4  C   LIG d   1     -22.924  84.636 113.269  0.00  0.00     0.028 C 
ATOM      5  C   LIG d   1     -23.853  83.544 113.788  0.00  0.00    -0.047 C 
ATOM      6  C   LIG d   1     -25.317  83.960 113.517  0.00  0.00     0.091 C 
ENDROOT
BRANCH   1   7
ATOM      7  O   LIG d   1     -26.812  85.902 113.509  0.00  0.00    -0.368 OA
BRANCH   7   8
ATOM      8  C   LIG d   1     -26.594  87.051 112.654  0.00  0.00     0.119 C 
BRANCH   8   9
ATOM      9  C   LIG d   1     -27.509  88.184 113.158  0.00  0.00     0.028 C 
ATOM     10  C   LIG d   1     -26.812  89.555 113.135  0.00  0.00     0.006 C 
ENDBRANCH   8   9
BRANCH   8  11
ATOM     11  C   LIG d   1     -27.049  86.771 111.218  0.00  0.00     0.028 C 
ATOM     12  C   LIG d   1     -28.266  85.836 111.150  0.00  0.00     0.006 C 
ENDBRANCH   8  11
ENDBRANCH   7   8
ENDBRANCH   1   7
BRANCH   6  13
ATOM     13  N   LIG d   1     -26.294  82.986 114.069  0.00  0.00    -0.311 N 
ATOM     14  C   LIG d   1     -26.788  81.967 113.369  0.00  0.00     0.210 C 
ATOM     15  C   LIG d   1     -27.798  81.094 114.122  0.00  0.00     0.109 C 
ATOM     16  O   LIG d   1     -26.462  81.683 112.207  0.00  0.00    -0.276 OA
ATOM     17  H   LIG d   1     -26.590  83.123 115.016  0.00  0.00     0.149 HD
ENDBRANCH   6  13
BRANCH   5  18
ATOM     18  N   LIG d   1     -23.477  82.284 113.118  0.00  0.00     0.381 N 
ATOM     19  H   LIG d   1     -23.996  82.184 112.268  0.00  0.00    -0.090 HD
ATOM     20  H   LIG d   1     -23.709  81.514 113.721  0.00  0.00    -0.090 HD
ATOM     21  H   LIG d   1     -22.500  82.280 112.922  0.00  0.00    -0.090 HD
ENDBRANCH   5  18
BRANCH   3  22
ATOM     22  C   LIG d   1     -22.238  86.845 113.891  0.00  0.00     0.382 C 
ATOM     23  O   LIG d   1     -21.113  86.635 113.378  0.00  0.00    -0.241 OA
ATOM     24  O   LIG d   1     -22.418  87.869 114.578  0.00  0.00    -0.241 OA
ENDBRANCH   3  22
TORSDOF 7
ENDMDL
MODEL 8
REMARK VINA RESULT:      -5.0      4.641      7.470
REMARK  7 active torsions:
REMARK  status: ('A' for Active; 'I' for Inactive)
REMARK    1  A    between atoms: C_2  and  C_3 
REMARK    2  A    between atoms: C_3  and  O_6 
REMARK    3  A    between atoms: C_3  and  C_4 
REMARK    4  A    between atoms: C_7  and  O_6 
REMARK    5  A    between atoms: C_9  and  C_10 
REMARK    6  A    between atoms: N_15  and  C_14 
REMARK    7  A    between atoms: N_20  and  C_19 
REMARK       I    between atoms: C_22  and  N_20 
ROOT
ATOM      1  C   LIG d   1       2.589  87.226 114.656  0.00  0.00     0.161 C 
ATOM      2  C   LIG d   1       2.799  86.262 113.655  0.00  0.00     0.016 C 
ATOM      3  C   LIG d   1       3.628  86.478 112.530  0.00  0.00     0.038 C 
ATOM      4  C   LIG d   1       4.427  87.624 112.405  0.00  0.00     0.028 C 
ATOM      5  C   LIG d   1       3.862  88.838 113.136  0.00  0.00    -0.047 C 
ATOM      6  C   LIG d   1       3.539  88.440 114.594  0.00  0.00     0.091 C 
ENDROOT
BRANCH   1   7
ATOM      7  O   LIG d   1       2.654  86.604 115.954  0.00  0.00    -0.368 OA
BRANCH   7   8
ATOM      8  C   LIG d   1       1.399  86.122 116.494  0.00  0.00     0.119 C 
BRANCH   8   9
ATOM      9  C   LIG d   1       1.056  86.994 117.717  0.00  0.00     0.028 C 
ATOM     10  C   LIG d   1       0.070  88.123 117.375  0.00  0.00     0.006 C 
ENDBRANCH   8   9
BRANCH   8  11
ATOM     11  C   LIG d   1       1.537  84.696 117.038  0.00  0.00     0.028 C 
ATOM     12  C   LIG d   1       0.579  84.409 118.205  0.00  0.00     0.006 C 
ENDBRANCH   8  11
ENDBRANCH   7   8
ENDBRANCH   1   7
BRANCH   6  13
ATOM     13  N   LIG d   1       2.904  89.547 115.356  0.00  0.00    -0.311 N 
ATOM     14  C   LIG d   1       3.589  90.410 116.104  0.00  0.00     0.210 C 
ATOM     15  C   LIG d   1       2.738  91.462 116.822  0.00  0.00     0.109 C 
ATOM     16  O   LIG d   1       4.825  90.425 116.214  0.00  0.00    -0.276 OA
ATOM     17  H   LIG d   1       1.908  89.628 115.298  0.00  0.00     0.149 HD
ENDBRANCH   6  13
BRANCH   5  18
ATOM     18  N   LIG d   1       4.860  89.920 113.039  0.00  0.00     0.381 N 
ATOM     19  H   LIG d   1       5.577  89.782 113.724  0.00  0.00    -0.090 HD
ATOM     20  H   LIG d   1       4.408  90.797 113.229  0.00  0.00    -0.090 HD
ATOM     21  H   LIG d   1       5.260  89.934 112.127  0.00  0.00    -0.090 HD
ENDBRANCH   5  18
BRANCH   3  22
ATOM     22  C   LIG d   1       3.632  85.557 111.493  0.00  0.00     0.382 C 
ATOM     23  O   LIG d   1       2.864  85.712 110.513  0.00  0.00    -0.241 OA
ATOM     24  O   LIG d   1       4.361  84.548 111.547  0.00  0.00    -0.241 OA
ENDBRANCH   3  22
TORSDOF 7
ENDMDL
MODEL 9
REMARK VINA RESULT:      -4.9     11.515     13.466
REMARK  7 active torsions:
REMARK  status: ('A' for Active; 'I' for Inactive)
REMARK    1  A    between atoms: C_2  and  C_3 
REMARK    2  A    between atoms: C_3  and  O_6 
REMARK    3  A    between atoms: C_3  and  C_4 
REMARK    4  A    between atoms: C_7  and  O_6 
REMARK    5  A    between atoms: C_9  and  C_10 
REMARK    6  A    between atoms: N_15  and  C_14 
REMARK    7  A    between atoms: N_20  and  C_19 
REMARK       I    between atoms: C_22  and  N_20 
ROOT
ATOM      1  C   LIG d   1      -6.449  76.389 116.821  0.00  0.00     0.161 C 
ATOM      2  C   LIG d   1      -7.771  75.914 116.811  0.00  0.00     0.016 C 
ATOM      3  C   LIG d   1      -8.764  76.355 117.716  0.00  0.00     0.038 C 
ATOM      4  C   LIG d   1      -8.540  77.420 118.601  0.00  0.00     0.028 C 
ATOM      5  C   LIG d   1      -7.075  77.585 118.991  0.00  0.00    -0.047 C 
ATOM      6  C   LIG d   1      -6.215  77.631 117.707  0.00  0.00     0.091 C 
ENDROOT
BRANCH   1   7
ATOM      7  O   LIG d   1      -6.012  76.646 115.472  0.00  0.00    -0.368 OA
BRANCH   7   8
ATOM      8  C   LIG d   1      -6.223  75.576 114.519  0.00  0.00     0.119 C 
BRANCH   8   9
ATOM      9  C   LIG d   1      -5.050  74.588 114.665  0.00  0.00     0.028 C 
ATOM     10  C   LIG d   1      -3.800  75.247 115.272  0.00  0.00     0.006 C 
ENDBRANCH   8   9
BRANCH   8  11
ATOM     11  C   LIG d   1      -6.144  76.089 113.078  0.00  0.00     0.028 C 
ATOM     12  C   LIG d   1      -7.399  76.868 112.653  0.00  0.00     0.006 C 
ENDBRANCH   8  11
ENDBRANCH   7   8
ENDBRANCH   1   7
BRANCH   6  13
ATOM     13  N   LIG d   1      -4.760  77.706 118.001  0.00  0.00    -0.311 N 
ATOM     14  C   LIG d   1      -4.064  78.841 117.968  0.00  0.00     0.210 C 
ATOM     15  C   LIG d   1      -2.572  78.693 118.284  0.00  0.00     0.109 C 
ATOM     16  O   LIG d   1      -4.546  79.960 117.740  0.00  0.00    -0.276 OA
ATOM     17  H   LIG d   1      -4.296  76.848 118.227  0.00  0.00     0.149 HD
ENDBRANCH   6  13
BRANCH   5  18
ATOM     18  N   LIG d   1      -6.965  78.811 119.804  0.00  0.00     0.381 N 
ATOM     19  H   LIG d   1      -6.131  79.306 119.559  0.00  0.00    -0.090 HD
ATOM     20  H   LIG d   1      -6.906  78.554 120.774  0.00  0.00    -0.090 HD
ATOM     21  H   LIG d   1      -7.761  79.391 119.655  0.00  0.00    -0.090 HD
ENDBRANCH   5  18
BRANCH   3  22
ATOM     22  C   LIG d   1      -9.986  75.702 117.768  0.00  0.00     0.382 C 
ATOM     23  O   LIG d   1     -10.954  76.230 118.367  0.00  0.00    -0.241 OA
ATOM     24  O   LIG d   1     -10.120  74.572 117.261  0.00  0.00    -0.241 OA
ENDBRANCH   3  22
TORSDOF 7
ENDMDL
