MODEL 1
REMARK VINA RESULT:      -5.9      0.000      0.000
REMARK  7 active torsions:
REMARK  status: ('A' for Active; 'I' for Inactive)
REMARK    1  A    between atoms: C_2  and  C_3 
REMARK    2  A    between atoms: C_3  and  O_6 
REMARK    3  A    between atoms: C_3  and  C_4 
REMARK    4  A    between atoms: C_7  and  O_6 
REMARK    5  A    between atoms: C_9  and  C_10 
REMARK    6  A    between atoms: N_15  and  C_14 
REMARK    7  A    between atoms: N_20  and  C_19 
REMARK       I    between atoms: C_22  and  N_20 
ROOT
ATOM      1  C   LIG d   1      -7.787  75.661 117.877  0.00  0.00     0.161 C 
ATOM      2  C   LIG d   1      -8.994  76.345 118.095  0.00  0.00     0.016 C 
ATOM      3  C   LIG d   1      -9.077  77.748 118.248  0.00  0.00     0.038 C 
ATOM      4  C   LIG d   1      -7.969  78.583 118.041  0.00  0.00     0.028 C 
ATOM      5  C   LIG d   1      -6.635  77.899 118.318  0.00  0.00    -0.047 C 
ATOM      6  C   LIG d   1      -6.583  76.565 117.538  0.00  0.00     0.091 C 
ENDROOT
BRANCH   1   7
ATOM      7  O   LIG d   1      -7.968  74.663 116.852  0.00  0.00    -0.368 OA
BRANCH   7   8
ATOM      8  C   LIG d   1      -7.923  73.283 117.291  0.00  0.00     0.119 C 
BRANCH   8   9
ATOM      9  C   LIG d   1      -7.033  72.510 116.298  0.00  0.00     0.028 C 
ATOM     10  C   LIG d   1      -6.370  73.434 115.263  0.00  0.00     0.006 C 
ENDBRANCH   8   9
BRANCH   8  11
ATOM     11  C   LIG d   1      -9.302  72.624 117.199  0.00  0.00     0.028 C 
ATOM     12  C   LIG d   1      -9.223  71.111 116.942  0.00  0.00     0.006 C 
ENDBRANCH   8  11
ENDBRANCH   7   8
ENDBRANCH   1   7
BRANCH   6  13
ATOM     13  N   LIG d   1      -5.346  75.791 117.820  0.00  0.00    -0.311 N 
ATOM     14  C   LIG d   1      -4.250  75.862 117.066  0.00  0.00     0.210 C 
ATOM     15  C   LIG d   1      -3.093  74.966 117.521  0.00  0.00     0.109 C 
ATOM     16  O   LIG d   1      -4.115  76.604 116.082  0.00  0.00    -0.276 OA
ATOM     17  H   LIG d   1      -5.357  75.187 118.617  0.00  0.00     0.149 HD
ENDBRANCH   6  13
BRANCH   5  18
ATOM     18  N   LIG d   1      -5.564  78.837 117.932  0.00  0.00     0.381 N 
ATOM     19  H   LIG d   1      -5.698  79.131 116.985  0.00  0.00    -0.090 HD
ATOM     20  H   LIG d   1      -4.680  78.363 117.993  0.00  0.00    -0.090 HD
ATOM     21  H   LIG d   1      -5.569  79.628 118.537  0.00  0.00    -0.090 HD
ENDBRANCH   5  18
BRANCH   3  22
ATOM     22  C   LIG d   1     -10.272  78.326 118.650  0.00  0.00     0.382 C 
ATOM     23  O   LIG d   1     -10.427  79.568 118.565  0.00  0.00    -0.241 OA
ATOM     24  O   LIG d   1     -11.179  77.626 119.139  0.00  0.00    -0.241 OA
ENDBRANCH   3  22
TORSDOF 7
ENDMDL
MODEL 2
REMARK VINA RESULT:      -5.8      3.249      5.302
REMARK  7 active torsions:
REMARK  status: ('A' for Active; 'I' for Inactive)
REMARK    1  A    between atoms: C_2  and  C_3 
REMARK    2  A    between atoms: C_3  and  O_6 
REMARK    3  A    between atoms: C_3  and  C_4 
REMARK    4  A    between atoms: C_7  and  O_6 
REMARK    5  A    between atoms: C_9  and  C_10 
REMARK    6  A    between atoms: N_15  and  C_14 
REMARK    7  A    between atoms: N_20  and  C_19 
REMARK       I    between atoms: C_22  and  N_20 
ROOT
ATOM      1  C   LIG d   1      -4.359  75.216 116.596  0.00  0.00     0.161 C 
ATOM      2  C   LIG d   1      -4.805  75.524 115.300  0.00  0.00     0.016 C 
ATOM      3  C   LIG d   1      -3.932  75.760 114.213  0.00  0.00     0.038 C 
ATOM      4  C   LIG d   1      -2.548  75.553 114.315  0.00  0.00     0.028 C 
ATOM      5  C   LIG d   1      -2.011  75.733 115.731  0.00  0.00    -0.047 C 
ATOM      6  C   LIG d   1      -2.857  74.877 116.700  0.00  0.00     0.091 C 
ENDROOT
BRANCH   1   7
ATOM      7  O   LIG d   1      -5.153  74.145 117.144  0.00  0.00    -0.368 OA
BRANCH   7   8
ATOM      8  C   LIG d   1      -6.434  73.912 116.509  0.00  0.00     0.119 C 
BRANCH   8   9
ATOM      9  C   LIG d   1      -7.530  74.292 117.523  0.00  0.00     0.028 C 
ATOM     10  C   LIG d   1      -8.035  75.732 117.329  0.00  0.00     0.006 C 
ENDBRANCH   8   9
BRANCH   8  11
ATOM     11  C   LIG d   1      -6.650  72.424 116.218  0.00  0.00     0.028 C 
ATOM     12  C   LIG d   1      -8.093  71.968 116.483  0.00  0.00     0.006 C 
ENDBRANCH   8  11
ENDBRANCH   7   8
ENDBRANCH   1   7
BRANCH   6  13
ATOM     13  N   LIG d   1      -2.452  75.060 118.119  0.00  0.00    -0.311 N 
ATOM     14  C   LIG d   1      -1.528  74.313 118.719  0.00  0.00     0.210 C 
ATOM     15  C   LIG d   1      -1.275  74.655 120.191  0.00  0.00     0.109 C 
ATOM     16  O   LIG d   1      -0.869  73.420 118.164  0.00  0.00    -0.276 OA
ATOM     17  H   LIG d   1      -2.914  75.783 118.635  0.00  0.00     0.149 HD
ENDBRANCH   6  13
BRANCH   5  18
ATOM     18  N   LIG d   1      -0.586  75.355 115.718  0.00  0.00     0.381 N 
ATOM     19  H   LIG d   1      -0.435  74.625 115.050  0.00  0.00    -0.090 HD
ATOM     20  H   LIG d   1      -0.334  75.007 116.627  0.00  0.00    -0.090 HD
ATOM     21  H   LIG d   1      -0.025  76.145 115.489  0.00  0.00    -0.090 HD
ENDBRANCH   5  18
BRANCH   3  22
ATOM     22  C   LIG d   1      -4.439  76.246 113.018  0.00  0.00     0.382 C 
ATOM     23  O   LIG d   1      -4.084  77.374 112.598  0.00  0.00    -0.241 OA
ATOM     24  O   LIG d   1      -5.282  75.591 112.376  0.00  0.00    -0.241 OA
ENDBRANCH   3  22
TORSDOF 7
ENDMDL
MODEL 3
REMARK VINA RESULT:      -5.5      2.429      4.704
REMARK  7 active torsions:
REMARK  status: ('A' for Active; 'I' for Inactive)
REMARK    1  A    between atoms: C_2  and  C_3 
REMARK    2  A    between atoms: C_3  and  O_6 
REMARK    3  A    between atoms: C_3  and  C_4 
REMARK    4  A    between atoms: C_7  and  O_6 
REMARK    5  A    between atoms: C_9  and  C_10 
REMARK    6  A    between atoms: N_15  and  C_14 
REMARK    7  A    between atoms: N_20  and  C_19 
REMARK       I    between atoms: C_22  and  N_20 
ROOT
ATOM      1  C   LIG d   1      -5.682  75.088 116.732  0.00  0.00     0.161 C 
ATOM      2  C   LIG d   1      -6.406  73.912 116.472  0.00  0.00     0.016 C 
ATOM      3  C   LIG d   1      -7.737  73.706 116.904  0.00  0.00     0.038 C 
ATOM      4  C   LIG d   1      -8.490  74.729 117.499  0.00  0.00     0.028 C 
ATOM      5  C   LIG d   1      -7.638  75.760 118.232  0.00  0.00    -0.047 C 
ATOM      6  C   LIG d   1      -6.524  76.258 117.283  0.00  0.00     0.091 C 
ENDROOT
BRANCH   1   7
ATOM      7  O   LIG d   1      -4.972  75.497 115.546  0.00  0.00    -0.368 OA
BRANCH   7   8
ATOM      8  C   LIG d   1      -5.477  74.979 114.290  0.00  0.00     0.119 C 
BRANCH   8   9
ATOM      9  C   LIG d   1      -4.265  74.736 113.369  0.00  0.00     0.028 C 
ATOM     10  C   LIG d   1      -2.945  75.213 113.999  0.00  0.00     0.006 C 
ENDBRANCH   8   9
BRANCH   8  11
ATOM     11  C   LIG d   1      -6.337  76.017 113.564  0.00  0.00     0.028 C 
ATOM     12  C   LIG d   1      -5.811  76.349 112.159  0.00  0.00     0.006 C 
ENDBRANCH   8  11
ENDBRANCH   7   8
ENDBRANCH   1   7
BRANCH   6  13
ATOM     13  N   LIG d   1      -5.594  77.207 117.948  0.00  0.00    -0.311 N 
ATOM     14  C   LIG d   1      -5.745  78.530 117.910  0.00  0.00     0.210 C 
ATOM     15  C   LIG d   1      -4.663  79.326 118.645  0.00  0.00     0.109 C 
ATOM     16  O   LIG d   1      -6.690  79.118 117.363  0.00  0.00    -0.276 OA
ATOM     17  H   LIG d   1      -4.817  76.813 118.441  0.00  0.00     0.149 HD
ENDBRANCH   6  13
BRANCH   5  18
ATOM     18  N   LIG d   1      -8.536  76.839 118.685  0.00  0.00     0.381 N 
ATOM     19  H   LIG d   1      -8.554  77.573 118.006  0.00  0.00    -0.090 HD
ATOM     20  H   LIG d   1      -8.183  77.216 119.547  0.00  0.00    -0.090 HD
ATOM     21  H   LIG d   1      -9.456  76.482 118.822  0.00  0.00    -0.090 HD
ENDBRANCH   5  18
BRANCH   3  22
ATOM     22  C   LIG d   1      -8.314  72.452 116.777  0.00  0.00     0.382 C 
ATOM     23  O   LIG d   1      -7.785  71.591 116.034  0.00  0.00    -0.241 OA
ATOM     24  O   LIG d   1      -9.381  72.185 117.362  0.00  0.00    -0.241 OA
ENDBRANCH   3  22
TORSDOF 7
ENDMDL
MODEL 4
REMARK VINA RESULT:      -5.4     18.019     20.449
REMARK  7 active torsions:
REMARK  status: ('A' for Active; 'I' for Inactive)
REMARK    1  A    between atoms: C_2  and  C_3 
REMARK    2  A    between atoms: C_3  and  O_6 
REMARK    3  A    between atoms: C_3  and  C_4 
REMARK    4  A    between atoms: C_7  and  O_6 
REMARK    5  A    between atoms: C_9  and  C_10 
REMARK    6  A    between atoms: N_15  and  C_14 
REMARK    7  A    between atoms: N_20  and  C_19 
REMARK       I    between atoms: C_22  and  N_20 
ROOT
ATOM      1  C   LIG d   1       1.900  58.238 117.905  0.00  0.00     0.161 C 
ATOM      2  C   LIG d   1       0.898  59.154 117.543  0.00  0.00     0.016 C 
ATOM      3  C   LIG d   1      -0.308  58.778 116.908  0.00  0.00     0.038 C 
ATOM      4  C   LIG d   1      -0.663  57.433 116.728  0.00  0.00     0.028 C 
ATOM      5  C   LIG d   1       0.538  56.499 116.620  0.00  0.00    -0.047 C 
ATOM      6  C   LIG d   1       1.482  56.755 117.817  0.00  0.00     0.091 C 
ENDROOT
BRANCH   1   7
ATOM      7  O   LIG d   1       2.387  58.544 119.226  0.00  0.00    -0.368 OA
BRANCH   7   8
ATOM      8  C   LIG d   1       1.438  59.167 120.127  0.00  0.00     0.119 C 
BRANCH   8   9
ATOM      9  C   LIG d   1       2.189  60.266 120.903  0.00  0.00     0.028 C 
ATOM     10  C   LIG d   1       3.689  60.302 120.566  0.00  0.00     0.006 C 
ENDBRANCH   8   9
BRANCH   8  11
ATOM     11  C   LIG d   1       0.950  58.180 121.192  0.00  0.00     0.028 C 
ATOM     12  C   LIG d   1      -0.569  57.950 121.140  0.00  0.00     0.006 C 
ENDBRANCH   8  11
ENDBRANCH   7   8
ENDBRANCH   1   7
BRANCH   6  13
ATOM     13  N   LIG d   1       2.724  55.942 117.744  0.00  0.00    -0.311 N 
ATOM     14  C   LIG d   1       3.185  55.215 118.760  0.00  0.00     0.210 C 
ATOM     15  C   LIG d   1       4.493  54.468 118.479  0.00  0.00     0.109 C 
ATOM     16  O   LIG d   1       2.619  55.093 119.856  0.00  0.00    -0.276 OA
ATOM     17  H   LIG d   1       3.230  55.959 116.880  0.00  0.00     0.149 HD
ENDBRANCH   6  13
BRANCH   5  18
ATOM     18  N   LIG d   1       0.025  55.117 116.574  0.00  0.00     0.381 N 
ATOM     19  H   LIG d   1      -0.810  55.083 116.024  0.00  0.00    -0.090 HD
ATOM     20  H   LIG d   1      -0.200  54.822 117.508  0.00  0.00    -0.090 HD
ATOM     21  H   LIG d   1       0.713  54.511 116.183  0.00  0.00    -0.090 HD
ENDBRANCH   5  18
BRANCH   3  22
ATOM     22  C   LIG d   1      -1.156  59.755 116.410  0.00  0.00     0.382 C 
ATOM     23  O   LIG d   1      -1.322  59.870 115.172  0.00  0.00    -0.241 OA
ATOM     24  O   LIG d   1      -1.724  60.552 117.181  0.00  0.00    -0.241 OA
ENDBRANCH   3  22
TORSDOF 7
ENDMDL
MODEL 5
REMARK VINA RESULT:      -5.4     14.450     16.260
REMARK  7 active torsions:
REMARK  status: ('A' for Active; 'I' for Inactive)
REMARK    1  A    between atoms: C_2  and  C_3 
REMARK    2  A    between atoms: C_3  and  O_6 
REMARK    3  A    between atoms: C_3  and  C_4 
REMARK    4  A    between atoms: C_7  and  O_6 
REMARK    5  A    between atoms: C_9  and  C_10 
REMARK    6  A    between atoms: N_15  and  C_14 
REMARK    7  A    between atoms: N_20  and  C_19 
REMARK       I    between atoms: C_22  and  N_20 
ROOT
ATOM      1  C   LIG d   1      -4.528  91.124 119.299  0.00  0.00     0.161 C 
ATOM      2  C   LIG d   1      -5.496  90.844 118.320  0.00  0.00     0.016 C 
ATOM      3  C   LIG d   1      -5.198  90.214 117.090  0.00  0.00     0.038 C 
ATOM      4  C   LIG d   1      -3.929  89.682 116.817  0.00  0.00     0.028 C 
ATOM      5  C   LIG d   1      -2.803  90.388 117.565  0.00  0.00    -0.047 C 
ATOM      6  C   LIG d   1      -3.160  90.451 119.067  0.00  0.00     0.091 C 
ENDROOT
BRANCH   1   7
ATOM      7  O   LIG d   1      -5.040  90.783 120.603  0.00  0.00    -0.368 OA
BRANCH   7   8
ATOM      8  C   LIG d   1      -5.355  91.896 121.475  0.00  0.00     0.119 C 
BRANCH   8   9
ATOM      9  C   LIG d   1      -6.864  92.178 121.340  0.00  0.00     0.028 C 
ATOM     10  C   LIG d   1      -7.151  93.484 120.581  0.00  0.00     0.006 C 
ENDBRANCH   8   9
BRANCH   8  11
ATOM     11  C   LIG d   1      -4.660  93.180 121.013  0.00  0.00     0.028 C 
ATOM     12  C   LIG d   1      -3.617  93.689 122.021  0.00  0.00     0.006 C 
ENDBRANCH   8  11
ENDBRANCH   7   8
ENDBRANCH   1   7
BRANCH   6  13
ATOM     13  N   LIG d   1      -2.150  91.201 119.859  0.00  0.00    -0.311 N 
ATOM     14  C   LIG d   1      -1.139  90.616 120.499  0.00  0.00     0.210 C 
ATOM     15  C   LIG d   1      -0.224  91.571 121.272  0.00  0.00     0.109 C 
ATOM     16  O   LIG d   1      -0.894  89.400 120.474  0.00  0.00    -0.276 OA
ATOM     17  H   LIG d   1      -2.255  92.195 119.907  0.00  0.00     0.149 HD
ENDBRANCH   6  13
BRANCH   5  18
ATOM     18  N   LIG d   1      -1.556  89.646 117.297  0.00  0.00     0.381 N 
ATOM     19  H   LIG d   1      -1.058  90.081 116.547  0.00  0.00    -0.090 HD
ATOM     20  H   LIG d   1      -1.789  88.708 117.019  0.00  0.00    -0.090 HD
ATOM     21  H   LIG d   1      -0.989  89.626 118.115  0.00  0.00    -0.090 HD
ENDBRANCH   5  18
BRANCH   3  22
ATOM     22  C   LIG d   1      -6.166  90.148 116.099  0.00  0.00     0.382 C 
ATOM     23  O   LIG d   1      -6.136  90.953 115.138  0.00  0.00    -0.241 OA
ATOM     24  O   LIG d   1      -7.095  89.321 116.179  0.00  0.00    -0.241 OA
ENDBRANCH   3  22
TORSDOF 7
ENDMDL
MODEL 6
REMARK VINA RESULT:      -5.4     18.119     20.780
REMARK  7 active torsions:
REMARK  status: ('A' for Active; 'I' for Inactive)
REMARK    1  A    between atoms: C_2  and  C_3 
REMARK    2  A    between atoms: C_3  and  O_6 
REMARK    3  A    between atoms: C_3  and  C_4 
REMARK    4  A    between atoms: C_7  and  O_6 
REMARK    5  A    between atoms: C_9  and  C_10 
REMARK    6  A    between atoms: N_15  and  C_14 
REMARK    7  A    between atoms: N_20  and  C_19 
REMARK       I    between atoms: C_22  and  N_20 
ROOT
ATOM      1  C   LIG d   1       1.964  58.033 118.100  0.00  0.00     0.161 C 
ATOM      2  C   LIG d   1       1.019  59.002 117.723  0.00  0.00     0.016 C 
ATOM      3  C   LIG d   1      -0.152  58.702 116.989  0.00  0.00     0.038 C 
ATOM      4  C   LIG d   1      -0.536  57.381 116.712  0.00  0.00     0.028 C 
ATOM      5  C   LIG d   1       0.640  56.413 116.634  0.00  0.00    -0.047 C 
ATOM      6  C   LIG d   1       1.507  56.573 117.903  0.00  0.00     0.091 C 
ENDROOT
BRANCH   1   7
ATOM      7  O   LIG d   1       2.368  58.252 119.466  0.00  0.00    -0.368 OA
BRANCH   7   8
ATOM      8  C   LIG d   1       3.728  58.711 119.663  0.00  0.00     0.119 C 
BRANCH   8   9
ATOM      9  C   LIG d   1       3.658  60.170 120.153  0.00  0.00     0.028 C 
ATOM     10  C   LIG d   1       2.400  60.446 120.995  0.00  0.00     0.006 C 
ENDBRANCH   8   9
BRANCH   8  11
ATOM     11  C   LIG d   1       4.495  58.766 118.338  0.00  0.00     0.028 C 
ATOM     12  C   LIG d   1       5.084  60.155 118.047  0.00  0.00     0.006 C 
ENDBRANCH   8  11
ENDBRANCH   7   8
ENDBRANCH   1   7
BRANCH   6  13
ATOM     13  N   LIG d   1       2.725  55.721 117.869  0.00  0.00    -0.311 N 
ATOM     14  C   LIG d   1       3.169  55.034 118.920  0.00  0.00     0.210 C 
ATOM     15  C   LIG d   1       4.453  54.236 118.674  0.00  0.00     0.109 C 
ATOM     16  O   LIG d   1       2.603  54.983 120.022  0.00  0.00    -0.276 OA
ATOM     17  H   LIG d   1       3.228  55.680 117.004  0.00  0.00     0.149 HD
ENDBRANCH   6  13
BRANCH   5  18
ATOM     18  N   LIG d   1       0.088  55.054 116.478  0.00  0.00     0.381 N 
ATOM     19  H   LIG d   1      -0.912  55.092 116.477  0.00  0.00    -0.090 HD
ATOM     20  H   LIG d   1       0.381  54.492 117.258  0.00  0.00    -0.090 HD
ATOM     21  H   LIG d   1       0.413  54.650 115.627  0.00  0.00    -0.090 HD
ENDBRANCH   5  18
BRANCH   3  22
ATOM     22  C   LIG d   1      -0.934  59.733 116.490  0.00  0.00     0.382 C 
ATOM     23  O   LIG d   1      -1.483  60.541 117.277  0.00  0.00    -0.241 OA
ATOM     24  O   LIG d   1      -1.132  59.839 115.265  0.00  0.00    -0.241 OA
ENDBRANCH   3  22
TORSDOF 7
ENDMDL
MODEL 7
REMARK VINA RESULT:      -5.3     17.455     19.447
REMARK  7 active torsions:
REMARK  status: ('A' for Active; 'I' for Inactive)
REMARK    1  A    between atoms: C_2  and  C_3 
REMARK    2  A    between atoms: C_3  and  O_6 
REMARK    3  A    between atoms: C_3  and  C_4 
REMARK    4  A    between atoms: C_7  and  O_6 
REMARK    5  A    between atoms: C_9  and  C_10 
REMARK    6  A    between atoms: N_15  and  C_14 
REMARK    7  A    between atoms: N_20  and  C_19 
REMARK       I    between atoms: C_22  and  N_20 
ROOT
ATOM      1  C   LIG d   1       0.503  58.375 118.616  0.00  0.00     0.161 C 
ATOM      2  C   LIG d   1       0.977  58.878 117.393  0.00  0.00     0.016 C 
ATOM      3  C   LIG d   1       0.171  59.600 116.484  0.00  0.00     0.038 C 
ATOM      4  C   LIG d   1      -1.134  60.002 116.806  0.00  0.00     0.028 C 
ATOM      5  C   LIG d   1      -1.817  59.085 117.815  0.00  0.00    -0.047 C 
ATOM      6  C   LIG d   1      -0.887  58.898 119.035  0.00  0.00     0.091 C 
ENDROOT
BRANCH   1   7
ATOM      7  O   LIG d   1       1.468  58.628 119.656  0.00  0.00    -0.368 OA
BRANCH   7   8
ATOM      8  C   LIG d   1       2.861  58.566 119.262  0.00  0.00     0.119 C 
BRANCH   8   9
ATOM      9  C   LIG d   1       3.577  57.615 120.240  0.00  0.00     0.028 C 
ATOM     10  C   LIG d   1       2.652  56.501 120.759  0.00  0.00     0.006 C 
ENDBRANCH   8   9
BRANCH   8  11
ATOM     11  C   LIG d   1       3.550  59.922 119.437  0.00  0.00     0.028 C 
ATOM     12  C   LIG d   1       4.548  60.234 118.311  0.00  0.00     0.006 C 
ENDBRANCH   8  11
ENDBRANCH   7   8
ENDBRANCH   1   7
BRANCH   6  13
ATOM     13  N   LIG d   1      -1.444  57.947 120.032  0.00  0.00    -0.311 N 
ATOM     14  C   LIG d   1      -2.123  58.331 121.112  0.00  0.00     0.210 C 
ATOM     15  C   LIG d   1      -2.591  57.191 122.021  0.00  0.00     0.109 C 
ATOM     16  O   LIG d   1      -2.409  59.506 121.386  0.00  0.00    -0.276 OA
ATOM     17  H   LIG d   1      -1.285  56.972 119.871  0.00  0.00     0.149 HD
ENDBRANCH   6  13
BRANCH   5  18
ATOM     18  N   LIG d   1      -3.114  59.695 118.164  0.00  0.00     0.381 N 
ATOM     19  H   LIG d   1      -3.757  58.984 118.452  0.00  0.00    -0.090 HD
ATOM     20  H   LIG d   1      -3.490  60.148 117.350  0.00  0.00    -0.090 HD
ATOM     21  H   LIG d   1      -2.992  60.358 118.897  0.00  0.00    -0.090 HD
ENDBRANCH   5  18
BRANCH   3  22
ATOM     22  C   LIG d   1       0.657  59.895 115.219  0.00  0.00     0.382 C 
ATOM     23  O   LIG d   1      -0.140  60.155 114.286  0.00  0.00    -0.241 OA
ATOM     24  O   LIG d   1       1.881  59.859 114.988  0.00  0.00    -0.241 OA
ENDBRANCH   3  22
TORSDOF 7
ENDMDL
MODEL 8
REMARK VINA RESULT:      -5.2     17.075     19.460
REMARK  7 active torsions:
REMARK  status: ('A' for Active; 'I' for Inactive)
REMARK    1  A    between atoms: C_2  and  C_3 
REMARK    2  A    between atoms: C_3  and  O_6 
REMARK    3  A    between atoms: C_3  and  C_4 
REMARK    4  A    between atoms: C_7  and  O_6 
REMARK    5  A    between atoms: C_9  and  C_10 
REMARK    6  A    between atoms: N_15  and  C_14 
REMARK    7  A    between atoms: N_20  and  C_19 
REMARK       I    between atoms: C_22  and  N_20 
ROOT
ATOM      1  C   LIG d   1       1.617  59.462 119.528  0.00  0.00     0.161 C 
ATOM      2  C   LIG d   1       3.022  59.471 119.542  0.00  0.00     0.016 C 
ATOM      3  C   LIG d   1       3.810  59.591 118.374  0.00  0.00     0.038 C 
ATOM      4  C   LIG d   1       3.243  59.864 117.121  0.00  0.00     0.028 C 
ATOM      5  C   LIG d   1       1.810  59.361 116.982  0.00  0.00    -0.047 C 
ATOM      6  C   LIG d   1       0.981  59.871 118.183  0.00  0.00     0.091 C 
ENDROOT
BRANCH   1   7
ATOM      7  O   LIG d   1       1.113  60.292 120.594  0.00  0.00    -0.368 OA
BRANCH   7   8
ATOM      8  C   LIG d   1       0.428  59.603 121.669  0.00  0.00     0.119 C 
BRANCH   8   9
ATOM      9  C   LIG d   1       0.546  58.090 121.398  0.00  0.00     0.028 C 
ATOM     10  C   LIG d   1       1.442  57.378 122.425  0.00  0.00     0.006 C 
ENDBRANCH   8   9
BRANCH   8  11
ATOM     11  C   LIG d   1      -1.073  59.902 121.655  0.00  0.00     0.028 C 
ATOM     12  C   LIG d   1      -1.933  58.635 121.524  0.00  0.00     0.006 C 
ENDBRANCH   8  11
ENDBRANCH   7   8
ENDBRANCH   1   7
BRANCH   6  13
ATOM     13  N   LIG d   1      -0.413  59.355 118.170  0.00  0.00    -0.311 N 
ATOM     14  C   LIG d   1      -1.476  60.121 117.934  0.00  0.00     0.210 C 
ATOM     15  C   LIG d   1      -2.823  59.392 117.986  0.00  0.00     0.109 C 
ATOM     16  O   LIG d   1      -1.430  61.328 117.653  0.00  0.00    -0.276 OA
ATOM     17  H   LIG d   1      -0.540  58.379 118.357  0.00  0.00     0.149 HD
ENDBRANCH   6  13
BRANCH   5  18
ATOM     18  N   LIG d   1       1.295  59.834 115.683  0.00  0.00     0.381 N 
ATOM     19  H   LIG d   1       1.905  60.535 115.312  0.00  0.00    -0.090 HD
ATOM     20  H   LIG d   1       0.389  60.245 115.822  0.00  0.00    -0.090 HD
ATOM     21  H   LIG d   1       1.228  59.071 115.045  0.00  0.00    -0.090 HD
ENDBRANCH   5  18
BRANCH   3  22
ATOM     22  C   LIG d   1       5.181  59.397 118.448  0.00  0.00     0.382 C 
ATOM     23  O   LIG d   1       5.961  60.220 117.910  0.00  0.00    -0.241 OA
ATOM     24  O   LIG d   1       5.648  58.387 119.008  0.00  0.00    -0.241 OA
ENDBRANCH   3  22
TORSDOF 7
ENDMDL
MODEL 9
REMARK VINA RESULT:      -5.2     18.290     21.150
REMARK  7 active torsions:
REMARK  status: ('A' for Active; 'I' for Inactive)
REMARK    1  A    between atoms: C_2  and  C_3 
REMARK    2  A    between atoms: C_3  and  O_6 
REMARK    3  A    between atoms: C_3  and  C_4 
REMARK    4  A    between atoms: C_7  and  O_6 
REMARK    5  A    between atoms: C_9  and  C_10 
REMARK    6  A    between atoms: N_15  and  C_14 
REMARK    7  A    between atoms: N_20  and  C_19 
REMARK       I    between atoms: C_22  and  N_20 
ROOT
ATOM      1  C   LIG d   1       1.053  57.454 117.458  0.00  0.00     0.161 C 
ATOM      2  C   LIG d   1       0.914  56.283 116.696  0.00  0.00     0.016 C 
ATOM      3  C   LIG d   1       1.641  55.097 116.950  0.00  0.00     0.038 C 
ATOM      4  C   LIG d   1       2.452  54.955 118.086  0.00  0.00     0.028 C 
ATOM      5  C   LIG d   1       3.012  56.277 118.601  0.00  0.00    -0.047 C 
ATOM      6  C   LIG d   1       1.850  57.282 118.768  0.00  0.00     0.091 C 
ENDROOT
BRANCH   1   7
ATOM      7  O   LIG d   1      -0.246  58.016 117.732  0.00  0.00    -0.368 OA
BRANCH   7   8
ATOM      8  C   LIG d   1      -0.767  58.931 116.737  0.00  0.00     0.119 C 
BRANCH   8   9
ATOM      9  C   LIG d   1       0.362  59.916 116.377  0.00  0.00     0.028 C 
ATOM     10  C   LIG d   1       0.672  59.929 114.871  0.00  0.00     0.006 C 
ENDBRANCH   8   9
BRANCH   8  11
ATOM     11  C   LIG d   1      -1.892  59.797 117.312  0.00  0.00     0.028 C 
ATOM     12  C   LIG d   1      -2.690  59.083 118.414  0.00  0.00     0.006 C 
ENDBRANCH   8  11
ENDBRANCH   7   8
ENDBRANCH   1   7
BRANCH   6  13
ATOM     13  N   LIG d   1       2.321  58.628 119.188  0.00  0.00    -0.311 N 
ATOM     14  C   LIG d   1       2.401  59.013 120.461  0.00  0.00     0.210 C 
ATOM     15  C   LIG d   1       2.893  60.448 120.673  0.00  0.00     0.109 C 
ATOM     16  O   LIG d   1       2.142  58.291 121.435  0.00  0.00    -0.276 OA
ATOM     17  H   LIG d   1       2.581  59.267 118.462  0.00  0.00     0.149 HD
ENDBRANCH   6  13
BRANCH   5  18
ATOM     18  N   LIG d   1       3.723  55.999 119.863  0.00  0.00     0.381 N 
ATOM     19  H   LIG d   1       3.270  55.250 120.349  0.00  0.00    -0.090 HD
ATOM     20  H   LIG d   1       3.687  56.818 120.443  0.00  0.00    -0.090 HD
ATOM     21  H   LIG d   1       4.670  55.757 119.674  0.00  0.00    -0.090 HD
ENDBRANCH   5  18
BRANCH   3  22
ATOM     22  C   LIG d   1       1.592  54.052 116.041  0.00  0.00     0.382 C 
ATOM     23  O   LIG d   1       2.642  53.662 115.476  0.00  0.00    -0.241 OA
ATOM     24  O   LIG d   1       0.504  53.523 115.744  0.00  0.00    -0.241 OA
ENDBRANCH   3  22
TORSDOF 7
ENDMDL
