MODEL 1
REMARK VINA RESULT:      -6.7      0.000      0.000
REMARK  7 active torsions:
REMARK  status: ('A' for Active; 'I' for Inactive)
REMARK    1  A    between atoms: C_2  and  C_3 
REMARK    2  A    between atoms: C_3  and  O_6 
REMARK    3  A    between atoms: C_3  and  C_4 
REMARK    4  A    between atoms: C_7  and  O_6 
REMARK    5  A    between atoms: C_9  and  C_10 
REMARK    6  A    between atoms: N_15  and  C_14 
REMARK    7  A    between atoms: N_20  and  C_19 
REMARK       I    between atoms: C_22  and  N_20 
ROOT
ATOM      1  C   LIG d   1       0.795  83.918 109.572  0.00  0.00     0.161 C 
ATOM      2  C   LIG d   1       0.598  85.218 110.066  0.00  0.00     0.016 C 
ATOM      3  C   LIG d   1      -0.053  85.495 111.291  0.00  0.00     0.038 C 
ATOM      4  C   LIG d   1      -0.419  84.475 112.182  0.00  0.00     0.028 C 
ATOM      5  C   LIG d   1      -0.694  83.141 111.497  0.00  0.00    -0.047 C 
ATOM      6  C   LIG d   1       0.502  82.790 110.583  0.00  0.00     0.091 C 
ENDROOT
BRANCH   1   7
ATOM      7  O   LIG d   1       2.134  83.791 109.053  0.00  0.00    -0.368 OA
BRANCH   7   8
ATOM      8  C   LIG d   1       3.170  83.507 110.026  0.00  0.00     0.119 C 
BRANCH   8   9
ATOM      9  C   LIG d   1       3.723  84.857 110.521  0.00  0.00     0.028 C 
ATOM     10  C   LIG d   1       3.649  84.996 112.050  0.00  0.00     0.006 C 
ENDBRANCH   8   9
BRANCH   8  11
ATOM     11  C   LIG d   1       4.360  82.793 109.379  0.00  0.00     0.028 C 
ATOM     12  C   LIG d   1       3.965  81.980 108.136  0.00  0.00     0.006 C 
ENDBRANCH   8  11
ENDBRANCH   7   8
ENDBRANCH   1   7
BRANCH   6  13
ATOM     13  N   LIG d   1       0.277  81.541 109.810  0.00  0.00    -0.311 N 
ATOM     14  C   LIG d   1       1.079  80.480 109.882  0.00  0.00     0.210 C 
ATOM     15  C   LIG d   1       0.677  79.303 108.988  0.00  0.00     0.109 C 
ATOM     16  O   LIG d   1       2.067  80.390 110.626  0.00  0.00    -0.276 OA
ATOM     17  H   LIG d   1      -0.520  81.516 109.204  0.00  0.00     0.149 HD
ENDBRANCH   6  13
BRANCH   5  18
ATOM     18  N   LIG d   1      -0.929  82.138 112.553  0.00  0.00     0.381 N 
ATOM     19  H   LIG d   1      -0.068  81.687 112.789  0.00  0.00    -0.090 HD
ATOM     20  H   LIG d   1      -1.565  81.442 112.204  0.00  0.00    -0.090 HD
ATOM     21  H   LIG d   1      -1.315  82.576 113.360  0.00  0.00    -0.090 HD
ENDBRANCH   5  18
BRANCH   3  22
ATOM     22  C   LIG d   1      -0.379  86.802 111.616  0.00  0.00     0.382 C 
ATOM     23  O   LIG d   1      -1.523  87.247 111.353  0.00  0.00    -0.241 OA
ATOM     24  O   LIG d   1       0.469  87.557 112.128  0.00  0.00    -0.241 OA
ENDBRANCH   3  22
TORSDOF 7
ENDMDL
MODEL 2
REMARK VINA RESULT:      -6.4      2.543      4.165
REMARK  7 active torsions:
REMARK  status: ('A' for Active; 'I' for Inactive)
REMARK    1  A    between atoms: C_2  and  C_3 
REMARK    2  A    between atoms: C_3  and  O_6 
REMARK    3  A    between atoms: C_3  and  C_4 
REMARK    4  A    between atoms: C_7  and  O_6 
REMARK    5  A    between atoms: C_9  and  C_10 
REMARK    6  A    between atoms: N_15  and  C_14 
REMARK    7  A    between atoms: N_20  and  C_19 
REMARK       I    between atoms: C_22  and  N_20 
ROOT
ATOM      1  C   LIG d   1       0.324  82.540 111.183  0.00  0.00     0.161 C 
ATOM      2  C   LIG d   1      -0.762  82.359 112.056  0.00  0.00     0.016 C 
ATOM      3  C   LIG d   1      -1.389  81.110 112.268  0.00  0.00     0.038 C 
ATOM      4  C   LIG d   1      -0.873  79.921 111.732  0.00  0.00     0.028 C 
ATOM      5  C   LIG d   1      -0.084  80.129 110.444  0.00  0.00    -0.047 C 
ATOM      6  C   LIG d   1       0.971  81.235 110.675  0.00  0.00     0.091 C 
ENDROOT
BRANCH   1   7
ATOM      7  O   LIG d   1       1.315  83.382 111.805  0.00  0.00    -0.368 OA
BRANCH   7   8
ATOM      8  C   LIG d   1       1.459  84.713 111.252  0.00  0.00     0.119 C 
BRANCH   8   9
ATOM      9  C   LIG d   1       0.605  84.777 109.971  0.00  0.00     0.028 C 
ATOM     10  C   LIG d   1      -0.415  85.928 110.002  0.00  0.00     0.006 C 
ENDBRANCH   8   9
BRANCH   8  11
ATOM     11  C   LIG d   1       2.897  84.974 110.794  0.00  0.00     0.028 C 
ATOM     12  C   LIG d   1       3.584  86.091 111.596  0.00  0.00     0.006 C 
ENDBRANCH   8  11
ENDBRANCH   7   8
ENDBRANCH   1   7
BRANCH   6  13
ATOM     13  N   LIG d   1       1.731  81.560 109.440  0.00  0.00    -0.311 N 
ATOM     14  C   LIG d   1       3.061  81.550 109.374  0.00  0.00     0.210 C 
ATOM     15  C   LIG d   1       3.644  81.936 108.011  0.00  0.00     0.109 C 
ATOM     16  O   LIG d   1       3.813  81.226 110.306  0.00  0.00    -0.276 OA
ATOM     17  H   LIG d   1       1.199  81.804 108.628  0.00  0.00     0.149 HD
ENDBRANCH   6  13
BRANCH   5  18
ATOM     18  N   LIG d   1       0.511  78.831 110.071  0.00  0.00     0.381 N 
ATOM     19  H   LIG d   1      -0.034  78.404 109.350  0.00  0.00    -0.090 HD
ATOM     20  H   LIG d   1       0.502  78.227 110.874  0.00  0.00    -0.090 HD
ATOM     21  H   LIG d   1       1.447  78.963 109.756  0.00  0.00    -0.090 HD
ENDBRANCH   5  18
BRANCH   3  22
ATOM     22  C   LIG d   1      -2.571  81.048 112.991  0.00  0.00     0.382 C 
ATOM     23  O   LIG d   1      -3.596  81.637 112.570  0.00  0.00    -0.241 OA
ATOM     24  O   LIG d   1      -2.612  80.449 114.082  0.00  0.00    -0.241 OA
ENDBRANCH   3  22
TORSDOF 7
ENDMDL
MODEL 3
REMARK VINA RESULT:      -6.4      2.007      3.374
REMARK  7 active torsions:
REMARK  status: ('A' for Active; 'I' for Inactive)
REMARK    1  A    between atoms: C_2  and  C_3 
REMARK    2  A    between atoms: C_3  and  O_6 
REMARK    3  A    between atoms: C_3  and  C_4 
REMARK    4  A    between atoms: C_7  and  O_6 
REMARK    5  A    between atoms: C_9  and  C_10 
REMARK    6  A    between atoms: N_15  and  C_14 
REMARK    7  A    between atoms: N_20  and  C_19 
REMARK       I    between atoms: C_22  and  N_20 
ROOT
ATOM      1  C   LIG d   1       2.381  85.398 110.653  0.00  0.00     0.161 C 
ATOM      2  C   LIG d   1       1.329  86.146 111.208  0.00  0.00     0.016 C 
ATOM      3  C   LIG d   1       0.030  85.627 111.414  0.00  0.00     0.038 C 
ATOM      4  C   LIG d   1      -0.266  84.269 111.218  0.00  0.00     0.028 C 
ATOM      5  C   LIG d   1       0.630  83.598 110.183  0.00  0.00    -0.047 C 
ATOM      6  C   LIG d   1       2.108  83.884 110.536  0.00  0.00     0.091 C 
ENDROOT
BRANCH   1   7
ATOM      7  O   LIG d   1       3.593  85.632 111.399  0.00  0.00    -0.368 OA
BRANCH   7   8
ATOM      8  C   LIG d   1       3.459  86.438 112.595  0.00  0.00     0.119 C 
BRANCH   8   9
ATOM      9  C   LIG d   1       4.621  87.450 112.604  0.00  0.00     0.028 C 
ATOM     10  C   LIG d   1       4.335  88.665 113.503  0.00  0.00     0.006 C 
ENDBRANCH   8   9
BRANCH   8  11
ATOM     11  C   LIG d   1       3.648  85.594 113.859  0.00  0.00     0.028 C 
ATOM     12  C   LIG d   1       2.322  85.283 114.572  0.00  0.00     0.006 C 
ENDBRANCH   8  11
ENDBRANCH   7   8
ENDBRANCH   1   7
BRANCH   6  13
ATOM     13  N   LIG d   1       3.049  83.334 109.527  0.00  0.00    -0.311 N 
ATOM     14  C   LIG d   1       4.034  82.488 109.827  0.00  0.00     0.210 C 
ATOM     15  C   LIG d   1       4.901  82.059 108.639  0.00  0.00     0.109 C 
ATOM     16  O   LIG d   1       4.251  82.028 110.958  0.00  0.00    -0.276 OA
ATOM     17  H   LIG d   1       2.925  83.630 108.578  0.00  0.00     0.149 HD
ENDBRANCH   6  13
BRANCH   5  18
ATOM     18  N   LIG d   1       0.305  82.159 110.178  0.00  0.00     0.381 N 
ATOM     19  H   LIG d   1      -0.626  82.023 109.839  0.00  0.00    -0.090 HD
ATOM     20  H   LIG d   1       0.352  81.812 111.120  0.00  0.00    -0.090 HD
ATOM     21  H   LIG d   1       0.951  81.665 109.603  0.00  0.00    -0.090 HD
ENDBRANCH   5  18
BRANCH   3  22
ATOM     22  C   LIG d   1      -0.999  86.478 111.784  0.00  0.00     0.382 C 
ATOM     23  O   LIG d   1      -1.493  86.403 112.935  0.00  0.00    -0.241 OA
ATOM     24  O   LIG d   1      -1.471  87.291 110.967  0.00  0.00    -0.241 OA
ENDBRANCH   3  22
TORSDOF 7
ENDMDL
MODEL 4
REMARK VINA RESULT:      -6.2      2.544      4.755
REMARK  7 active torsions:
REMARK  status: ('A' for Active; 'I' for Inactive)
REMARK    1  A    between atoms: C_2  and  C_3 
REMARK    2  A    between atoms: C_3  and  O_6 
REMARK    3  A    between atoms: C_3  and  C_4 
REMARK    4  A    between atoms: C_7  and  O_6 
REMARK    5  A    between atoms: C_9  and  C_10 
REMARK    6  A    between atoms: N_15  and  C_14 
REMARK    7  A    between atoms: N_20  and  C_19 
REMARK       I    between atoms: C_22  and  N_20 
ROOT
ATOM      1  C   LIG d   1       2.186  83.363 111.675  0.00  0.00     0.161 C 
ATOM      2  C   LIG d   1       1.115  82.454 111.659  0.00  0.00     0.016 C 
ATOM      3  C   LIG d   1      -0.203  82.797 112.038  0.00  0.00     0.038 C 
ATOM      4  C   LIG d   1      -0.573  84.122 112.316  0.00  0.00     0.028 C 
ATOM      5  C   LIG d   1       0.579  84.977 112.834  0.00  0.00    -0.047 C 
ATOM      6  C   LIG d   1       1.779  84.838 111.869  0.00  0.00     0.091 C 
ENDROOT
BRANCH   1   7
ATOM      7  O   LIG d   1       2.972  83.213 110.476  0.00  0.00    -0.368 OA
BRANCH   7   8
ATOM      8  C   LIG d   1       2.736  82.009 109.706  0.00  0.00     0.119 C 
BRANCH   8   9
ATOM      9  C   LIG d   1       4.109  81.378 109.402  0.00  0.00     0.028 C 
ATOM     10  C   LIG d   1       4.918  82.198 108.383  0.00  0.00     0.006 C 
ENDBRANCH   8   9
BRANCH   8  11
ATOM     11  C   LIG d   1       2.126  82.332 108.339  0.00  0.00     0.028 C 
ATOM     12  C   LIG d   1       1.375  83.673 108.323  0.00  0.00     0.006 C 
ENDBRANCH   8  11
ENDBRANCH   7   8
ENDBRANCH   1   7
BRANCH   6  13
ATOM     13  N   LIG d   1       2.977  85.577 112.346  0.00  0.00    -0.311 N 
ATOM     14  C   LIG d   1       3.177  86.874 112.120  0.00  0.00     0.210 C 
ATOM     15  C   LIG d   1       4.488  87.434 112.682  0.00  0.00     0.109 C 
ATOM     16  O   LIG d   1       2.379  87.621 111.535  0.00  0.00    -0.276 OA
ATOM     17  H   LIG d   1       3.662  85.054 112.857  0.00  0.00     0.149 HD
ENDBRANCH   6  13
BRANCH   5  18
ATOM     18  N   LIG d   1       0.087  86.362 112.951  0.00  0.00     0.381 N 
ATOM     19  H   LIG d   1      -0.119  86.727 112.042  0.00  0.00    -0.090 HD
ATOM     20  H   LIG d   1       0.808  86.929 113.361  0.00  0.00    -0.090 HD
ATOM     21  H   LIG d   1      -0.730  86.388 113.520  0.00  0.00    -0.090 HD
ENDBRANCH   5  18
BRANCH   3  22
ATOM     22  C   LIG d   1      -1.159  81.803 112.180  0.00  0.00     0.382 C 
ATOM     23  O   LIG d   1      -0.919  80.640 111.773  0.00  0.00    -0.241 OA
ATOM     24  O   LIG d   1      -2.274  82.064 112.670  0.00  0.00    -0.241 OA
ENDBRANCH   3  22
TORSDOF 7
ENDMDL
MODEL 5
REMARK VINA RESULT:      -6.2      2.203      4.820
REMARK  7 active torsions:
REMARK  status: ('A' for Active; 'I' for Inactive)
REMARK    1  A    between atoms: C_2  and  C_3 
REMARK    2  A    between atoms: C_3  and  O_6 
REMARK    3  A    between atoms: C_3  and  C_4 
REMARK    4  A    between atoms: C_7  and  O_6 
REMARK    5  A    between atoms: C_9  and  C_10 
REMARK    6  A    between atoms: N_15  and  C_14 
REMARK    7  A    between atoms: N_20  and  C_19 
REMARK       I    between atoms: C_22  and  N_20 
ROOT
ATOM      1  C   LIG d   1       1.897  81.830 111.559  0.00  0.00     0.161 C 
ATOM      2  C   LIG d   1       3.095  81.989 110.843  0.00  0.00     0.016 C 
ATOM      3  C   LIG d   1       3.243  81.626 109.485  0.00  0.00     0.038 C 
ATOM      4  C   LIG d   1       2.153  81.219 108.703  0.00  0.00     0.028 C 
ATOM      5  C   LIG d   1       1.038  80.565 109.512  0.00  0.00    -0.047 C 
ATOM      6  C   LIG d   1       0.666  81.491 110.693  0.00  0.00     0.091 C 
ENDROOT
BRANCH   1   7
ATOM      7  O   LIG d   1       1.642  83.007 112.352  0.00  0.00    -0.368 OA
BRANCH   7   8
ATOM      8  C   LIG d   1       2.103  84.263 111.795  0.00  0.00     0.119 C 
BRANCH   8   9
ATOM      9  C   LIG d   1       2.748  85.067 112.940  0.00  0.00     0.028 C 
ATOM     10  C   LIG d   1       3.734  86.130 112.427  0.00  0.00     0.006 C 
ENDBRANCH   8   9
BRANCH   8  11
ATOM     11  C   LIG d   1       0.930  85.119 111.308  0.00  0.00     0.028 C 
ATOM     12  C   LIG d   1       0.809  85.146 109.776  0.00  0.00     0.006 C 
ENDBRANCH   8  11
ENDBRANCH   7   8
ENDBRANCH   1   7
BRANCH   6  13
ATOM     13  N   LIG d   1      -0.359  80.889 111.584  0.00  0.00    -0.311 N 
ATOM     14  C   LIG d   1      -1.337  81.590 112.156  0.00  0.00     0.210 C 
ATOM     15  C   LIG d   1      -2.275  80.778 113.054  0.00  0.00     0.109 C 
ATOM     16  O   LIG d   1      -1.536  82.801 111.978  0.00  0.00    -0.276 OA
ATOM     17  H   LIG d   1      -0.292  79.905 111.758  0.00  0.00     0.149 HD
ENDBRANCH   6  13
BRANCH   5  18
ATOM     18  N   LIG d   1      -0.091  80.315 108.596  0.00  0.00     0.381 N 
ATOM     19  H   LIG d   1      -0.539  79.454 108.837  0.00  0.00    -0.090 HD
ATOM     20  H   LIG d   1       0.263  80.235 107.659  0.00  0.00    -0.090 HD
ATOM     21  H   LIG d   1      -0.745  81.065 108.649  0.00  0.00    -0.090 HD
ENDBRANCH   5  18
BRANCH   3  22
ATOM     22  C   LIG d   1       4.503  81.632 108.906  0.00  0.00     0.382 C 
ATOM     23  O   LIG d   1       5.277  80.660 109.077  0.00  0.00    -0.241 OA
ATOM     24  O   LIG d   1       4.893  82.618 108.251  0.00  0.00    -0.241 OA
ENDBRANCH   3  22
TORSDOF 7
ENDMDL
MODEL 6
REMARK VINA RESULT:      -6.1      2.201      3.306
REMARK  7 active torsions:
REMARK  status: ('A' for Active; 'I' for Inactive)
REMARK    1  A    between atoms: C_2  and  C_3 
REMARK    2  A    between atoms: C_3  and  O_6 
REMARK    3  A    between atoms: C_3  and  C_4 
REMARK    4  A    between atoms: C_7  and  O_6 
REMARK    5  A    between atoms: C_9  and  C_10 
REMARK    6  A    between atoms: N_15  and  C_14 
REMARK    7  A    between atoms: N_20  and  C_19 
REMARK       I    between atoms: C_22  and  N_20 
ROOT
ATOM      1  C   LIG d   1       0.890  82.748 110.503  0.00  0.00     0.161 C 
ATOM      2  C   LIG d   1       1.482  84.007 110.305  0.00  0.00     0.016 C 
ATOM      3  C   LIG d   1       2.205  84.693 111.307  0.00  0.00     0.038 C 
ATOM      4  C   LIG d   1       2.517  84.096 112.537  0.00  0.00     0.028 C 
ATOM      5  C   LIG d   1       1.512  83.032 112.965  0.00  0.00    -0.047 C 
ATOM      6  C   LIG d   1       1.314  82.032 111.803  0.00  0.00     0.091 C 
ENDROOT
BRANCH   1   7
ATOM      7  O   LIG d   1       1.141  81.905 109.362  0.00  0.00    -0.368 OA
BRANCH   7   8
ATOM      8  C   LIG d   1       2.412  81.209 109.351  0.00  0.00     0.119 C 
BRANCH   8   9
ATOM      9  C   LIG d   1       3.239  81.774 108.179  0.00  0.00     0.028 C 
ATOM     10  C   LIG d   1       4.620  82.281 108.626  0.00  0.00     0.006 C 
ENDBRANCH   8   9
BRANCH   8  11
ATOM     11  C   LIG d   1       2.231  79.721 109.038  0.00  0.00     0.028 C 
ATOM     12  C   LIG d   1       0.755  79.290 109.026  0.00  0.00     0.006 C 
ENDBRANCH   8  11
ENDBRANCH   7   8
ENDBRANCH   1   7
BRANCH   6  13
ATOM     13  N   LIG d   1       0.283  81.006 112.108  0.00  0.00    -0.311 N 
ATOM     14  C   LIG d   1      -0.995  81.297 112.341  0.00  0.00     0.210 C 
ATOM     15  C   LIG d   1      -1.886  80.091 112.655  0.00  0.00     0.109 C 
ATOM     16  O   LIG d   1      -1.482  82.436 112.285  0.00  0.00    -0.276 OA
ATOM     17  H   LIG d   1       0.586  80.052 112.142  0.00  0.00     0.149 HD
ENDBRANCH   6  13
BRANCH   5  18
ATOM     18  N   LIG d   1       2.032  82.397 114.192  0.00  0.00     0.381 N 
ATOM     19  H   LIG d   1       1.278  81.984 114.704  0.00  0.00    -0.090 HD
ATOM     20  H   LIG d   1       2.457  83.102 114.768  0.00  0.00    -0.090 HD
ATOM     21  H   LIG d   1       2.704  81.700 113.956  0.00  0.00    -0.090 HD
ENDBRANCH   5  18
BRANCH   3  22
ATOM     22  C   LIG d   1       2.591  86.009 111.096  0.00  0.00     0.382 C 
ATOM     23  O   LIG d   1       3.771  86.361 111.334  0.00  0.00    -0.241 OA
ATOM     24  O   LIG d   1       1.762  86.857 110.715  0.00  0.00    -0.241 OA
ENDBRANCH   3  22
TORSDOF 7
ENDMDL
MODEL 7
REMARK VINA RESULT:      -6.1      2.861      3.891
REMARK  7 active torsions:
REMARK  status: ('A' for Active; 'I' for Inactive)
REMARK    1  A    between atoms: C_2  and  C_3 
REMARK    2  A    between atoms: C_3  and  O_6 
REMARK    3  A    between atoms: C_3  and  C_4 
REMARK    4  A    between atoms: C_7  and  O_6 
REMARK    5  A    between atoms: C_9  and  C_10 
REMARK    6  A    between atoms: N_15  and  C_14 
REMARK    7  A    between atoms: N_20  and  C_19 
REMARK       I    between atoms: C_22  and  N_20 
ROOT
ATOM      1  C   LIG d   1       3.036  84.693 111.864  0.00  0.00     0.161 C 
ATOM      2  C   LIG d   1       3.736  85.910 111.888  0.00  0.00     0.016 C 
ATOM      3  C   LIG d   1       3.799  86.750 113.024  0.00  0.00     0.038 C 
ATOM      4  C   LIG d   1       3.286  86.352 114.269  0.00  0.00     0.028 C 
ATOM      5  C   LIG d   1       2.135  85.359 114.160  0.00  0.00    -0.047 C 
ATOM      6  C   LIG d   1       2.564  84.190 113.244  0.00  0.00     0.091 C 
ENDROOT
BRANCH   1   7
ATOM      7  O   LIG d   1       3.831  83.685 111.208  0.00  0.00    -0.368 OA
BRANCH   7   8
ATOM      8  C   LIG d   1       3.611  83.526 109.785  0.00  0.00     0.119 C 
BRANCH   8   9
ATOM      9  C   LIG d   1       2.206  82.921 109.598  0.00  0.00     0.028 C 
ATOM     10  C   LIG d   1       1.287  83.820 108.754  0.00  0.00     0.006 C 
ENDBRANCH   8   9
BRANCH   8  11
ATOM     11  C   LIG d   1       4.577  82.501 109.183  0.00  0.00     0.028 C 
ATOM     12  C   LIG d   1       4.321  81.072 109.690  0.00  0.00     0.006 C 
ENDBRANCH   8  11
ENDBRANCH   7   8
ENDBRANCH   1   7
BRANCH   6  13
ATOM     13  N   LIG d   1       1.466  83.215 113.017  0.00  0.00    -0.311 N 
ATOM     14  C   LIG d   1       1.642  81.895 113.039  0.00  0.00     0.210 C 
ATOM     15  C   LIG d   1       0.382  81.070 112.760  0.00  0.00     0.109 C 
ATOM     16  O   LIG d   1       2.715  81.328 113.296  0.00  0.00    -0.276 OA
ATOM     17  H   LIG d   1       0.556  83.588 112.833  0.00  0.00     0.149 HD
ENDBRANCH   6  13
BRANCH   5  18
ATOM     18  N   LIG d   1       1.790  84.925 115.527  0.00  0.00     0.381 N 
ATOM     19  H   LIG d   1       1.191  85.602 115.956  0.00  0.00    -0.090 HD
ATOM     20  H   LIG d   1       2.633  84.861 116.070  0.00  0.00    -0.090 HD
ATOM     21  H   LIG d   1       1.335  84.039 115.500  0.00  0.00    -0.090 HD
ENDBRANCH   5  18
BRANCH   3  22
ATOM     22  C   LIG d   1       4.344  88.019 112.912  0.00  0.00     0.382 C 
ATOM     23  O   LIG d   1       5.553  88.158 112.606  0.00  0.00    -0.241 OA
ATOM     24  O   LIG d   1       3.654  89.027 113.156  0.00  0.00    -0.241 OA
ENDBRANCH   3  22
TORSDOF 7
ENDMDL
MODEL 8
REMARK VINA RESULT:      -6.1      1.831      4.794
REMARK  7 active torsions:
REMARK  status: ('A' for Active; 'I' for Inactive)
REMARK    1  A    between atoms: C_2  and  C_3 
REMARK    2  A    between atoms: C_3  and  O_6 
REMARK    3  A    between atoms: C_3  and  C_4 
REMARK    4  A    between atoms: C_7  and  O_6 
REMARK    5  A    between atoms: C_9  and  C_10 
REMARK    6  A    between atoms: N_15  and  C_14 
REMARK    7  A    between atoms: N_20  and  C_19 
REMARK       I    between atoms: C_22  and  N_20 
ROOT
ATOM      1  C   LIG d   1       1.713  83.479 110.594  0.00  0.00     0.161 C 
ATOM      2  C   LIG d   1       3.000  83.325 110.052  0.00  0.00     0.016 C 
ATOM      3  C   LIG d   1       3.321  82.362 109.069  0.00  0.00     0.038 C 
ATOM      4  C   LIG d   1       2.335  81.582 108.446  0.00  0.00     0.028 C 
ATOM      5  C   LIG d   1       1.106  81.351 109.317  0.00  0.00    -0.047 C 
ATOM      6  C   LIG d   1       0.602  82.713 109.846  0.00  0.00     0.091 C 
ENDROOT
BRANCH   1   7
ATOM      7  O   LIG d   1       1.384  84.880 110.681  0.00  0.00    -0.368 OA
BRANCH   7   8
ATOM      8  C   LIG d   1       1.583  85.502 111.975  0.00  0.00     0.119 C 
BRANCH   8   9
ATOM      9  C   LIG d   1       0.207  85.983 112.474  0.00  0.00     0.028 C 
ATOM     10  C   LIG d   1      -0.672  86.529 111.336  0.00  0.00     0.006 C 
ENDBRANCH   8   9
BRANCH   8  11
ATOM     11  C   LIG d   1       2.438  86.767 111.859  0.00  0.00     0.028 C 
ATOM     12  C   LIG d   1       3.946  86.469 111.844  0.00  0.00     0.006 C 
ENDBRANCH   8  11
ENDBRANCH   7   8
ENDBRANCH   1   7
BRANCH   6  13
ATOM     13  N   LIG d   1      -0.549  82.570 110.776  0.00  0.00    -0.311 N 
ATOM     14  C   LIG d   1      -0.508  81.834 111.886  0.00  0.00     0.210 C 
ATOM     15  C   LIG d   1      -1.810  81.806 112.692  0.00  0.00     0.109 C 
ATOM     16  O   LIG d   1       0.494  81.228 112.296  0.00  0.00    -0.276 OA
ATOM     17  H   LIG d   1      -1.392  83.053 110.536  0.00  0.00     0.149 HD
ENDBRANCH   6  13
BRANCH   5  18
ATOM     18  N   LIG d   1       0.104  80.643 108.497  0.00  0.00     0.381 N 
ATOM     19  H   LIG d   1      -0.794  80.704 108.932  0.00  0.00    -0.090 HD
ATOM     20  H   LIG d   1       0.360  79.673 108.437  0.00  0.00    -0.090 HD
ATOM     21  H   LIG d   1       0.068  81.042 107.585  0.00  0.00    -0.090 HD
ENDBRANCH   5  18
BRANCH   3  22
ATOM     22  C   LIG d   1       4.647  82.143 108.727  0.00  0.00     0.382 C 
ATOM     23  O   LIG d   1       5.243  81.123 109.149  0.00  0.00    -0.241 OA
ATOM     24  O   LIG d   1       5.268  82.975 108.039  0.00  0.00    -0.241 OA
ENDBRANCH   3  22
TORSDOF 7
ENDMDL
MODEL 9
REMARK VINA RESULT:      -5.8      2.224      5.081
REMARK  7 active torsions:
REMARK  status: ('A' for Active; 'I' for Inactive)
REMARK    1  A    between atoms: C_2  and  C_3 
REMARK    2  A    between atoms: C_3  and  O_6 
REMARK    3  A    between atoms: C_3  and  C_4 
REMARK    4  A    between atoms: C_7  and  O_6 
REMARK    5  A    between atoms: C_9  and  C_10 
REMARK    6  A    between atoms: N_15  and  C_14 
REMARK    7  A    between atoms: N_20  and  C_19 
REMARK       I    between atoms: C_22  and  N_20 
ROOT
ATOM      1  C   LIG d   1       1.912  83.724 110.998  0.00  0.00     0.161 C 
ATOM      2  C   LIG d   1       2.276  82.886 109.931  0.00  0.00     0.016 C 
ATOM      3  C   LIG d   1       2.097  81.483 109.947  0.00  0.00     0.038 C 
ATOM      4  C   LIG d   1       1.398  80.837 110.978  0.00  0.00     0.028 C 
ATOM      5  C   LIG d   1       1.460  81.578 112.309  0.00  0.00    -0.047 C 
ATOM      6  C   LIG d   1       1.047  83.050 112.084  0.00  0.00     0.091 C 
ENDROOT
BRANCH   1   7
ATOM      7  O   LIG d   1       1.252  84.901 110.491  0.00  0.00    -0.368 OA
BRANCH   7   8
ATOM      8  C   LIG d   1       1.955  86.155 110.675  0.00  0.00     0.119 C 
BRANCH   8   9
ATOM      9  C   LIG d   1       3.345  85.826 111.254  0.00  0.00     0.028 C 
ATOM     10  C   LIG d   1       3.820  86.876 112.272  0.00  0.00     0.006 C 
ENDBRANCH   8   9
BRANCH   8  11
ATOM     11  C   LIG d   1       1.271  87.027 111.733  0.00  0.00     0.028 C 
ATOM     12  C   LIG d   1      -0.255  86.852 111.753  0.00  0.00     0.006 C 
ENDBRANCH   8  11
ENDBRANCH   7   8
ENDBRANCH   1   7
BRANCH   6  13
ATOM     13  N   LIG d   1       1.161  83.867 113.320  0.00  0.00    -0.311 N 
ATOM     14  C   LIG d   1       2.267  83.927 114.060  0.00  0.00     0.210 C 
ATOM     15  C   LIG d   1       2.165  84.813 115.305  0.00  0.00     0.109 C 
ATOM     16  O   LIG d   1       3.333  83.356 113.785  0.00  0.00    -0.276 OA
ATOM     17  H   LIG d   1       0.352  84.387 113.600  0.00  0.00     0.149 HD
ENDBRANCH   6  13
BRANCH   5  18
ATOM     18  N   LIG d   1       0.579  80.869 113.256  0.00  0.00     0.381 N 
ATOM     19  H   LIG d   1       0.450  79.923 112.955  0.00  0.00    -0.090 HD
ATOM     20  H   LIG d   1      -0.318  81.321 113.266  0.00  0.00    -0.090 HD
ATOM     21  H   LIG d   1       0.977  80.883 114.169  0.00  0.00    -0.090 HD
ENDBRANCH   5  18
BRANCH   3  22
ATOM     22  C   LIG d   1       2.656  80.708 108.943  0.00  0.00     0.382 C 
ATOM     23  O   LIG d   1       2.623  79.456 109.026  0.00  0.00    -0.241 OA
ATOM     24  O   LIG d   1       3.231  81.243 107.977  0.00  0.00    -0.241 OA
ENDBRANCH   3  22
TORSDOF 7
ENDMDL
