MODEL 1
REMARK VINA RESULT:      -6.9      0.000      0.000
REMARK  7 active torsions:
REMARK  status: ('A' for Active; 'I' for Inactive)
REMARK    1  A    between atoms: C_2  and  C_3 
REMARK    2  A    between atoms: C_3  and  O_6 
REMARK    3  A    between atoms: C_3  and  C_4 
REMARK    4  A    between atoms: C_7  and  O_6 
REMARK    5  A    between atoms: C_9  and  C_10 
REMARK    6  A    between atoms: N_15  and  C_14 
REMARK    7  A    between atoms: N_20  and  C_19 
REMARK       I    between atoms: C_22  and  N_20 
ROOT
ATOM      1  C   LIG d   1       1.903  85.657 110.254  0.00  0.00     0.161 C 
ATOM      2  C   LIG d   1       0.876  86.355 110.910  0.00  0.00     0.016 C 
ATOM      3  C   LIG d   1      -0.344  85.756 111.302  0.00  0.00     0.038 C 
ATOM      4  C   LIG d   1      -0.558  84.374 111.198  0.00  0.00     0.028 C 
ATOM      5  C   LIG d   1       0.248  83.718 110.082  0.00  0.00    -0.047 C 
ATOM      6  C   LIG d   1       1.732  84.124 110.231  0.00  0.00     0.091 C 
ENDROOT
BRANCH   1   7
ATOM      7  O   LIG d   1       3.177  86.011 110.827  0.00  0.00    -0.368 OA
BRANCH   7   8
ATOM      8  C   LIG d   1       3.149  86.509 112.187  0.00  0.00     0.119 C 
BRANCH   8   9
ATOM      9  C   LIG d   1       4.351  87.457 112.359  0.00  0.00     0.028 C 
ATOM     10  C   LIG d   1       3.973  88.760 113.083  0.00  0.00     0.006 C 
ENDBRANCH   8   9
BRANCH   8  11
ATOM     11  C   LIG d   1       3.374  85.381 113.198  0.00  0.00     0.028 C 
ATOM     12  C   LIG d   1       2.176  85.177 114.140  0.00  0.00     0.006 C 
ENDBRANCH   8  11
ENDBRANCH   7   8
ENDBRANCH   1   7
BRANCH   6  13
ATOM     13  N   LIG d   1       2.578  83.593 109.130  0.00  0.00    -0.311 N 
ATOM     14  C   LIG d   1       3.311  82.486 109.237  0.00  0.00     0.210 C 
ATOM     15  C   LIG d   1       4.125  82.127 107.990  0.00  0.00     0.109 C 
ATOM     16  O   LIG d   1       3.339  81.750 110.235  0.00  0.00    -0.276 OA
ATOM     17  H   LIG d   1       2.590  84.112 108.274  0.00  0.00     0.149 HD
ENDBRANCH   6  13
BRANCH   5  18
ATOM     18  N   LIG d   1       0.035  82.261 110.175  0.00  0.00     0.381 N 
ATOM     19  H   LIG d   1       0.061  81.856 109.261  0.00  0.00    -0.090 HD
ATOM     20  H   LIG d   1      -0.873  82.090 110.570  0.00  0.00    -0.090 HD
ATOM     21  H   LIG d   1       0.738  81.850 110.749  0.00  0.00    -0.090 HD
ENDBRANCH   5  18
BRANCH   3  22
ATOM     22  C   LIG d   1      -1.380  86.550 111.769  0.00  0.00     0.382 C 
ATOM     23  O   LIG d   1      -1.784  86.424 112.950  0.00  0.00    -0.241 OA
ATOM     24  O   LIG d   1      -1.947  87.360 111.011  0.00  0.00    -0.241 OA
ENDBRANCH   3  22
TORSDOF 7
ENDMDL
MODEL 2
REMARK VINA RESULT:      -6.4      3.040      4.095
REMARK  7 active torsions:
REMARK  status: ('A' for Active; 'I' for Inactive)
REMARK    1  A    between atoms: C_2  and  C_3 
REMARK    2  A    between atoms: C_3  and  O_6 
REMARK    3  A    between atoms: C_3  and  C_4 
REMARK    4  A    between atoms: C_7  and  O_6 
REMARK    5  A    between atoms: C_9  and  C_10 
REMARK    6  A    between atoms: N_15  and  C_14 
REMARK    7  A    between atoms: N_20  and  C_19 
REMARK       I    between atoms: C_22  and  N_20 
ROOT
ATOM      1  C   LIG d   1       0.384  82.400 111.028  0.00  0.00     0.161 C 
ATOM      2  C   LIG d   1      -0.714  82.136 111.863  0.00  0.00     0.016 C 
ATOM      3  C   LIG d   1      -1.374  80.886 111.908  0.00  0.00     0.038 C 
ATOM      4  C   LIG d   1      -0.882  79.763 111.226  0.00  0.00     0.028 C 
ATOM      5  C   LIG d   1      -0.076  80.115 109.981  0.00  0.00    -0.047 C 
ATOM      6  C   LIG d   1       1.004  81.155 110.360  0.00  0.00     0.091 C 
ENDROOT
BRANCH   1   7
ATOM      7  O   LIG d   1       1.390  83.129 111.759  0.00  0.00    -0.368 OA
BRANCH   7   8
ATOM      8  C   LIG d   1       1.588  84.510 111.368  0.00  0.00     0.119 C 
BRANCH   8   9
ATOM      9  C   LIG d   1       0.767  84.750 110.086  0.00  0.00     0.028 C 
ATOM     10  C   LIG d   1      -0.145  85.984 110.195  0.00  0.00     0.006 C 
ENDBRANCH   8   9
BRANCH   8  11
ATOM     11  C   LIG d   1       3.043  84.774 110.972  0.00  0.00     0.028 C 
ATOM     12  C   LIG d   1       3.502  86.203 111.304  0.00  0.00     0.006 C 
ENDBRANCH   8  11
ENDBRANCH   7   8
ENDBRANCH   1   7
BRANCH   6  13
ATOM     13  N   LIG d   1       1.783  81.617 109.182  0.00  0.00    -0.311 N 
ATOM     14  C   LIG d   1       3.114  81.585 109.125  0.00  0.00     0.210 C 
ATOM     15  C   LIG d   1       3.718  82.128 107.826  0.00  0.00     0.109 C 
ATOM     16  O   LIG d   1       3.849  81.129 110.014  0.00  0.00    -0.276 OA
ATOM     17  H   LIG d   1       1.265  81.974 108.403  0.00  0.00     0.149 HD
ENDBRANCH   6  13
BRANCH   5  18
ATOM     18  N   LIG d   1       0.491  78.862 109.448  0.00  0.00     0.381 N 
ATOM     19  H   LIG d   1       0.321  78.114 110.090  0.00  0.00    -0.090 HD
ATOM     20  H   LIG d   1       1.484  78.972 109.346  0.00  0.00    -0.090 HD
ATOM     21  H   LIG d   1       0.081  78.651 108.565  0.00  0.00    -0.090 HD
ENDBRANCH   5  18
BRANCH   3  22
ATOM     22  C   LIG d   1      -2.563  80.762 112.610  0.00  0.00     0.382 C 
ATOM     23  O   LIG d   1      -2.843  79.682 113.184  0.00  0.00    -0.241 OA
ATOM     24  O   LIG d   1      -3.381  81.702 112.639  0.00  0.00    -0.241 OA
ENDBRANCH   3  22
TORSDOF 7
ENDMDL
MODEL 3
REMARK VINA RESULT:      -6.3      2.441      5.067
REMARK  7 active torsions:
REMARK  status: ('A' for Active; 'I' for Inactive)
REMARK    1  A    between atoms: C_2  and  C_3 
REMARK    2  A    between atoms: C_3  and  O_6 
REMARK    3  A    between atoms: C_3  and  C_4 
REMARK    4  A    between atoms: C_7  and  O_6 
REMARK    5  A    between atoms: C_9  and  C_10 
REMARK    6  A    between atoms: N_15  and  C_14 
REMARK    7  A    between atoms: N_20  and  C_19 
REMARK       I    between atoms: C_22  and  N_20 
ROOT
ATOM      1  C   LIG d   1       2.168  83.447 111.787  0.00  0.00     0.161 C 
ATOM      2  C   LIG d   1       1.119  82.518 111.679  0.00  0.00     0.016 C 
ATOM      3  C   LIG d   1      -0.247  82.882 111.683  0.00  0.00     0.038 C 
ATOM      4  C   LIG d   1      -0.657  84.223 111.644  0.00  0.00     0.028 C 
ATOM      5  C   LIG d   1       0.355  85.184 112.260  0.00  0.00    -0.047 C 
ATOM      6  C   LIG d   1       1.743  84.922 111.632  0.00  0.00     0.091 C 
ENDROOT
BRANCH   1   7
ATOM      7  O   LIG d   1       3.206  83.123 110.841  0.00  0.00    -0.368 OA
BRANCH   7   8
ATOM      8  C   LIG d   1       2.813  82.290 109.723  0.00  0.00     0.119 C 
BRANCH   8   9
ATOM      9  C   LIG d   1       3.936  81.259 109.497  0.00  0.00     0.028 C 
ATOM     10  C   LIG d   1       3.427  79.810 109.581  0.00  0.00     0.006 C 
ENDBRANCH   8   9
BRANCH   8  11
ATOM     11  C   LIG d   1       2.739  83.099 108.425  0.00  0.00     0.028 C 
ATOM     12  C   LIG d   1       1.333  83.658 108.151  0.00  0.00     0.006 C 
ENDBRANCH   8  11
ENDBRANCH   7   8
ENDBRANCH   1   7
BRANCH   6  13
ATOM     13  N   LIG d   1       2.807  85.763 112.239  0.00  0.00    -0.311 N 
ATOM     14  C   LIG d   1       3.155  86.959 111.768  0.00  0.00     0.210 C 
ATOM     15  C   LIG d   1       4.290  87.650 112.531  0.00  0.00     0.109 C 
ATOM     16  O   LIG d   1       2.610  87.528 110.810  0.00  0.00    -0.276 OA
ATOM     17  H   LIG d   1       3.281  85.392 113.040  0.00  0.00     0.149 HD
ENDBRANCH   6  13
BRANCH   5  18
ATOM     18  N   LIG d   1      -0.135  86.556 112.027  0.00  0.00     0.381 N 
ATOM     19  H   LIG d   1       0.008  87.111 112.847  0.00  0.00    -0.090 HD
ATOM     20  H   LIG d   1      -1.122  86.521 111.839  0.00  0.00    -0.090 HD
ATOM     21  H   LIG d   1       0.344  86.963 111.254  0.00  0.00    -0.090 HD
ENDBRANCH   5  18
BRANCH   3  22
ATOM     22  C   LIG d   1      -1.220  81.898 111.768  0.00  0.00     0.382 C 
ATOM     23  O   LIG d   1      -2.326  82.155 112.303  0.00  0.00    -0.241 OA
ATOM     24  O   LIG d   1      -0.990  80.745 111.357  0.00  0.00    -0.241 OA
ENDBRANCH   3  22
TORSDOF 7
ENDMDL
MODEL 4
REMARK VINA RESULT:      -6.2      2.746      5.263
REMARK  7 active torsions:
REMARK  status: ('A' for Active; 'I' for Inactive)
REMARK    1  A    between atoms: C_2  and  C_3 
REMARK    2  A    between atoms: C_3  and  O_6 
REMARK    3  A    between atoms: C_3  and  C_4 
REMARK    4  A    between atoms: C_7  and  O_6 
REMARK    5  A    between atoms: C_9  and  C_10 
REMARK    6  A    between atoms: N_15  and  C_14 
REMARK    7  A    between atoms: N_20  and  C_19 
REMARK       I    between atoms: C_22  and  N_20 
ROOT
ATOM      1  C   LIG d   1       1.054  82.225 111.766  0.00  0.00     0.161 C 
ATOM      2  C   LIG d   1       2.103  82.756 110.997  0.00  0.00     0.016 C 
ATOM      3  C   LIG d   1       2.273  82.485 109.619  0.00  0.00     0.038 C 
ATOM      4  C   LIG d   1       1.313  81.781 108.878  0.00  0.00     0.028 C 
ATOM      5  C   LIG d   1       0.499  80.801 109.717  0.00  0.00    -0.047 C 
ATOM      6  C   LIG d   1      -0.065  81.544 110.950  0.00  0.00     0.091 C 
ENDROOT
BRANCH   1   7
ATOM      7  O   LIG d   1       0.503  83.250 112.615  0.00  0.00    -0.368 OA
BRANCH   7   8
ATOM      8  C   LIG d   1       0.586  84.607 112.113  0.00  0.00     0.119 C 
BRANCH   8   9
ATOM      9  C   LIG d   1       0.977  85.515 113.295  0.00  0.00     0.028 C 
ATOM     10  C   LIG d   1       1.949  84.826 114.267  0.00  0.00     0.006 C 
ENDBRANCH   8   9
BRANCH   8  11
ATOM     11  C   LIG d   1      -0.782  85.114 111.647  0.00  0.00     0.028 C 
ATOM     12  C   LIG d   1      -0.726  85.806 110.276  0.00  0.00     0.006 C 
ENDBRANCH   8  11
ENDBRANCH   7   8
ENDBRANCH   1   7
BRANCH   6  13
ATOM     13  N   LIG d   1      -0.804  80.639 111.868  0.00  0.00    -0.311 N 
ATOM     14  C   LIG d   1      -1.939  80.979 112.477  0.00  0.00     0.210 C 
ATOM     15  C   LIG d   1      -2.526  79.905 113.397  0.00  0.00     0.109 C 
ATOM     16  O   LIG d   1      -2.532  82.056 112.316  0.00  0.00    -0.276 OA
ATOM     17  H   LIG d   1      -0.409  79.733 112.031  0.00  0.00     0.149 HD
ENDBRANCH   6  13
BRANCH   5  18
ATOM     18  N   LIG d   1      -0.553  80.238 108.850  0.00  0.00     0.381 N 
ATOM     19  H   LIG d   1      -1.336  79.957 109.406  0.00  0.00    -0.090 HD
ATOM     20  H   LIG d   1      -0.189  79.426 108.384  0.00  0.00    -0.090 HD
ATOM     21  H   LIG d   1      -0.840  80.916 108.178  0.00  0.00    -0.090 HD
ENDBRANCH   5  18
BRANCH   3  22
ATOM     22  C   LIG d   1       3.435  82.888 108.978  0.00  0.00     0.382 C 
ATOM     23  O   LIG d   1       3.869  82.234 108.000  0.00  0.00    -0.241 OA
ATOM     24  O   LIG d   1       4.077  83.871 109.393  0.00  0.00    -0.241 OA
ENDBRANCH   3  22
TORSDOF 7
ENDMDL
MODEL 5
REMARK VINA RESULT:      -6.2      2.402      4.880
REMARK  7 active torsions:
REMARK  status: ('A' for Active; 'I' for Inactive)
REMARK    1  A    between atoms: C_2  and  C_3 
REMARK    2  A    between atoms: C_3  and  O_6 
REMARK    3  A    between atoms: C_3  and  C_4 
REMARK    4  A    between atoms: C_7  and  O_6 
REMARK    5  A    between atoms: C_9  and  C_10 
REMARK    6  A    between atoms: N_15  and  C_14 
REMARK    7  A    between atoms: N_20  and  C_19 
REMARK       I    between atoms: C_22  and  N_20 
ROOT
ATOM      1  C   LIG d   1       1.456  84.128 110.668  0.00  0.00     0.161 C 
ATOM      2  C   LIG d   1       2.181  85.331 110.637  0.00  0.00     0.016 C 
ATOM      3  C   LIG d   1       2.775  85.912 111.781  0.00  0.00     0.038 C 
ATOM      4  C   LIG d   1       2.812  85.247 113.015  0.00  0.00     0.028 C 
ATOM      5  C   LIG d   1       1.659  84.269 113.212  0.00  0.00    -0.047 C 
ATOM      6  C   LIG d   1       1.581  83.332 111.984  0.00  0.00     0.091 C 
ENDROOT
BRANCH   1   7
ATOM      7  O   LIG d   1       1.829  83.303 109.547  0.00  0.00    -0.368 OA
BRANCH   7   8
ATOM      8  C   LIG d   1       2.760  82.229 109.827  0.00  0.00     0.119 C 
BRANCH   8   9
ATOM      9  C   LIG d   1       4.116  82.618 109.207  0.00  0.00     0.028 C 
ATOM     10  C   LIG d   1       4.272  82.103 107.767  0.00  0.00     0.006 C 
ENDBRANCH   8   9
BRANCH   8  11
ATOM     11  C   LIG d   1       2.347  80.935 109.119  0.00  0.00     0.028 C 
ATOM     12  C   LIG d   1       0.859  80.913 108.738  0.00  0.00     0.006 C 
ENDBRANCH   8  11
ENDBRANCH   7   8
ENDBRANCH   1   7
BRANCH   6  13
ATOM     13  N   LIG d   1       0.427  82.398 112.057  0.00  0.00    -0.311 N 
ATOM     14  C   LIG d   1       0.528  81.140 112.480  0.00  0.00     0.210 C 
ATOM     15  C   LIG d   1      -0.780  80.343 112.456  0.00  0.00     0.109 C 
ATOM     16  O   LIG d   1       1.570  80.617 112.903  0.00  0.00    -0.276 OA
ATOM     17  H   LIG d   1      -0.463  82.750 111.762  0.00  0.00     0.149 HD
ENDBRANCH   6  13
BRANCH   5  18
ATOM     18  N   LIG d   1       1.897  83.547 114.476  0.00  0.00     0.381 N 
ATOM     19  H   LIG d   1       2.439  84.116 115.094  0.00  0.00    -0.090 HD
ATOM     20  H   LIG d   1       2.418  82.710 114.279  0.00  0.00    -0.090 HD
ATOM     21  H   LIG d   1       1.029  83.313 114.904  0.00  0.00    -0.090 HD
ENDBRANCH   5  18
BRANCH   3  22
ATOM     22  C   LIG d   1       3.305  87.191 111.705  0.00  0.00     0.382 C 
ATOM     23  O   LIG d   1       4.510  87.388 111.995  0.00  0.00    -0.241 OA
ATOM     24  O   LIG d   1       2.583  88.157 111.394  0.00  0.00    -0.241 OA
ENDBRANCH   3  22
TORSDOF 7
ENDMDL
MODEL 6
REMARK VINA RESULT:      -5.6      2.408      4.880
REMARK  7 active torsions:
REMARK  status: ('A' for Active; 'I' for Inactive)
REMARK    1  A    between atoms: C_2  and  C_3 
REMARK    2  A    between atoms: C_3  and  O_6 
REMARK    3  A    between atoms: C_3  and  C_4 
REMARK    4  A    between atoms: C_7  and  O_6 
REMARK    5  A    between atoms: C_9  and  C_10 
REMARK    6  A    between atoms: N_15  and  C_14 
REMARK    7  A    between atoms: N_20  and  C_19 
REMARK       I    between atoms: C_22  and  N_20 
ROOT
ATOM      1  C   LIG d   1       1.894  84.844 111.555  0.00  0.00     0.161 C 
ATOM      2  C   LIG d   1       2.677  85.985 111.792  0.00  0.00     0.016 C 
ATOM      3  C   LIG d   1       3.291  86.263 113.035  0.00  0.00     0.038 C 
ATOM      4  C   LIG d   1       3.288  85.334 114.087  0.00  0.00     0.028 C 
ATOM      5  C   LIG d   1       2.087  84.395 114.063  0.00  0.00    -0.047 C 
ATOM      6  C   LIG d   1       1.971  83.765 112.656  0.00  0.00     0.091 C 
ENDROOT
BRANCH   1   7
ATOM      7  O   LIG d   1       2.233  84.277 110.273  0.00  0.00    -0.368 OA
BRANCH   7   8
ATOM      8  C   LIG d   1       1.139  84.120 109.336  0.00  0.00     0.119 C 
BRANCH   8   9
ATOM      9  C   LIG d   1       1.702  83.426 108.081  0.00  0.00     0.028 C 
ATOM     10  C   LIG d   1       2.872  82.483 108.406  0.00  0.00     0.006 C 
ENDBRANCH   8   9
BRANCH   8  11
ATOM     11  C   LIG d   1       0.622  85.478 108.851  0.00  0.00     0.028 C 
ATOM     12  C   LIG d   1      -0.584  85.979 109.661  0.00  0.00     0.006 C 
ENDBRANCH   8  11
ENDBRANCH   7   8
ENDBRANCH   1   7
BRANCH   6  13
ATOM     13  N   LIG d   1       0.773  82.897 112.520  0.00  0.00    -0.311 N 
ATOM     14  C   LIG d   1       0.820  81.649 112.057  0.00  0.00     0.210 C 
ATOM     15  C   LIG d   1      -0.534  80.937 111.979  0.00  0.00     0.109 C 
ATOM     16  O   LIG d   1       1.859  81.054 111.732  0.00  0.00    -0.276 OA
ATOM     17  H   LIG d   1      -0.108  83.290 112.790  0.00  0.00     0.149 HD
ENDBRANCH   6  13
BRANCH   5  18
ATOM     18  N   LIG d   1       2.282  83.395 115.129  0.00  0.00     0.381 N 
ATOM     19  H   LIG d   1       1.410  82.952 115.342  0.00  0.00    -0.090 HD
ATOM     20  H   LIG d   1       2.608  83.862 115.957  0.00  0.00    -0.090 HD
ATOM     21  H   LIG d   1       2.947  82.712 114.840  0.00  0.00    -0.090 HD
ENDBRANCH   5  18
BRANCH   3  22
ATOM     22  C   LIG d   1       3.884  87.498 113.249  0.00  0.00     0.382 C 
ATOM     23  O   LIG d   1       4.800  87.894 112.488  0.00  0.00    -0.241 OA
ATOM     24  O   LIG d   1       3.545  88.202 114.219  0.00  0.00    -0.241 OA
ENDBRANCH   3  22
TORSDOF 7
ENDMDL
MODEL 7
REMARK VINA RESULT:      -5.4      2.536      4.810
REMARK  7 active torsions:
REMARK  status: ('A' for Active; 'I' for Inactive)
REMARK    1  A    between atoms: C_2  and  C_3 
REMARK    2  A    between atoms: C_3  and  O_6 
REMARK    3  A    between atoms: C_3  and  C_4 
REMARK    4  A    between atoms: C_7  and  O_6 
REMARK    5  A    between atoms: C_9  and  C_10 
REMARK    6  A    between atoms: N_15  and  C_14 
REMARK    7  A    between atoms: N_20  and  C_19 
REMARK       I    between atoms: C_22  and  N_20 
ROOT
ATOM      1  C   LIG d   1       2.048  85.619 112.352  0.00  0.00     0.161 C 
ATOM      2  C   LIG d   1       2.846  86.591 112.978  0.00  0.00     0.016 C 
ATOM      3  C   LIG d   1       3.399  86.430 114.269  0.00  0.00     0.038 C 
ATOM      4  C   LIG d   1       3.316  85.214 114.965  0.00  0.00     0.028 C 
ATOM      5  C   LIG d   1       2.094  84.383 114.587  0.00  0.00    -0.047 C 
ATOM      6  C   LIG d   1       2.038  84.243 113.049  0.00  0.00     0.091 C 
ENDROOT
BRANCH   1   7
ATOM      7  O   LIG d   1       2.441  85.479 110.972  0.00  0.00    -0.368 OA
BRANCH   7   8
ATOM      8  C   LIG d   1       1.504  85.984 109.988  0.00  0.00     0.119 C 
BRANCH   8   9
ATOM      9  C   LIG d   1       0.305  86.578 110.752  0.00  0.00     0.028 C 
ATOM     10  C   LIG d   1      -1.037  85.989 110.288  0.00  0.00     0.006 C 
ENDBRANCH   8   9
BRANCH   8  11
ATOM     11  C   LIG d   1       0.922  84.849 109.140  0.00  0.00     0.028 C 
ATOM     12  C   LIG d   1       1.956  83.762 108.809  0.00  0.00     0.006 C 
ENDBRANCH   8  11
ENDBRANCH   7   8
ENDBRANCH   1   7
BRANCH   6  13
ATOM     13  N   LIG d   1       0.827  83.515 112.590  0.00  0.00    -0.311 N 
ATOM     14  C   LIG d   1       0.872  82.348 111.949  0.00  0.00     0.210 C 
ATOM     15  C   LIG d   1      -0.492  81.778 111.546  0.00  0.00     0.109 C 
ATOM     16  O   LIG d   1       1.910  81.716 111.703  0.00  0.00    -0.276 OA
ATOM     17  H   LIG d   1      -0.060  83.941 112.775  0.00  0.00     0.149 HD
ENDBRANCH   6  13
BRANCH   5  18
ATOM     18  N   LIG d   1       2.205  83.087 115.282  0.00  0.00     0.381 N 
ATOM     19  H   LIG d   1       1.312  82.819 115.646  0.00  0.00    -0.090 HD
ATOM     20  H   LIG d   1       2.843  83.185 116.053  0.00  0.00    -0.090 HD
ATOM     21  H   LIG d   1       2.538  82.390 114.653  0.00  0.00    -0.090 HD
ENDBRANCH   5  18
BRANCH   3  22
ATOM     22  C   LIG d   1       4.010  87.506 114.894  0.00  0.00     0.382 C 
ATOM     23  O   LIG d   1       3.366  88.564 115.093  0.00  0.00    -0.241 OA
ATOM     24  O   LIG d   1       5.211  87.448 115.221  0.00  0.00    -0.241 OA
ENDBRANCH   3  22
TORSDOF 7
ENDMDL
MODEL 8
REMARK VINA RESULT:      -5.2      3.257      5.428
REMARK  7 active torsions:
REMARK  status: ('A' for Active; 'I' for Inactive)
REMARK    1  A    between atoms: C_2  and  C_3 
REMARK    2  A    between atoms: C_3  and  O_6 
REMARK    3  A    between atoms: C_3  and  C_4 
REMARK    4  A    between atoms: C_7  and  O_6 
REMARK    5  A    between atoms: C_9  and  C_10 
REMARK    6  A    between atoms: N_15  and  C_14 
REMARK    7  A    between atoms: N_20  and  C_19 
REMARK       I    between atoms: C_22  and  N_20 
ROOT
ATOM      1  C   LIG d   1       1.530  86.050 113.222  0.00  0.00     0.161 C 
ATOM      2  C   LIG d   1       1.765  87.338 112.713  0.00  0.00     0.016 C 
ATOM      3  C   LIG d   1       2.688  88.244 113.284  0.00  0.00     0.038 C 
ATOM      4  C   LIG d   1       3.556  87.864 114.320  0.00  0.00     0.028 C 
ATOM      5  C   LIG d   1       3.003  86.742 115.192  0.00  0.00    -0.047 C 
ATOM      6  C   LIG d   1       2.547  85.578 114.283  0.00  0.00     0.091 C 
ENDROOT
BRANCH   1   7
ATOM      7  O   LIG d   1       1.461  85.102 112.138  0.00  0.00    -0.368 OA
BRANCH   7   8
ATOM      8  C   LIG d   1       1.803  85.609 110.825  0.00  0.00     0.119 C 
BRANCH   8   9
ATOM      9  C   LIG d   1       0.688  85.174 109.855  0.00  0.00     0.028 C 
ATOM     10  C   LIG d   1      -0.655  85.858 110.161  0.00  0.00     0.006 C 
ENDBRANCH   8   9
BRANCH   8  11
ATOM     11  C   LIG d   1       3.082  84.956 110.291  0.00  0.00     0.028 C 
ATOM     12  C   LIG d   1       2.984  83.424 110.222  0.00  0.00     0.006 C 
ENDBRANCH   8  11
ENDBRANCH   7   8
ENDBRANCH   1   7
BRANCH   6  13
ATOM     13  N   LIG d   1       1.915  84.473 115.050  0.00  0.00    -0.311 N 
ATOM     14  C   LIG d   1       2.609  83.506 115.648  0.00  0.00     0.210 C 
ATOM     15  C   LIG d   1       1.762  82.453 116.370  0.00  0.00     0.109 C 
ATOM     16  O   LIG d   1       3.847  83.438 115.678  0.00  0.00    -0.276 OA
ATOM     17  H   LIG d   1       0.916  84.468 115.104  0.00  0.00     0.149 HD
ENDBRANCH   6  13
BRANCH   5  18
ATOM     18  N   LIG d   1       4.063  86.352 116.141  0.00  0.00     0.381 N 
ATOM     19  H   LIG d   1       3.841  86.694 117.055  0.00  0.00    -0.090 HD
ATOM     20  H   LIG d   1       4.929  86.770 115.851  0.00  0.00    -0.090 HD
ATOM     21  H   LIG d   1       4.154  85.361 116.163  0.00  0.00    -0.090 HD
ENDBRANCH   5  18
BRANCH   3  22
ATOM     22  C   LIG d   1       2.723  89.558 112.845  0.00  0.00     0.382 C 
ATOM     23  O   LIG d   1       1.750  90.034 112.212  0.00  0.00    -0.241 OA
ATOM     24  O   LIG d   1       3.733  90.262 113.036  0.00  0.00    -0.241 OA
ENDBRANCH   3  22
TORSDOF 7
ENDMDL
MODEL 9
REMARK VINA RESULT:      -4.7     24.499     27.278
REMARK  7 active torsions:
REMARK  status: ('A' for Active; 'I' for Inactive)
REMARK    1  A    between atoms: C_2  and  C_3 
REMARK    2  A    between atoms: C_3  and  O_6 
REMARK    3  A    between atoms: C_3  and  C_4 
REMARK    4  A    between atoms: C_7  and  O_6 
REMARK    5  A    between atoms: C_9  and  C_10 
REMARK    6  A    between atoms: N_15  and  C_14 
REMARK    7  A    between atoms: N_20  and  C_19 
REMARK       I    between atoms: C_22  and  N_20 
ROOT
ATOM      1  C   LIG d   1     -25.436  86.608 113.085  0.00  0.00     0.161 C 
ATOM      2  C   LIG d   1     -24.533  87.453 113.752  0.00  0.00     0.016 C 
ATOM      3  C   LIG d   1     -23.250  87.040 114.177  0.00  0.00     0.038 C 
ATOM      4  C   LIG d   1     -22.720  85.789 113.828  0.00  0.00     0.028 C 
ATOM      5  C   LIG d   1     -23.786  84.724 113.592  0.00  0.00    -0.047 C 
ATOM      6  C   LIG d   1     -24.833  85.274 112.597  0.00  0.00     0.091 C 
ENDROOT
BRANCH   1   7
ATOM      7  O   LIG d   1     -26.045  87.314 111.986  0.00  0.00    -0.368 OA
BRANCH   7   8
ATOM      8  C   LIG d   1     -27.064  88.283 112.338  0.00  0.00     0.119 C 
BRANCH   8   9
ATOM      9  C   LIG d   1     -28.346  87.905 111.571  0.00  0.00     0.028 C 
ATOM     10  C   LIG d   1     -28.931  86.560 112.032  0.00  0.00     0.006 C 
ENDBRANCH   8   9
BRANCH   8  11
ATOM     11  C   LIG d   1     -26.694  89.684 111.844  0.00  0.00     0.028 C 
ATOM     12  C   LIG d   1     -26.449  89.736 110.327  0.00  0.00     0.006 C 
ENDBRANCH   8  11
ENDBRANCH   7   8
ENDBRANCH   1   7
BRANCH   6  13
ATOM     13  N   LIG d   1     -25.957  84.327 112.376  0.00  0.00    -0.311 N 
ATOM     14  C   LIG d   1     -26.276  83.833 111.181  0.00  0.00     0.210 C 
ATOM     15  C   LIG d   1     -27.482  82.889 111.172  0.00  0.00     0.109 C 
ATOM     16  O   LIG d   1     -25.654  84.063 110.133  0.00  0.00    -0.276 OA
ATOM     17  H   LIG d   1     -26.495  84.062 113.178  0.00  0.00     0.149 HD
ENDBRANCH   6  13
BRANCH   5  18
ATOM     18  N   LIG d   1     -23.104  83.511 113.103  0.00  0.00     0.381 N 
ATOM     19  H   LIG d   1     -23.621  82.699 113.373  0.00  0.00    -0.090 HD
ATOM     20  H   LIG d   1     -22.193  83.459 113.522  0.00  0.00    -0.090 HD
ATOM     21  H   LIG d   1     -23.019  83.545 112.111  0.00  0.00    -0.090 HD
ENDBRANCH   5  18
BRANCH   3  22
ATOM     22  C   LIG d   1     -22.497  87.868 114.995  0.00  0.00     0.382 C 
ATOM     23  O   LIG d   1     -21.498  88.468 114.531  0.00  0.00    -0.241 OA
ATOM     24  O   LIG d   1     -22.778  87.989 116.203  0.00  0.00    -0.241 OA
ENDBRANCH   3  22
TORSDOF 7
ENDMDL
