MODEL 1
REMARK VINA RESULT:      -5.7      0.000      0.000
REMARK  7 active torsions:
REMARK  status: ('A' for Active; 'I' for Inactive)
REMARK    1  A    between atoms: C_2  and  C_3 
REMARK    2  A    between atoms: C_3  and  O_6 
REMARK    3  A    between atoms: C_3  and  C_4 
REMARK    4  A    between atoms: C_7  and  O_6 
REMARK    5  A    between atoms: C_9  and  C_10 
REMARK    6  A    between atoms: N_15  and  C_14 
REMARK    7  A    between atoms: N_20  and  C_19 
REMARK       I    between atoms: C_22  and  N_20 
ROOT
ATOM      1  C   LIG d   1      -8.721  75.152 118.275  0.00  0.00     0.161 C 
ATOM      2  C   LIG d   1     -10.094  75.188 118.572  0.00  0.00     0.016 C 
ATOM      3  C   LIG d   1     -10.799  76.382 118.850  0.00  0.00     0.038 C 
ATOM      4  C   LIG d   1     -10.207  77.645 118.700  0.00  0.00     0.028 C 
ATOM      5  C   LIG d   1      -8.694  77.631 118.894  0.00  0.00    -0.047 C 
ATOM      6  C   LIG d   1      -8.083  76.530 117.998  0.00  0.00     0.091 C 
ENDROOT
BRANCH   1   7
ATOM      7  O   LIG d   1      -8.484  74.259 117.169  0.00  0.00    -0.368 OA
BRANCH   7   8
ATOM      8  C   LIG d   1      -8.468  72.845 117.484  0.00  0.00     0.119 C 
BRANCH   8   9
ATOM      9  C   LIG d   1      -7.267  72.220 116.749  0.00  0.00     0.028 C 
ATOM     10  C   LIG d   1      -6.328  73.282 116.151  0.00  0.00     0.006 C 
ENDBRANCH   8   9
BRANCH   8  11
ATOM     11  C   LIG d   1      -9.702  72.135 116.920  0.00  0.00     0.028 C 
ATOM     12  C   LIG d   1      -9.732  70.635 117.255  0.00  0.00     0.006 C 
ENDBRANCH   8  11
ENDBRANCH   7   8
ENDBRANCH   1   7
BRANCH   6  13
ATOM     13  N   LIG d   1      -6.616  76.392 118.190  0.00  0.00    -0.311 N 
ATOM     14  C   LIG d   1      -5.716  76.998 117.417  0.00  0.00     0.210 C 
ATOM     15  C   LIG d   1      -4.255  76.706 117.775  0.00  0.00     0.109 C 
ATOM     16  O   LIG d   1      -5.988  77.775 116.490  0.00  0.00    -0.276 OA
ATOM     17  H   LIG d   1      -6.307  75.805 118.939  0.00  0.00     0.149 HD
ENDBRANCH   6  13
BRANCH   5  18
ATOM     18  N   LIG d   1      -8.192  78.981 118.575  0.00  0.00     0.381 N 
ATOM     19  H   LIG d   1      -7.436  79.215 119.188  0.00  0.00    -0.090 HD
ATOM     20  H   LIG d   1      -8.932  79.646 118.719  0.00  0.00    -0.090 HD
ATOM     21  H   LIG d   1      -7.884  79.015 117.628  0.00  0.00    -0.090 HD
ENDBRANCH   5  18
BRANCH   3  22
ATOM     22  C   LIG d   1     -12.101  76.317 119.321  0.00  0.00     0.382 C 
ATOM     23  O   LIG d   1     -12.318  76.218 120.553  0.00  0.00    -0.241 OA
ATOM     24  O   LIG d   1     -13.061  76.312 118.528  0.00  0.00    -0.241 OA
ENDBRANCH   3  22
TORSDOF 7
ENDMDL
MODEL 2
REMARK VINA RESULT:      -5.7      2.109      4.715
REMARK  7 active torsions:
REMARK  status: ('A' for Active; 'I' for Inactive)
REMARK    1  A    between atoms: C_2  and  C_3 
REMARK    2  A    between atoms: C_3  and  O_6 
REMARK    3  A    between atoms: C_3  and  C_4 
REMARK    4  A    between atoms: C_7  and  O_6 
REMARK    5  A    between atoms: C_9  and  C_10 
REMARK    6  A    between atoms: N_15  and  C_14 
REMARK    7  A    between atoms: N_20  and  C_19 
REMARK       I    between atoms: C_22  and  N_20 
ROOT
ATOM      1  C   LIG d   1      -7.802  75.495 117.886  0.00  0.00     0.161 C 
ATOM      2  C   LIG d   1      -7.919  74.199 117.357  0.00  0.00     0.016 C 
ATOM      3  C   LIG d   1      -9.112  73.442 117.410  0.00  0.00     0.038 C 
ATOM      4  C   LIG d   1     -10.320  73.992 117.865  0.00  0.00     0.028 C 
ATOM      5  C   LIG d   1     -10.129  75.122 118.872  0.00  0.00    -0.047 C 
ATOM      6  C   LIG d   1      -9.138  76.154 118.287  0.00  0.00     0.091 C 
ENDROOT
BRANCH   1   7
ATOM      7  O   LIG d   1      -7.086  76.338 116.961  0.00  0.00    -0.368 OA
BRANCH   7   8
ATOM      8  C   LIG d   1      -5.676  76.049 116.797  0.00  0.00     0.119 C 
BRANCH   8   9
ATOM      9  C   LIG d   1      -4.888  77.174 117.495  0.00  0.00     0.028 C 
ATOM     10  C   LIG d   1      -5.675  78.494 117.550  0.00  0.00     0.006 C 
ENDBRANCH   8   9
BRANCH   8  11
ATOM     11  C   LIG d   1      -5.261  76.117 115.324  0.00  0.00     0.028 C 
ATOM     12  C   LIG d   1      -5.339  74.754 114.618  0.00  0.00     0.006 C 
ENDBRANCH   8  11
ENDBRANCH   7   8
ENDBRANCH   1   7
BRANCH   6  13
ATOM     13  N   LIG d   1      -8.831  77.250 119.242  0.00  0.00    -0.311 N 
ATOM     14  C   LIG d   1      -9.526  78.385 119.304  0.00  0.00     0.210 C 
ATOM     15  C   LIG d   1      -9.029  79.391 120.347  0.00  0.00     0.109 C 
ATOM     16  O   LIG d   1     -10.525  78.641 118.616  0.00  0.00    -0.276 OA
ATOM     17  H   LIG d   1      -8.055  77.113 119.859  0.00  0.00     0.149 HD
ENDBRANCH   6  13
BRANCH   5  18
ATOM     18  N   LIG d   1     -11.459  75.694 119.157  0.00  0.00     0.381 N 
ATOM     19  H   LIG d   1     -11.907  75.953 118.300  0.00  0.00    -0.090 HD
ATOM     20  H   LIG d   1     -11.344  76.522 119.715  0.00  0.00    -0.090 HD
ATOM     21  H   LIG d   1     -12.018  75.030 119.645  0.00  0.00    -0.090 HD
ENDBRANCH   5  18
BRANCH   3  22
ATOM     22  C   LIG d   1      -9.095  72.106 117.042  0.00  0.00     0.382 C 
ATOM     23  O   LIG d   1      -8.017  71.565 116.695  0.00  0.00    -0.241 OA
ATOM     24  O   LIG d   1     -10.151  71.446 117.009  0.00  0.00    -0.241 OA
ENDBRANCH   3  22
TORSDOF 7
ENDMDL
MODEL 3
REMARK VINA RESULT:      -5.7      2.151      5.159
REMARK  7 active torsions:
REMARK  status: ('A' for Active; 'I' for Inactive)
REMARK    1  A    between atoms: C_2  and  C_3 
REMARK    2  A    between atoms: C_3  and  O_6 
REMARK    3  A    between atoms: C_3  and  C_4 
REMARK    4  A    between atoms: C_7  and  O_6 
REMARK    5  A    between atoms: C_9  and  C_10 
REMARK    6  A    between atoms: N_15  and  C_14 
REMARK    7  A    between atoms: N_20  and  C_19 
REMARK       I    between atoms: C_22  and  N_20 
ROOT
ATOM      1  C   LIG d   1      -7.747  75.878 117.099  0.00  0.00     0.161 C 
ATOM      2  C   LIG d   1      -6.688  75.174 116.501  0.00  0.00     0.016 C 
ATOM      3  C   LIG d   1      -5.340  75.595 116.564  0.00  0.00     0.038 C 
ATOM      4  C   LIG d   1      -4.937  76.677 117.362  0.00  0.00     0.028 C 
ATOM      5  C   LIG d   1      -6.035  77.714 117.574  0.00  0.00    -0.047 C 
ATOM      6  C   LIG d   1      -7.313  76.999 118.066  0.00  0.00     0.091 C 
ENDROOT
BRANCH   1   7
ATOM      7  O   LIG d   1      -8.632  74.956 117.764  0.00  0.00    -0.368 OA
BRANCH   7   8
ATOM      8  C   LIG d   1      -9.895  74.695 117.103  0.00  0.00     0.119 C 
BRANCH   8   9
ATOM      9  C   LIG d   1     -10.996  75.413 117.908  0.00  0.00     0.028 C 
ATOM     10  C   LIG d   1     -10.767  75.321 119.426  0.00  0.00     0.006 C 
ENDBRANCH   8   9
BRANCH   8  11
ATOM     11  C   LIG d   1     -10.256  73.208 117.159  0.00  0.00     0.028 C 
ATOM     12  C   LIG d   1      -9.021  72.294 117.140  0.00  0.00     0.006 C 
ENDBRANCH   8  11
ENDBRANCH   7   8
ENDBRANCH   1   7
BRANCH   6  13
ATOM     13  N   LIG d   1      -8.461  77.930 118.218  0.00  0.00    -0.311 N 
ATOM     14  C   LIG d   1      -8.793  78.503 119.374  0.00  0.00     0.210 C 
ATOM     15  C   LIG d   1     -10.023  79.414 119.315  0.00  0.00     0.109 C 
ATOM     16  O   LIG d   1      -8.166  78.368 120.436  0.00  0.00    -0.276 OA
ATOM     17  H   LIG d   1      -9.006  78.120 117.400  0.00  0.00     0.149 HD
ENDBRANCH   6  13
BRANCH   5  18
ATOM     18  N   LIG d   1      -5.525  78.713 118.533  0.00  0.00     0.381 N 
ATOM     19  H   LIG d   1      -5.916  78.543 119.438  0.00  0.00    -0.090 HD
ATOM     20  H   LIG d   1      -5.811  79.628 118.232  0.00  0.00    -0.090 HD
ATOM     21  H   LIG d   1      -4.531  78.666 118.578  0.00  0.00    -0.090 HD
ENDBRANCH   5  18
BRANCH   3  22
ATOM     22  C   LIG d   1      -4.383  74.956 115.791  0.00  0.00     0.382 C 
ATOM     23  O   LIG d   1      -4.563  74.820 114.556  0.00  0.00    -0.241 OA
ATOM     24  O   LIG d   1      -3.363  74.474 116.318  0.00  0.00    -0.241 OA
ENDBRANCH   3  22
TORSDOF 7
ENDMDL
MODEL 4
REMARK VINA RESULT:      -5.5      2.289      4.976
REMARK  7 active torsions:
REMARK  status: ('A' for Active; 'I' for Inactive)
REMARK    1  A    between atoms: C_2  and  C_3 
REMARK    2  A    between atoms: C_3  and  O_6 
REMARK    3  A    between atoms: C_3  and  C_4 
REMARK    4  A    between atoms: C_7  and  O_6 
REMARK    5  A    between atoms: C_9  and  C_10 
REMARK    6  A    between atoms: N_15  and  C_14 
REMARK    7  A    between atoms: N_20  and  C_19 
REMARK       I    between atoms: C_22  and  N_20 
ROOT
ATOM      1  C   LIG d   1      -8.351  75.369 119.073  0.00  0.00     0.161 C 
ATOM      2  C   LIG d   1      -8.194  74.168 118.362  0.00  0.00     0.016 C 
ATOM      3  C   LIG d   1      -9.223  73.581 117.590  0.00  0.00     0.038 C 
ATOM      4  C   LIG d   1     -10.439  74.238 117.353  0.00  0.00     0.028 C 
ATOM      5  C   LIG d   1     -10.827  75.213 118.461  0.00  0.00    -0.047 C 
ATOM      6  C   LIG d   1      -9.635  76.157 118.738  0.00  0.00     0.091 C 
ENDROOT
BRANCH   1   7
ATOM      7  O   LIG d   1      -7.189  76.202 118.888  0.00  0.00    -0.368 OA
BRANCH   7   8
ATOM      8  C   LIG d   1      -7.198  77.057 117.719  0.00  0.00     0.119 C 
BRANCH   8   9
ATOM      9  C   LIG d   1      -6.033  76.614 116.813  0.00  0.00     0.028 C 
ATOM     10  C   LIG d   1      -6.508  75.776 115.613  0.00  0.00     0.006 C 
ENDBRANCH   8   9
BRANCH   8  11
ATOM     11  C   LIG d   1      -6.892  78.511 118.089  0.00  0.00     0.028 C 
ATOM     12  C   LIG d   1      -6.473  78.676 119.559  0.00  0.00     0.006 C 
ENDBRANCH   8  11
ENDBRANCH   7   8
ENDBRANCH   1   7
BRANCH   6  13
ATOM     13  N   LIG d   1      -9.899  77.088 119.865  0.00  0.00    -0.311 N 
ATOM     14  C   LIG d   1     -10.277  78.354 119.698  0.00  0.00     0.210 C 
ATOM     15  C   LIG d   1     -10.477  79.146 120.994  0.00  0.00     0.109 C 
ATOM     16  O   LIG d   1     -10.497  78.887 118.600  0.00  0.00    -0.276 OA
ATOM     17  H   LIG d   1      -9.775  76.729 120.792  0.00  0.00     0.149 HD
ENDBRANCH   6  13
BRANCH   5  18
ATOM     18  N   LIG d   1     -12.040  75.927 118.021  0.00  0.00     0.381 N 
ATOM     19  H   LIG d   1     -12.531  75.376 117.346  0.00  0.00    -0.090 HD
ATOM     20  H   LIG d   1     -11.769  76.791 117.587  0.00  0.00    -0.090 HD
ATOM     21  H   LIG d   1     -12.630  76.110 118.803  0.00  0.00    -0.090 HD
ENDBRANCH   5  18
BRANCH   3  22
ATOM     22  C   LIG d   1      -9.054  72.304 117.078  0.00  0.00     0.382 C 
ATOM     23  O   LIG d   1      -7.919  71.925 116.701  0.00  0.00    -0.241 OA
ATOM     24  O   LIG d   1     -10.030  71.541 116.947  0.00  0.00    -0.241 OA
ENDBRANCH   3  22
TORSDOF 7
ENDMDL
MODEL 5
REMARK VINA RESULT:      -5.3      2.191      3.103
REMARK  7 active torsions:
REMARK  status: ('A' for Active; 'I' for Inactive)
REMARK    1  A    between atoms: C_2  and  C_3 
REMARK    2  A    between atoms: C_3  and  O_6 
REMARK    3  A    between atoms: C_3  and  C_4 
REMARK    4  A    between atoms: C_7  and  O_6 
REMARK    5  A    between atoms: C_9  and  C_10 
REMARK    6  A    between atoms: N_15  and  C_14 
REMARK    7  A    between atoms: N_20  and  C_19 
REMARK       I    between atoms: C_22  and  N_20 
ROOT
ATOM      1  C   LIG d   1      -7.166  76.156 117.967  0.00  0.00     0.161 C 
ATOM      2  C   LIG d   1      -8.069  76.945 118.699  0.00  0.00     0.016 C 
ATOM      3  C   LIG d   1      -7.917  78.339 118.879  0.00  0.00     0.038 C 
ATOM      4  C   LIG d   1      -6.925  79.069 118.207  0.00  0.00     0.028 C 
ATOM      5  C   LIG d   1      -5.692  78.241 117.862  0.00  0.00    -0.047 C 
ATOM      6  C   LIG d   1      -6.140  76.953 117.134  0.00  0.00     0.091 C 
ENDROOT
BRANCH   1   7
ATOM      7  O   LIG d   1      -7.891  75.239 117.124  0.00  0.00    -0.368 OA
BRANCH   7   8
ATOM      8  C   LIG d   1      -8.424  74.060 117.776  0.00  0.00     0.119 C 
BRANCH   8   9
ATOM      9  C   LIG d   1      -7.577  72.856 117.321  0.00  0.00     0.028 C 
ATOM     10  C   LIG d   1      -8.439  71.634 116.960  0.00  0.00     0.006 C 
ENDBRANCH   8   9
BRANCH   8  11
ATOM     11  C   LIG d   1      -9.848  73.757 117.302  0.00  0.00     0.028 C 
ATOM     12  C   LIG d   1     -10.783  74.972 117.408  0.00  0.00     0.006 C 
ENDBRANCH   8  11
ENDBRANCH   7   8
ENDBRANCH   1   7
BRANCH   6  13
ATOM     13  N   LIG d   1      -5.001  76.046 116.835  0.00  0.00    -0.311 N 
ATOM     14  C   LIG d   1      -4.355  76.040 115.671  0.00  0.00     0.210 C 
ATOM     15  C   LIG d   1      -3.224  75.011 115.565  0.00  0.00     0.109 C 
ATOM     16  O   LIG d   1      -4.589  76.810 114.728  0.00  0.00    -0.276 OA
ATOM     17  H   LIG d   1      -4.724  75.409 117.557  0.00  0.00     0.149 HD
ENDBRANCH   6  13
BRANCH   5  18
ATOM     18  N   LIG d   1      -4.801  79.087 117.045  0.00  0.00     0.381 N 
ATOM     19  H   LIG d   1      -4.358  79.771 117.626  0.00  0.00    -0.090 HD
ATOM     20  H   LIG d   1      -5.352  79.568 116.356  0.00  0.00    -0.090 HD
ATOM     21  H   LIG d   1      -4.112  78.524 116.598  0.00  0.00    -0.090 HD
ENDBRANCH   5  18
BRANCH   3  22
ATOM     22  C   LIG d   1      -8.739  79.010 119.771  0.00  0.00     0.382 C 
ATOM     23  O   LIG d   1      -9.690  78.407 120.323  0.00  0.00    -0.241 OA
ATOM     24  O   LIG d   1      -8.568  80.224 119.997  0.00  0.00    -0.241 OA
ENDBRANCH   3  22
TORSDOF 7
ENDMDL
MODEL 6
REMARK VINA RESULT:      -5.0      2.655      5.307
REMARK  7 active torsions:
REMARK  status: ('A' for Active; 'I' for Inactive)
REMARK    1  A    between atoms: C_2  and  C_3 
REMARK    2  A    between atoms: C_3  and  O_6 
REMARK    3  A    between atoms: C_3  and  C_4 
REMARK    4  A    between atoms: C_7  and  O_6 
REMARK    5  A    between atoms: C_9  and  C_10 
REMARK    6  A    between atoms: N_15  and  C_14 
REMARK    7  A    between atoms: N_20  and  C_19 
REMARK       I    between atoms: C_22  and  N_20 
ROOT
ATOM      1  C   LIG d   1      -8.548  78.111 118.687  0.00  0.00     0.161 C 
ATOM      2  C   LIG d   1      -7.561  79.039 118.313  0.00  0.00     0.016 C 
ATOM      3  C   LIG d   1      -7.636  80.418 118.613  0.00  0.00     0.038 C 
ATOM      4  C   LIG d   1      -8.636  80.943 119.445  0.00  0.00     0.028 C 
ATOM      5  C   LIG d   1      -9.927  80.132 119.425  0.00  0.00    -0.047 C 
ATOM      6  C   LIG d   1      -9.591  78.647 119.690  0.00  0.00     0.091 C 
ENDROOT
BRANCH   1   7
ATOM      7  O   LIG d   1      -7.926  76.917 119.200  0.00  0.00    -0.368 OA
BRANCH   7   8
ATOM      8  C   LIG d   1      -7.876  75.785 118.296  0.00  0.00     0.119 C 
BRANCH   8   9
ATOM      9  C   LIG d   1      -6.619  75.949 117.420  0.00  0.00     0.028 C 
ATOM     10  C   LIG d   1      -6.876  75.574 115.950  0.00  0.00     0.006 C 
ENDBRANCH   8   9
BRANCH   8  11
ATOM     11  C   LIG d   1      -9.056  75.800 117.320  0.00  0.00     0.028 C 
ATOM     12  C   LIG d   1     -10.083  74.694 117.611  0.00  0.00     0.006 C 
ENDBRANCH   8  11
ENDBRANCH   7   8
ENDBRANCH   1   7
BRANCH   6  13
ATOM     13  N   LIG d   1     -10.788  77.770 119.605  0.00  0.00    -0.311 N 
ATOM     14  C   LIG d   1     -11.097  76.859 120.526  0.00  0.00     0.210 C 
ATOM     15  C   LIG d   1     -12.363  76.048 120.234  0.00  0.00     0.109 C 
ATOM     16  O   LIG d   1     -10.460  76.668 121.573  0.00  0.00    -0.276 OA
ATOM     17  H   LIG d   1     -11.377  77.880 118.803  0.00  0.00     0.149 HD
ENDBRANCH   6  13
BRANCH   5  18
ATOM     18  N   LIG d   1     -10.832  80.709 120.436  0.00  0.00     0.381 N 
ATOM     19  H   LIG d   1     -11.390  79.986 120.845  0.00  0.00    -0.090 HD
ATOM     20  H   LIG d   1     -11.447  81.365 119.986  0.00  0.00    -0.090 HD
ATOM     21  H   LIG d   1     -10.303  81.170 121.144  0.00  0.00    -0.090 HD
ENDBRANCH   5  18
BRANCH   3  22
ATOM     22  C   LIG d   1      -6.724  81.295 118.046  0.00  0.00     0.382 C 
ATOM     23  O   LIG d   1      -7.077  82.043 117.102  0.00  0.00    -0.241 OA
ATOM     24  O   LIG d   1      -5.541  81.317 118.435  0.00  0.00    -0.241 OA
ENDBRANCH   3  22
TORSDOF 7
ENDMDL
MODEL 7
REMARK VINA RESULT:      -5.0      2.377      5.428
REMARK  7 active torsions:
REMARK  status: ('A' for Active; 'I' for Inactive)
REMARK    1  A    between atoms: C_2  and  C_3 
REMARK    2  A    between atoms: C_3  and  O_6 
REMARK    3  A    between atoms: C_3  and  C_4 
REMARK    4  A    between atoms: C_7  and  O_6 
REMARK    5  A    between atoms: C_9  and  C_10 
REMARK    6  A    between atoms: N_15  and  C_14 
REMARK    7  A    between atoms: N_20  and  C_19 
REMARK       I    between atoms: C_22  and  N_20 
ROOT
ATOM      1  C   LIG d   1      -8.481  76.630 118.636  0.00  0.00     0.161 C 
ATOM      2  C   LIG d   1      -8.283  75.372 118.044  0.00  0.00     0.016 C 
ATOM      3  C   LIG d   1      -9.326  74.446 117.815  0.00  0.00     0.038 C 
ATOM      4  C   LIG d   1     -10.672  74.778 118.027  0.00  0.00     0.028 C 
ATOM      5  C   LIG d   1     -10.871  75.849 119.094  0.00  0.00    -0.047 C 
ATOM      6  C   LIG d   1      -9.959  77.055 118.771  0.00  0.00     0.091 C 
ENDROOT
BRANCH   1   7
ATOM      7  O   LIG d   1      -7.736  77.632 117.916  0.00  0.00    -0.368 OA
BRANCH   7   8
ATOM      8  C   LIG d   1      -6.626  78.233 118.627  0.00  0.00     0.119 C 
BRANCH   8   9
ATOM      9  C   LIG d   1      -6.671  79.750 118.359  0.00  0.00     0.028 C 
ATOM     10  C   LIG d   1      -6.620  80.576 119.655  0.00  0.00     0.006 C 
ENDBRANCH   8   9
BRANCH   8  11
ATOM     11  C   LIG d   1      -5.282  77.762 118.062  0.00  0.00     0.028 C 
ATOM     12  C   LIG d   1      -4.234  77.501 119.156  0.00  0.00     0.006 C 
ENDBRANCH   8  11
ENDBRANCH   7   8
ENDBRANCH   1   7
BRANCH   6  13
ATOM     13  N   LIG d   1     -10.029  78.113 119.812  0.00  0.00    -0.311 N 
ATOM     14  C   LIG d   1     -10.203  79.404 119.535  0.00  0.00     0.210 C 
ATOM     15  C   LIG d   1     -10.226  80.330 120.754  0.00  0.00     0.109 C 
ATOM     16  O   LIG d   1     -10.372  79.866 118.396  0.00  0.00    -0.276 OA
ATOM     17  H   LIG d   1      -9.932  77.822 120.766  0.00  0.00     0.149 HD
ENDBRANCH   6  13
BRANCH   5  18
ATOM     18  N   LIG d   1     -12.304  76.198 119.114  0.00  0.00     0.381 N 
ATOM     19  H   LIG d   1     -12.471  76.979 118.512  0.00  0.00    -0.090 HD
ATOM     20  H   LIG d   1     -12.562  76.460 120.050  0.00  0.00    -0.090 HD
ATOM     21  H   LIG d   1     -12.849  75.418 118.818  0.00  0.00    -0.090 HD
ENDBRANCH   5  18
BRANCH   3  22
ATOM     22  C   LIG d   1      -9.023  73.156 117.407  0.00  0.00     0.382 C 
ATOM     23  O   LIG d   1      -7.830  72.766 117.393  0.00  0.00    -0.241 OA
ATOM     24  O   LIG d   1      -9.922  72.391 117.009  0.00  0.00    -0.241 OA
ENDBRANCH   3  22
TORSDOF 7
ENDMDL
MODEL 8
REMARK VINA RESULT:      -4.9      2.289      5.090
REMARK  7 active torsions:
REMARK  status: ('A' for Active; 'I' for Inactive)
REMARK    1  A    between atoms: C_2  and  C_3 
REMARK    2  A    between atoms: C_3  and  O_6 
REMARK    3  A    between atoms: C_3  and  C_4 
REMARK    4  A    between atoms: C_7  and  O_6 
REMARK    5  A    between atoms: C_9  and  C_10 
REMARK    6  A    between atoms: N_15  and  C_14 
REMARK    7  A    between atoms: N_20  and  C_19 
REMARK       I    between atoms: C_22  and  N_20 
ROOT
ATOM      1  C   LIG d   1      -7.635  76.979 117.622  0.00  0.00     0.161 C 
ATOM      2  C   LIG d   1      -8.755  76.183 117.915  0.00  0.00     0.016 C 
ATOM      3  C   LIG d   1      -8.810  74.793 117.660  0.00  0.00     0.038 C 
ATOM      4  C   LIG d   1      -7.685  74.073 117.231  0.00  0.00     0.028 C 
ATOM      5  C   LIG d   1      -6.689  74.918 116.444  0.00  0.00    -0.047 C 
ATOM      6  C   LIG d   1      -6.360  76.191 117.256  0.00  0.00     0.091 C 
ENDROOT
BRANCH   1   7
ATOM      7  O   LIG d   1      -7.373  77.876 118.718  0.00  0.00    -0.368 OA
BRANCH   7   8
ATOM      8  C   LIG d   1      -7.645  79.278 118.474  0.00  0.00     0.119 C 
BRANCH   8   9
ATOM      9  C   LIG d   1      -6.433  80.081 118.984  0.00  0.00     0.028 C 
ATOM     10  C   LIG d   1      -5.872  81.037 117.918  0.00  0.00     0.006 C 
ENDBRANCH   8   9
BRANCH   8  11
ATOM     11  C   LIG d   1      -8.835  79.768 119.305  0.00  0.00     0.028 C 
ATOM     12  C   LIG d   1      -9.828  80.608 118.487  0.00  0.00     0.006 C 
ENDBRANCH   8  11
ENDBRANCH   7   8
ENDBRANCH   1   7
BRANCH   6  13
ATOM     13  N   LIG d   1      -5.456  77.114 116.521  0.00  0.00    -0.311 N 
ATOM     14  C   LIG d   1      -4.349  77.633 117.050  0.00  0.00     0.210 C 
ATOM     15  C   LIG d   1      -3.572  78.577 116.128  0.00  0.00     0.109 C 
ATOM     16  O   LIG d   1      -3.920  77.375 118.185  0.00  0.00    -0.276 OA
ATOM     17  H   LIG d   1      -5.713  77.353 115.583  0.00  0.00     0.149 HD
ENDBRANCH   6  13
BRANCH   5  18
ATOM     18  N   LIG d   1      -5.505  74.079 116.179  0.00  0.00     0.381 N 
ATOM     19  H   LIG d   1      -4.984  74.461 115.415  0.00  0.00    -0.090 HD
ATOM     20  H   LIG d   1      -5.811  73.157 115.922  0.00  0.00    -0.090 HD
ATOM     21  H   LIG d   1      -4.931  74.032 116.992  0.00  0.00    -0.090 HD
ENDBRANCH   5  18
BRANCH   3  22
ATOM     22  C   LIG d   1     -10.013  74.117 117.797  0.00  0.00     0.382 C 
ATOM     23  O   LIG d   1     -10.237  73.091 117.110  0.00  0.00    -0.241 OA
ATOM     24  O   LIG d   1     -10.894  74.544 118.567  0.00  0.00    -0.241 OA
ENDBRANCH   3  22
TORSDOF 7
ENDMDL
MODEL 9
REMARK VINA RESULT:      -4.9      2.725      4.245
REMARK  7 active torsions:
REMARK  status: ('A' for Active; 'I' for Inactive)
REMARK    1  A    between atoms: C_2  and  C_3 
REMARK    2  A    between atoms: C_3  and  O_6 
REMARK    3  A    between atoms: C_3  and  C_4 
REMARK    4  A    between atoms: C_7  and  O_6 
REMARK    5  A    between atoms: C_9  and  C_10 
REMARK    6  A    between atoms: N_15  and  C_14 
REMARK    7  A    between atoms: N_20  and  C_19 
REMARK       I    between atoms: C_22  and  N_20 
ROOT
ATOM      1  C   LIG d   1      -7.396  78.210 118.387  0.00  0.00     0.161 C 
ATOM      2  C   LIG d   1      -8.369  77.197 118.374  0.00  0.00     0.016 C 
ATOM      3  C   LIG d   1      -9.725  77.416 118.709  0.00  0.00     0.038 C 
ATOM      4  C   LIG d   1     -10.234  78.703 118.935  0.00  0.00     0.028 C 
ATOM      5  C   LIG d   1      -9.189  79.686 119.453  0.00  0.00    -0.047 C 
ATOM      6  C   LIG d   1      -7.955  79.642 118.523  0.00  0.00     0.091 C 
ENDROOT
BRANCH   1   7
ATOM      7  O   LIG d   1      -6.566  78.105 117.214  0.00  0.00    -0.368 OA
BRANCH   7   8
ATOM      8  C   LIG d   1      -5.449  77.187 117.303  0.00  0.00     0.119 C 
BRANCH   8   9
ATOM      9  C   LIG d   1      -4.192  78.017 117.627  0.00  0.00     0.028 C 
ATOM     10  C   LIG d   1      -4.025  79.222 116.686  0.00  0.00     0.006 C 
ENDBRANCH   8   9
BRANCH   8  11
ATOM     11  C   LIG d   1      -5.160  76.527 115.951  0.00  0.00     0.028 C 
ATOM     12  C   LIG d   1      -6.387  75.812 115.364  0.00  0.00     0.006 C 
ENDBRANCH   8  11
ENDBRANCH   7   8
ENDBRANCH   1   7
BRANCH   6  13
ATOM     13  N   LIG d   1      -6.851  80.512 119.005  0.00  0.00    -0.311 N 
ATOM     14  C   LIG d   1      -6.372  81.542 118.310  0.00  0.00     0.210 C 
ATOM     15  C   LIG d   1      -5.219  82.296 118.981  0.00  0.00     0.109 C 
ATOM     16  O   LIG d   1      -6.814  81.923 117.216  0.00  0.00    -0.276 OA
ATOM     17  H   LIG d   1      -6.454  80.293 119.898  0.00  0.00     0.149 HD
ENDBRANCH   6  13
BRANCH   5  18
ATOM     18  N   LIG d   1      -9.820  81.018 119.513  0.00  0.00     0.381 N 
ATOM     19  H   LIG d   1     -10.242  81.152 120.410  0.00  0.00    -0.090 HD
ATOM     20  H   LIG d   1     -10.541  81.067 118.814  0.00  0.00    -0.090 HD
ATOM     21  H   LIG d   1      -9.139  81.726 119.348  0.00  0.00    -0.090 HD
ENDBRANCH   5  18
BRANCH   3  22
ATOM     22  C   LIG d   1     -10.579  76.334 118.860  0.00  0.00     0.382 C 
ATOM     23  O   LIG d   1     -10.164  75.278 119.397  0.00  0.00    -0.241 OA
ATOM     24  O   LIG d   1     -11.745  76.384 118.426  0.00  0.00    -0.241 OA
ENDBRANCH   3  22
TORSDOF 7
ENDMDL
