MODEL 1
REMARK VINA RESULT:      -5.7      0.000      0.000
REMARK  7 active torsions:
REMARK  status: ('A' for Active; 'I' for Inactive)
REMARK    1  A    between atoms: C_2  and  C_3 
REMARK    2  A    between atoms: C_3  and  O_6 
REMARK    3  A    between atoms: C_3  and  C_4 
REMARK    4  A    between atoms: C_7  and  O_6 
REMARK    5  A    between atoms: C_9  and  C_10 
REMARK    6  A    between atoms: N_15  and  C_14 
REMARK    7  A    between atoms: N_20  and  C_19 
REMARK       I    between atoms: C_22  and  N_20 
ROOT
ATOM      1  C   LIG d   1      -6.467  79.617 117.637  0.00  0.00     0.161 C 
ATOM      2  C   LIG d   1      -7.798  79.219 117.845  0.00  0.00     0.016 C 
ATOM      3  C   LIG d   1      -8.830  80.113 118.211  0.00  0.00     0.038 C 
ATOM      4  C   LIG d   1      -8.629  81.501 118.246  0.00  0.00     0.028 C 
ATOM      5  C   LIG d   1      -7.186  81.898 118.536  0.00  0.00    -0.047 C 
ATOM      6  C   LIG d   1      -6.253  81.143 117.562  0.00  0.00     0.091 C 
ENDROOT
BRANCH   1   7
ATOM      7  O   LIG d   1      -5.946  78.979 116.454  0.00  0.00    -0.368 OA
BRANCH   7   8
ATOM      8  C   LIG d   1      -5.413  77.644 116.632  0.00  0.00     0.119 C 
BRANCH   8   9
ATOM      9  C   LIG d   1      -3.956  77.656 116.133  0.00  0.00     0.028 C 
ATOM     10  C   LIG d   1      -2.988  78.265 117.162  0.00  0.00     0.006 C 
ENDBRANCH   8   9
BRANCH   8  11
ATOM     11  C   LIG d   1      -6.139  76.632 115.740  0.00  0.00     0.028 C 
ATOM     12  C   LIG d   1      -7.238  75.859 116.487  0.00  0.00     0.006 C 
ENDBRANCH   8  11
ENDBRANCH   7   8
ENDBRANCH   1   7
BRANCH   6  13
ATOM     13  N   LIG d   1      -4.816  81.410 117.832  0.00  0.00    -0.311 N 
ATOM     14  C   LIG d   1      -3.980  81.910 116.924  0.00  0.00     0.210 C 
ATOM     15  C   LIG d   1      -2.536  82.088 117.404  0.00  0.00     0.109 C 
ATOM     16  O   LIG d   1      -4.304  82.253 115.777  0.00  0.00    -0.276 OA
ATOM     17  H   LIG d   1      -4.476  81.190 118.748  0.00  0.00     0.149 HD
ENDBRANCH   6  13
BRANCH   5  18
ATOM     18  N   LIG d   1      -7.092  83.365 118.407  0.00  0.00     0.381 N 
ATOM     19  H   LIG d   1      -7.748  83.687 117.724  0.00  0.00    -0.090 HD
ATOM     20  H   LIG d   1      -6.168  83.605 118.095  0.00  0.00    -0.090 HD
ATOM     21  H   LIG d   1      -7.277  83.797 119.285  0.00  0.00    -0.090 HD
ENDBRANCH   5  18
BRANCH   3  22
ATOM     22  C   LIG d   1     -10.069  79.617 118.586  0.00  0.00     0.382 C 
ATOM     23  O   LIG d   1     -10.611  80.018 119.644  0.00  0.00    -0.241 OA
ATOM     24  O   LIG d   1     -10.631  78.741 117.902  0.00  0.00    -0.241 OA
ENDBRANCH   3  22
TORSDOF 7
ENDMDL
MODEL 2
REMARK VINA RESULT:      -5.3      2.244      4.550
REMARK  7 active torsions:
REMARK  status: ('A' for Active; 'I' for Inactive)
REMARK    1  A    between atoms: C_2  and  C_3 
REMARK    2  A    between atoms: C_3  and  O_6 
REMARK    3  A    between atoms: C_3  and  C_4 
REMARK    4  A    between atoms: C_7  and  O_6 
REMARK    5  A    between atoms: C_9  and  C_10 
REMARK    6  A    between atoms: N_15  and  C_14 
REMARK    7  A    between atoms: N_20  and  C_19 
REMARK       I    between atoms: C_22  and  N_20 
ROOT
ATOM      1  C   LIG d   1      -7.030  80.633 117.847  0.00  0.00     0.161 C 
ATOM      2  C   LIG d   1      -6.973  79.334 117.315  0.00  0.00     0.016 C 
ATOM      3  C   LIG d   1      -8.051  78.421 117.374  0.00  0.00     0.038 C 
ATOM      4  C   LIG d   1      -9.320  78.801 117.838  0.00  0.00     0.028 C 
ATOM      5  C   LIG d   1      -9.278  79.944 118.847  0.00  0.00    -0.047 C 
ATOM      6  C   LIG d   1      -8.442  81.102 118.258  0.00  0.00     0.091 C 
ENDROOT
BRANCH   1   7
ATOM      7  O   LIG d   1      -6.442  81.567 116.920  0.00  0.00    -0.368 OA
BRANCH   7   8
ATOM      8  C   LIG d   1      -5.156  82.117 117.298  0.00  0.00     0.119 C 
BRANCH   8   9
ATOM      9  C   LIG d   1      -4.073  81.327 116.538  0.00  0.00     0.028 C 
ATOM     10  C   LIG d   1      -2.728  82.071 116.493  0.00  0.00     0.006 C 
ENDBRANCH   8   9
BRANCH   8  11
ATOM     11  C   LIG d   1      -4.864  81.880 118.783  0.00  0.00     0.028 C 
ATOM     12  C   LIG d   1      -4.748  83.187 119.583  0.00  0.00     0.006 C 
ENDBRANCH   8  11
ENDBRANCH   7   8
ENDBRANCH   1   7
BRANCH   6  13
ATOM     13  N   LIG d   1      -8.280  82.228 119.214  0.00  0.00    -0.311 N 
ATOM     14  C   LIG d   1      -9.063  83.306 119.217  0.00  0.00     0.210 C 
ATOM     15  C   LIG d   1      -8.711  84.358 120.274  0.00  0.00     0.109 C 
ATOM     16  O   LIG d   1     -10.034  83.476 118.465  0.00  0.00    -0.276 OA
ATOM     17  H   LIG d   1      -7.536  82.158 119.880  0.00  0.00     0.149 HD
ENDBRANCH   6  13
BRANCH   5  18
ATOM     18  N   LIG d   1     -10.672  80.328 119.142  0.00  0.00     0.381 N 
ATOM     19  H   LIG d   1     -10.853  80.222 120.120  0.00  0.00    -0.090 HD
ATOM     20  H   LIG d   1     -11.291  79.718 118.638  0.00  0.00    -0.090 HD
ATOM     21  H   LIG d   1     -10.829  81.273 118.868  0.00  0.00    -0.090 HD
ENDBRANCH   5  18
BRANCH   3  22
ATOM     22  C   LIG d   1      -7.854  77.100 117.002  0.00  0.00     0.382 C 
ATOM     23  O   LIG d   1      -6.690  76.662 116.838  0.00  0.00    -0.241 OA
ATOM     24  O   LIG d   1      -8.827  76.353 116.784  0.00  0.00    -0.241 OA
ENDBRANCH   3  22
TORSDOF 7
ENDMDL
MODEL 3
REMARK VINA RESULT:      -5.2     21.189     22.912
REMARK  7 active torsions:
REMARK  status: ('A' for Active; 'I' for Inactive)
REMARK    1  A    between atoms: C_2  and  C_3 
REMARK    2  A    between atoms: C_3  and  O_6 
REMARK    3  A    between atoms: C_3  and  C_4 
REMARK    4  A    between atoms: C_7  and  O_6 
REMARK    5  A    between atoms: C_9  and  C_10 
REMARK    6  A    between atoms: N_15  and  C_14 
REMARK    7  A    between atoms: N_20  and  C_19 
REMARK       I    between atoms: C_22  and  N_20 
ROOT
ATOM      1  C   LIG d   1      -0.227  58.728 120.045  0.00  0.00     0.161 C 
ATOM      2  C   LIG d   1      -1.624  58.594 119.992  0.00  0.00     0.016 C 
ATOM      3  C   LIG d   1      -2.380  58.779 118.812  0.00  0.00     0.038 C 
ATOM      4  C   LIG d   1      -1.770  58.964 117.562  0.00  0.00     0.028 C 
ATOM      5  C   LIG d   1      -0.391  59.607 117.651  0.00  0.00    -0.047 C 
ATOM      6  C   LIG d   1       0.466  58.820 118.669  0.00  0.00     0.091 C 
ENDROOT
BRANCH   1   7
ATOM      7  O   LIG d   1       0.338  57.652 120.819  0.00  0.00    -0.368 OA
BRANCH   7   8
ATOM      8  C   LIG d   1      -0.457  56.444 120.909  0.00  0.00     0.119 C 
BRANCH   8   9
ATOM      9  C   LIG d   1      -0.403  55.961 122.371  0.00  0.00     0.028 C 
ATOM     10  C   LIG d   1      -1.668  56.337 123.161  0.00  0.00     0.006 C 
ENDBRANCH   8   9
BRANCH   8  11
ATOM     11  C   LIG d   1       0.158  55.310 120.084  0.00  0.00     0.028 C 
ATOM     12  C   LIG d   1      -0.478  55.174 118.691  0.00  0.00     0.006 C 
ENDBRANCH   8  11
ENDBRANCH   7   8
ENDBRANCH   1   7
BRANCH   6  13
ATOM     13  N   LIG d   1       1.803  59.433 118.879  0.00  0.00    -0.311 N 
ATOM     14  C   LIG d   1       2.930  58.727 118.953  0.00  0.00     0.210 C 
ATOM     15  C   LIG d   1       4.197  59.554 119.194  0.00  0.00     0.109 C 
ATOM     16  O   LIG d   1       3.005  57.497 118.811  0.00  0.00    -0.276 OA
ATOM     17  H   LIG d   1       1.839  60.429 118.973  0.00  0.00     0.149 HD
ENDBRANCH   6  13
BRANCH   5  18
ATOM     18  N   LIG d   1       0.186  59.615 116.293  0.00  0.00     0.381 N 
ATOM     19  H   LIG d   1       0.931  58.950 116.238  0.00  0.00    -0.090 HD
ATOM     20  H   LIG d   1       0.563  60.527 116.105  0.00  0.00    -0.090 HD
ATOM     21  H   LIG d   1      -0.517  59.393 115.623  0.00  0.00    -0.090 HD
ENDBRANCH   5  18
BRANCH   3  22
ATOM     22  C   LIG d   1      -3.765  58.820 118.881  0.00  0.00     0.382 C 
ATOM     23  O   LIG d   1      -4.385  57.953 119.544  0.00  0.00    -0.241 OA
ATOM     24  O   LIG d   1      -4.403  59.686 118.254  0.00  0.00    -0.241 OA
ENDBRANCH   3  22
TORSDOF 7
ENDMDL
MODEL 4
REMARK VINA RESULT:      -5.1     20.841     23.393
REMARK  7 active torsions:
REMARK  status: ('A' for Active; 'I' for Inactive)
REMARK    1  A    between atoms: C_2  and  C_3 
REMARK    2  A    between atoms: C_3  and  O_6 
REMARK    3  A    between atoms: C_3  and  C_4 
REMARK    4  A    between atoms: C_7  and  O_6 
REMARK    5  A    between atoms: C_9  and  C_10 
REMARK    6  A    between atoms: N_15  and  C_14 
REMARK    7  A    between atoms: N_20  and  C_19 
REMARK       I    between atoms: C_22  and  N_20 
ROOT
ATOM      1  C   LIG d   1       0.671  58.468 118.664  0.00  0.00     0.161 C 
ATOM      2  C   LIG d   1       0.037  59.606 119.192  0.00  0.00     0.016 C 
ATOM      3  C   LIG d   1      -1.367  59.760 119.245  0.00  0.00     0.038 C 
ATOM      4  C   LIG d   1      -2.241  58.715 118.909  0.00  0.00     0.028 C 
ATOM      5  C   LIG d   1      -1.654  57.736 117.897  0.00  0.00    -0.047 C 
ATOM      6  C   LIG d   1      -0.266  57.272 118.395  0.00  0.00     0.091 C 
ENDROOT
BRANCH   1   7
ATOM      7  O   LIG d   1       1.757  58.071 119.524  0.00  0.00    -0.368 OA
BRANCH   7   8
ATOM      8  C   LIG d   1       3.082  58.119 118.941  0.00  0.00     0.119 C 
BRANCH   8   9
ATOM      9  C   LIG d   1       3.937  57.047 119.644  0.00  0.00     0.028 C 
ATOM     10  C   LIG d   1       3.282  55.656 119.604  0.00  0.00     0.006 C 
ENDBRANCH   8   9
BRANCH   8  11
ATOM     11  C   LIG d   1       3.775  59.452 119.243  0.00  0.00     0.028 C 
ATOM     12  C   LIG d   1       3.888  59.737 120.749  0.00  0.00     0.006 C 
ENDBRANCH   8  11
ENDBRANCH   7   8
ENDBRANCH   1   7
BRANCH   6  13
ATOM     13  N   LIG d   1       0.415  56.377 117.423  0.00  0.00    -0.311 N 
ATOM     14  C   LIG d   1       0.337  55.049 117.471  0.00  0.00     0.210 C 
ATOM     15  C   LIG d   1       1.131  54.315 116.386  0.00  0.00     0.109 C 
ATOM     16  O   LIG d   1      -0.340  54.409 118.290  0.00  0.00    -0.276 OA
ATOM     17  H   LIG d   1       0.961  56.814 116.706  0.00  0.00     0.149 HD
ENDBRANCH   6  13
BRANCH   5  18
ATOM     18  N   LIG d   1      -2.613  56.627 117.742  0.00  0.00     0.381 N 
ATOM     19  H   LIG d   1      -3.174  56.775 116.927  0.00  0.00    -0.090 HD
ATOM     20  H   LIG d   1      -3.220  56.607 118.543  0.00  0.00    -0.090 HD
ATOM     21  H   LIG d   1      -2.125  55.762 117.666  0.00  0.00    -0.090 HD
ENDBRANCH   5  18
BRANCH   3  22
ATOM     22  C   LIG d   1      -1.911  60.985 119.600  0.00  0.00     0.382 C 
ATOM     23  O   LIG d   1      -2.726  61.554 118.835  0.00  0.00    -0.241 OA
ATOM     24  O   LIG d   1      -1.563  61.549 120.654  0.00  0.00    -0.241 OA
ENDBRANCH   3  22
TORSDOF 7
ENDMDL
MODEL 5
REMARK VINA RESULT:      -5.0     20.003     22.353
REMARK  7 active torsions:
REMARK  status: ('A' for Active; 'I' for Inactive)
REMARK    1  A    between atoms: C_2  and  C_3 
REMARK    2  A    between atoms: C_3  and  O_6 
REMARK    3  A    between atoms: C_3  and  C_4 
REMARK    4  A    between atoms: C_7  and  O_6 
REMARK    5  A    between atoms: C_9  and  C_10 
REMARK    6  A    between atoms: N_15  and  C_14 
REMARK    7  A    between atoms: N_20  and  C_19 
REMARK       I    between atoms: C_22  and  N_20 
ROOT
ATOM      1  C   LIG d   1      -0.472  59.302 119.167  0.00  0.00     0.161 C 
ATOM      2  C   LIG d   1      -1.595  60.144 119.211  0.00  0.00     0.016 C 
ATOM      3  C   LIG d   1      -2.892  59.734 118.825  0.00  0.00     0.038 C 
ATOM      4  C   LIG d   1      -3.183  58.398 118.509  0.00  0.00     0.028 C 
ATOM      5  C   LIG d   1      -1.984  57.629 117.965  0.00  0.00    -0.047 C 
ATOM      6  C   LIG d   1      -0.791  57.811 118.931  0.00  0.00     0.091 C 
ENDROOT
BRANCH   1   7
ATOM      7  O   LIG d   1       0.307  59.464 120.368  0.00  0.00    -0.368 OA
BRANCH   7   8
ATOM      8  C   LIG d   1      -0.414  59.921 121.539  0.00  0.00     0.119 C 
BRANCH   8   9
ATOM      9  C   LIG d   1       0.514  60.883 122.307  0.00  0.00     0.028 C 
ATOM     10  C   LIG d   1      -0.228  62.130 122.818  0.00  0.00     0.006 C 
ENDBRANCH   8   9
BRANCH   8  11
ATOM     11  C   LIG d   1      -0.693  58.768 122.507  0.00  0.00     0.028 C 
ATOM     12  C   LIG d   1      -2.154  58.292 122.461  0.00  0.00     0.006 C 
ENDBRANCH   8  11
ENDBRANCH   7   8
ENDBRANCH   1   7
BRANCH   6  13
ATOM     13  N   LIG d   1       0.448  57.160 118.431  0.00  0.00    -0.311 N 
ATOM     14  C   LIG d   1       0.807  55.920 118.757  0.00  0.00     0.210 C 
ATOM     15  C   LIG d   1       2.132  55.449 118.147  0.00  0.00     0.109 C 
ATOM     16  O   LIG d   1       0.139  55.153 119.468  0.00  0.00    -0.276 OA
ATOM     17  H   LIG d   1       1.033  57.699 117.823  0.00  0.00     0.149 HD
ENDBRANCH   6  13
BRANCH   5  18
ATOM     18  N   LIG d   1      -2.392  56.220 117.808  0.00  0.00     0.381 N 
ATOM     19  H   LIG d   1      -2.152  55.898 116.892  0.00  0.00    -0.090 HD
ATOM     20  H   LIG d   1      -3.389  56.157 117.914  0.00  0.00    -0.090 HD
ATOM     21  H   LIG d   1      -1.940  55.656 118.494  0.00  0.00    -0.090 HD
ENDBRANCH   5  18
BRANCH   3  22
ATOM     22  C   LIG d   1      -3.906  60.673 118.713  0.00  0.00     0.382 C 
ATOM     23  O   LIG d   1      -4.543  60.782 117.638  0.00  0.00    -0.241 OA
ATOM     24  O   LIG d   1      -4.161  61.442 119.659  0.00  0.00    -0.241 OA
ENDBRANCH   3  22
TORSDOF 7
ENDMDL
MODEL 6
REMARK VINA RESULT:      -4.9      2.105      3.754
REMARK  7 active torsions:
REMARK  status: ('A' for Active; 'I' for Inactive)
REMARK    1  A    between atoms: C_2  and  C_3 
REMARK    2  A    between atoms: C_3  and  O_6 
REMARK    3  A    between atoms: C_3  and  C_4 
REMARK    4  A    between atoms: C_7  and  O_6 
REMARK    5  A    between atoms: C_9  and  C_10 
REMARK    6  A    between atoms: N_15  and  C_14 
REMARK    7  A    between atoms: N_20  and  C_19 
REMARK       I    between atoms: C_22  and  N_20 
ROOT
ATOM      1  C   LIG d   1      -6.775  81.777 117.991  0.00  0.00     0.161 C 
ATOM      2  C   LIG d   1      -7.454  80.577 117.720  0.00  0.00     0.016 C 
ATOM      3  C   LIG d   1      -8.829  80.384 117.986  0.00  0.00     0.038 C 
ATOM      4  C   LIG d   1      -9.658  81.436 118.404  0.00  0.00     0.028 C 
ATOM      5  C   LIG d   1      -8.915  82.525 119.170  0.00  0.00    -0.047 C 
ATOM      6  C   LIG d   1      -7.687  82.970 118.344  0.00  0.00     0.091 C 
ENDROOT
BRANCH   1   7
ATOM      7  O   LIG d   1      -5.915  82.112 116.884  0.00  0.00    -0.368 OA
BRANCH   7   8
ATOM      8  C   LIG d   1      -4.498  82.184 117.177  0.00  0.00     0.119 C 
BRANCH   8   9
ATOM      9  C   LIG d   1      -3.770  81.279 116.165  0.00  0.00     0.028 C 
ATOM     10  C   LIG d   1      -3.993  79.784 116.449  0.00  0.00     0.006 C 
ENDBRANCH   8   9
BRANCH   8  11
ATOM     11  C   LIG d   1      -4.182  81.591 118.553  0.00  0.00     0.028 C 
ATOM     12  C   LIG d   1      -3.084  82.366 119.298  0.00  0.00     0.006 C 
ENDBRANCH   8  11
ENDBRANCH   7   8
ENDBRANCH   1   7
BRANCH   6  13
ATOM     13  N   LIG d   1      -6.856  83.975 119.059  0.00  0.00    -0.311 N 
ATOM     14  C   LIG d   1      -6.378  83.789 120.288  0.00  0.00     0.210 C 
ATOM     15  C   LIG d   1      -5.562  84.959 120.848  0.00  0.00     0.109 C 
ATOM     16  O   LIG d   1      -6.524  82.754 120.955  0.00  0.00    -0.276 OA
ATOM     17  H   LIG d   1      -6.663  84.831 118.578  0.00  0.00     0.149 HD
ENDBRANCH   6  13
BRANCH   5  18
ATOM     18  N   LIG d   1      -9.869  83.621 119.424  0.00  0.00     0.381 N 
ATOM     19  H   LIG d   1      -9.440  84.500 119.212  0.00  0.00    -0.090 HD
ATOM     20  H   LIG d   1     -10.116  83.618 120.398  0.00  0.00    -0.090 HD
ATOM     21  H   LIG d   1     -10.685  83.499 118.866  0.00  0.00    -0.090 HD
ENDBRANCH   5  18
BRANCH   3  22
ATOM     22  C   LIG d   1      -9.380  79.117 117.871  0.00  0.00     0.382 C 
ATOM     23  O   LIG d   1     -10.543  78.899 118.289  0.00  0.00    -0.241 OA
ATOM     24  O   LIG d   1      -8.713  78.178 117.397  0.00  0.00    -0.241 OA
ENDBRANCH   3  22
TORSDOF 7
ENDMDL
MODEL 7
REMARK VINA RESULT:      -4.9     19.821     21.648
REMARK  7 active torsions:
REMARK  status: ('A' for Active; 'I' for Inactive)
REMARK    1  A    between atoms: C_2  and  C_3 
REMARK    2  A    between atoms: C_3  and  O_6 
REMARK    3  A    between atoms: C_3  and  C_4 
REMARK    4  A    between atoms: C_7  and  O_6 
REMARK    5  A    between atoms: C_9  and  C_10 
REMARK    6  A    between atoms: N_15  and  C_14 
REMARK    7  A    between atoms: N_20  and  C_19 
REMARK       I    between atoms: C_22  and  N_20 
ROOT
ATOM      1  C   LIG d   1      -0.570  59.821 120.470  0.00  0.00     0.161 C 
ATOM      2  C   LIG d   1      -0.819  60.861 121.380  0.00  0.00     0.016 C 
ATOM      3  C   LIG d   1       0.138  61.327 122.311  0.00  0.00     0.038 C 
ATOM      4  C   LIG d   1       1.469  60.882 122.291  0.00  0.00     0.028 C 
ATOM      5  C   LIG d   1       1.629  59.475 121.725  0.00  0.00    -0.047 C 
ATOM      6  C   LIG d   1       0.911  59.399 120.358  0.00  0.00     0.091 C 
ENDROOT
BRANCH   1   7
ATOM      7  O   LIG d   1      -1.089  60.172 119.172  0.00  0.00    -0.368 OA
BRANCH   7   8
ATOM      8  C   LIG d   1      -2.429  59.709 118.875  0.00  0.00     0.119 C 
BRANCH   8   9
ATOM      9  C   LIG d   1      -2.437  59.220 117.414  0.00  0.00     0.028 C 
ATOM     10  C   LIG d   1      -1.021  59.106 116.826  0.00  0.00     0.006 C 
ENDBRANCH   8   9
BRANCH   8  11
ATOM     11  C   LIG d   1      -3.440  60.859 118.923  0.00  0.00     0.028 C 
ATOM     12  C   LIG d   1      -4.641  60.636 117.990  0.00  0.00     0.006 C 
ENDBRANCH   8  11
ENDBRANCH   7   8
ENDBRANCH   1   7
BRANCH   6  13
ATOM     13  N   LIG d   1       0.947  58.033 119.774  0.00  0.00    -0.311 N 
ATOM     14  C   LIG d   1       1.904  57.614 118.948  0.00  0.00     0.210 C 
ATOM     15  C   LIG d   1       1.740  56.177 118.445  0.00  0.00     0.109 C 
ATOM     16  O   LIG d   1       2.891  58.286 118.610  0.00  0.00    -0.276 OA
ATOM     17  H   LIG d   1       0.201  57.412 120.020  0.00  0.00     0.149 HD
ENDBRANCH   6  13
BRANCH   5  18
ATOM     18  N   LIG d   1       3.074  59.193 121.635  0.00  0.00     0.381 N 
ATOM     19  H   LIG d   1       3.226  58.204 121.634  0.00  0.00    -0.090 HD
ATOM     20  H   LIG d   1       3.532  59.582 122.441  0.00  0.00    -0.090 HD
ATOM     21  H   LIG d   1       3.449  59.595 120.804  0.00  0.00    -0.090 HD
ENDBRANCH   5  18
BRANCH   3  22
ATOM     22  C   LIG d   1      -0.243  62.219 123.301  0.00  0.00     0.382 C 
ATOM     23  O   LIG d   1      -0.508  63.409 123.004  0.00  0.00    -0.241 OA
ATOM     24  O   LIG d   1      -0.284  61.861 124.493  0.00  0.00    -0.241 OA
ENDBRANCH   3  22
TORSDOF 7
ENDMDL
MODEL 8
REMARK VINA RESULT:      -4.7     19.956     22.389
REMARK  7 active torsions:
REMARK  status: ('A' for Active; 'I' for Inactive)
REMARK    1  A    between atoms: C_2  and  C_3 
REMARK    2  A    between atoms: C_3  and  O_6 
REMARK    3  A    between atoms: C_3  and  C_4 
REMARK    4  A    between atoms: C_7  and  O_6 
REMARK    5  A    between atoms: C_9  and  C_10 
REMARK    6  A    between atoms: N_15  and  C_14 
REMARK    7  A    between atoms: N_20  and  C_19 
REMARK       I    between atoms: C_22  and  N_20 
ROOT
ATOM      1  C   LIG d   1       0.301  58.663 120.674  0.00  0.00     0.161 C 
ATOM      2  C   LIG d   1       1.648  58.279 120.783  0.00  0.00     0.016 C 
ATOM      3  C   LIG d   1       2.585  58.416 119.733  0.00  0.00     0.038 C 
ATOM      4  C   LIG d   1       2.271  59.091 118.544  0.00  0.00     0.028 C 
ATOM      5  C   LIG d   1       0.788  59.045 118.194  0.00  0.00    -0.047 C 
ATOM      6  C   LIG d   1      -0.032  59.502 119.422  0.00  0.00     0.091 C 
ENDROOT
BRANCH   1   7
ATOM      7  O   LIG d   1      -0.107  59.359 121.868  0.00  0.00    -0.368 OA
BRANCH   7   8
ATOM      8  C   LIG d   1       0.290  60.749 121.962  0.00  0.00     0.119 C 
BRANCH   8   9
ATOM      9  C   LIG d   1       1.243  60.877 123.167  0.00  0.00     0.028 C 
ATOM     10  C   LIG d   1       2.699  61.130 122.739  0.00  0.00     0.006 C 
ENDBRANCH   8   9
BRANCH   8  11
ATOM     11  C   LIG d   1      -0.904  61.649 122.292  0.00  0.00     0.028 C 
ATOM     12  C   LIG d   1      -2.042  60.894 122.998  0.00  0.00     0.006 C 
ENDBRANCH   8  11
ENDBRANCH   7   8
ENDBRANCH   1   7
BRANCH   6  13
ATOM     13  N   LIG d   1      -1.497  59.407 119.194  0.00  0.00    -0.311 N 
ATOM     14  C   LIG d   1      -2.285  60.469 119.035  0.00  0.00     0.210 C 
ATOM     15  C   LIG d   1      -3.769  60.149 118.832  0.00  0.00     0.109 C 
ATOM     16  O   LIG d   1      -1.891  61.645 119.011  0.00  0.00    -0.276 OA
ATOM     17  H   LIG d   1      -1.896  58.489 119.167  0.00  0.00     0.149 HD
ENDBRANCH   6  13
BRANCH   5  18
ATOM     18  N   LIG d   1       0.582  59.900 117.010  0.00  0.00     0.381 N 
ATOM     19  H   LIG d   1      -0.187  60.520 117.170  0.00  0.00    -0.090 HD
ATOM     20  H   LIG d   1       0.359  59.317 116.223  0.00  0.00    -0.090 HD
ATOM     21  H   LIG d   1       1.408  60.425 116.821  0.00  0.00    -0.090 HD
ENDBRANCH   5  18
BRANCH   3  22
ATOM     22  C   LIG d   1       3.840  57.839 119.852  0.00  0.00     0.382 C 
ATOM     23  O   LIG d   1       4.816  58.533 120.229  0.00  0.00    -0.241 OA
ATOM     24  O   LIG d   1       4.018  56.645 119.545  0.00  0.00    -0.241 OA
ENDBRANCH   3  22
TORSDOF 7
ENDMDL
MODEL 9
REMARK VINA RESULT:      -4.6     21.313     23.237
REMARK  7 active torsions:
REMARK  status: ('A' for Active; 'I' for Inactive)
REMARK    1  A    between atoms: C_2  and  C_3 
REMARK    2  A    between atoms: C_3  and  O_6 
REMARK    3  A    between atoms: C_3  and  C_4 
REMARK    4  A    between atoms: C_7  and  O_6 
REMARK    5  A    between atoms: C_9  and  C_10 
REMARK    6  A    between atoms: N_15  and  C_14 
REMARK    7  A    between atoms: N_20  and  C_19 
REMARK       I    between atoms: C_22  and  N_20 
ROOT
ATOM      1  C   LIG d   1      -0.265  57.581 119.352  0.00  0.00     0.161 C 
ATOM      2  C   LIG d   1      -1.659  57.722 119.459  0.00  0.00     0.016 C 
ATOM      3  C   LIG d   1      -2.439  58.463 118.541  0.00  0.00     0.038 C 
ATOM      4  C   LIG d   1      -1.893  58.991 117.362  0.00  0.00     0.028 C 
ATOM      5  C   LIG d   1      -0.404  59.304 117.470  0.00  0.00    -0.047 C 
ATOM      6  C   LIG d   1       0.332  58.057 118.011  0.00  0.00     0.091 C 
ENDROOT
BRANCH   1   7
ATOM      7  O   LIG d   1       0.108  56.212 119.609  0.00  0.00    -0.368 OA
BRANCH   7   8
ATOM      8  C   LIG d   1       0.631  55.932 120.931  0.00  0.00     0.119 C 
BRANCH   8   9
ATOM      9  C   LIG d   1       1.987  55.222 120.751  0.00  0.00     0.028 C 
ATOM     10  C   LIG d   1       2.314  54.946 119.274  0.00  0.00     0.006 C 
ENDBRANCH   8   9
BRANCH   8  11
ATOM     11  C   LIG d   1      -0.254  54.932 121.680  0.00  0.00     0.028 C 
ATOM     12  C   LIG d   1      -1.015  55.571 122.852  0.00  0.00     0.006 C 
ENDBRANCH   8  11
ENDBRANCH   7   8
ENDBRANCH   1   7
BRANCH   6  13
ATOM     13  N   LIG d   1       1.782  58.303 118.227  0.00  0.00    -0.311 N 
ATOM     14  C   LIG d   1       2.263  58.976 119.270  0.00  0.00     0.210 C 
ATOM     15  C   LIG d   1       3.787  59.134 119.290  0.00  0.00     0.109 C 
ATOM     16  O   LIG d   1       1.576  59.430 120.198  0.00  0.00    -0.276 OA
ATOM     17  H   LIG d   1       2.413  57.943 117.538  0.00  0.00     0.149 HD
ENDBRANCH   6  13
BRANCH   5  18
ATOM     18  N   LIG d   1       0.063  59.716 116.133  0.00  0.00     0.381 N 
ATOM     19  H   LIG d   1      -0.495  60.476 115.799  0.00  0.00    -0.090 HD
ATOM     20  H   LIG d   1      -0.044  58.944 115.499  0.00  0.00    -0.090 HD
ATOM     21  H   LIG d   1       1.020  59.991 116.176  0.00  0.00    -0.090 HD
ENDBRANCH   5  18
BRANCH   3  22
ATOM     22  C   LIG d   1      -3.773  58.716 118.821  0.00  0.00     0.382 C 
ATOM     23  O   LIG d   1      -4.395  57.982 119.626  0.00  0.00    -0.241 OA
ATOM     24  O   LIG d   1      -4.375  59.642 118.244  0.00  0.00    -0.241 OA
ENDBRANCH   3  22
TORSDOF 7
ENDMDL
