MODEL 1
REMARK VINA RESULT:      -5.4      0.000      0.000
REMARK  7 active torsions:
REMARK  status: ('A' for Active; 'I' for Inactive)
REMARK    1  A    between atoms: C_2  and  C_3 
REMARK    2  A    between atoms: C_3  and  O_6 
REMARK    3  A    between atoms: C_3  and  C_4 
REMARK    4  A    between atoms: C_7  and  O_6 
REMARK    5  A    between atoms: C_9  and  C_10 
REMARK    6  A    between atoms: N_15  and  C_14 
REMARK    7  A    between atoms: N_20  and  C_19 
REMARK       I    between atoms: C_22  and  N_20 
ROOT
ATOM      1  C   LIG d   1      -0.901  77.426 113.157  0.00  0.00     0.161 C 
ATOM      2  C   LIG d   1      -1.767  77.479 114.262  0.00  0.00     0.016 C 
ATOM      3  C   LIG d   1      -2.412  78.663 114.689  0.00  0.00     0.038 C 
ATOM      4  C   LIG d   1      -2.351  79.850 113.945  0.00  0.00     0.028 C 
ATOM      5  C   LIG d   1      -1.084  79.974 113.105  0.00  0.00    -0.047 C 
ATOM      6  C   LIG d   1      -0.909  78.687 112.267  0.00  0.00     0.091 C 
ENDROOT
BRANCH   1   7
ATOM      7  O   LIG d   1      -1.185  76.254 112.368  0.00  0.00    -0.368 OA
BRANCH   7   8
ATOM      8  C   LIG d   1      -0.258  75.150 112.510  0.00  0.00     0.119 C 
BRANCH   8   9
ATOM      9  C   LIG d   1       0.503  75.352 113.835  0.00  0.00     0.028 C 
ATOM     10  C   LIG d   1       0.094  74.330 114.908  0.00  0.00     0.006 C 
ENDBRANCH   8   9
BRANCH   8  11
ATOM     11  C   LIG d   1       0.814  75.179 111.417  0.00  0.00     0.028 C 
ATOM     12  C   LIG d   1       2.209  74.798 111.940  0.00  0.00     0.006 C 
ENDBRANCH   8  11
ENDBRANCH   7   8
ENDBRANCH   1   7
BRANCH   6  13
ATOM     13  N   LIG d   1       0.351  78.690 111.479  0.00  0.00    -0.311 N 
ATOM     14  C   LIG d   1       0.415  79.060 110.202  0.00  0.00     0.210 C 
ATOM     15  C   LIG d   1       1.809  78.969 109.572  0.00  0.00     0.109 C 
ATOM     16  O   LIG d   1      -0.543  79.485 109.539  0.00  0.00    -0.276 OA
ATOM     17  H   LIG d   1       1.183  78.389 111.948  0.00  0.00     0.149 HD
ENDBRANCH   6  13
BRANCH   5  18
ATOM     18  N   LIG d   1      -1.215  81.189 112.278  0.00  0.00     0.381 N 
ATOM     19  H   LIG d   1      -0.501  81.845 112.524  0.00  0.00    -0.090 HD
ATOM     20  H   LIG d   1      -2.108  81.611 112.460  0.00  0.00    -0.090 HD
ATOM     21  H   LIG d   1      -1.142  80.953 111.312  0.00  0.00    -0.090 HD
ENDBRANCH   5  18
BRANCH   3  22
ATOM     22  C   LIG d   1      -3.095  78.676 115.896  0.00  0.00     0.382 C 
ATOM     23  O   LIG d   1      -2.984  77.711 116.689  0.00  0.00    -0.241 OA
ATOM     24  O   LIG d   1      -3.856  79.620 116.180  0.00  0.00    -0.241 OA
ENDBRANCH   3  22
TORSDOF 7
ENDMDL
MODEL 2
REMARK VINA RESULT:      -5.3      2.614      4.637
REMARK  7 active torsions:
REMARK  status: ('A' for Active; 'I' for Inactive)
REMARK    1  A    between atoms: C_2  and  C_3 
REMARK    2  A    between atoms: C_3  and  O_6 
REMARK    3  A    between atoms: C_3  and  C_4 
REMARK    4  A    between atoms: C_7  and  O_6 
REMARK    5  A    between atoms: C_9  and  C_10 
REMARK    6  A    between atoms: N_15  and  C_14 
REMARK    7  A    between atoms: N_20  and  C_19 
REMARK       I    between atoms: C_22  and  N_20 
ROOT
ATOM      1  C   LIG d   1      -2.562  77.146 113.693  0.00  0.00     0.161 C 
ATOM      2  C   LIG d   1      -2.564  78.355 112.977  0.00  0.00     0.016 C 
ATOM      3  C   LIG d   1      -2.219  79.600 113.551  0.00  0.00     0.038 C 
ATOM      4  C   LIG d   1      -1.698  79.699 114.850  0.00  0.00     0.028 C 
ATOM      5  C   LIG d   1      -2.155  78.574 115.772  0.00  0.00    -0.047 C 
ATOM      6  C   LIG d   1      -1.890  77.218 115.080  0.00  0.00     0.091 C 
ENDROOT
BRANCH   1   7
ATOM      7  O   LIG d   1      -1.958  76.108 112.896  0.00  0.00    -0.368 OA
BRANCH   7   8
ATOM      8  C   LIG d   1      -0.515  76.157 112.773  0.00  0.00     0.119 C 
BRANCH   8   9
ATOM      9  C   LIG d   1      -0.183  76.324 111.278  0.00  0.00     0.028 C 
ATOM     10  C   LIG d   1       0.003  77.798 110.879  0.00  0.00     0.006 C 
ENDBRANCH   8   9
BRANCH   8  11
ATOM     11  C   LIG d   1       0.125  74.827 113.184  0.00  0.00     0.028 C 
ATOM     12  C   LIG d   1       1.394  74.504 112.381  0.00  0.00     0.006 C 
ENDBRANCH   8  11
ENDBRANCH   7   8
ENDBRANCH   1   7
BRANCH   6  13
ATOM     13  N   LIG d   1      -2.386  76.067 115.879  0.00  0.00    -0.311 N 
ATOM     14  C   LIG d   1      -1.605  75.333 116.669  0.00  0.00     0.210 C 
ATOM     15  C   LIG d   1      -2.313  74.180 117.389  0.00  0.00     0.109 C 
ATOM     16  O   LIG d   1      -0.399  75.546 116.868  0.00  0.00    -0.276 OA
ATOM     17  H   LIG d   1      -3.359  75.843 115.802  0.00  0.00     0.149 HD
ENDBRANCH   6  13
BRANCH   5  18
ATOM     18  N   LIG d   1      -1.431  78.723 117.049  0.00  0.00     0.381 N 
ATOM     19  H   LIG d   1      -0.545  78.262 116.991  0.00  0.00    -0.090 HD
ATOM     20  H   LIG d   1      -1.967  78.287 117.779  0.00  0.00    -0.090 HD
ATOM     21  H   LIG d   1      -1.299  79.688 117.255  0.00  0.00    -0.090 HD
ENDBRANCH   5  18
BRANCH   3  22
ATOM     22  C   LIG d   1      -2.431  80.769 112.836  0.00  0.00     0.382 C 
ATOM     23  O   LIG d   1      -1.469  81.339 112.267  0.00  0.00    -0.241 OA
ATOM     24  O   LIG d   1      -3.564  81.284 112.789  0.00  0.00    -0.241 OA
ENDBRANCH   3  22
TORSDOF 7
ENDMDL
MODEL 3
REMARK VINA RESULT:      -5.2      2.413      4.113
REMARK  7 active torsions:
REMARK  status: ('A' for Active; 'I' for Inactive)
REMARK    1  A    between atoms: C_2  and  C_3 
REMARK    2  A    between atoms: C_3  and  O_6 
REMARK    3  A    between atoms: C_3  and  C_4 
REMARK    4  A    between atoms: C_7  and  O_6 
REMARK    5  A    between atoms: C_9  and  C_10 
REMARK    6  A    between atoms: N_15  and  C_14 
REMARK    7  A    between atoms: N_20  and  C_19 
REMARK       I    between atoms: C_22  and  N_20 
ROOT
ATOM      1  C   LIG d   1      -1.319  79.800 113.118  0.00  0.00     0.161 C 
ATOM      2  C   LIG d   1      -2.393  78.917 112.921  0.00  0.00     0.016 C 
ATOM      3  C   LIG d   1      -2.396  77.902 111.937  0.00  0.00     0.038 C 
ATOM      4  C   LIG d   1      -1.254  77.601 111.179  0.00  0.00     0.028 C 
ATOM      5  C   LIG d   1      -0.320  78.792 110.993  0.00  0.00    -0.047 C 
ATOM      6  C   LIG d   1      -0.022  79.416 112.375  0.00  0.00     0.091 C 
ENDROOT
BRANCH   1   7
ATOM      7  O   LIG d   1      -1.062  79.951 114.528  0.00  0.00    -0.368 OA
BRANCH   7   8
ATOM      8  C   LIG d   1      -1.434  78.830 115.367  0.00  0.00     0.119 C 
BRANCH   8   9
ATOM      9  C   LIG d   1      -1.989  79.402 116.686  0.00  0.00     0.028 C 
ATOM     10  C   LIG d   1      -3.521  79.298 116.771  0.00  0.00     0.006 C 
ENDBRANCH   8   9
BRANCH   8  11
ATOM     11  C   LIG d   1      -0.208  78.004 115.768  0.00  0.00     0.028 C 
ATOM     12  C   LIG d   1      -0.109  76.674 115.003  0.00  0.00     0.006 C 
ENDBRANCH   8  11
ENDBRANCH   7   8
ENDBRANCH   1   7
BRANCH   6  13
ATOM     13  N   LIG d   1       0.818  80.638 112.276  0.00  0.00    -0.311 N 
ATOM     14  C   LIG d   1       0.410  81.763 111.690  0.00  0.00     0.210 C 
ATOM     15  C   LIG d   1       1.440  82.897 111.680  0.00  0.00     0.109 C 
ATOM     16  O   LIG d   1      -0.719  81.940 111.208  0.00  0.00    -0.276 OA
ATOM     17  H   LIG d   1       1.738  80.593 112.669  0.00  0.00     0.149 HD
ENDBRANCH   6  13
BRANCH   5  18
ATOM     18  N   LIG d   1       0.891  78.305 110.305  0.00  0.00     0.381 N 
ATOM     19  H   LIG d   1       0.962  77.313 110.407  0.00  0.00    -0.090 HD
ATOM     20  H   LIG d   1       1.698  78.725 110.731  0.00  0.00    -0.090 HD
ATOM     21  H   LIG d   1       0.853  78.545 109.339  0.00  0.00    -0.090 HD
ENDBRANCH   5  18
BRANCH   3  22
ATOM     22  C   LIG d   1      -3.563  77.201 111.676  0.00  0.00     0.382 C 
ATOM     23  O   LIG d   1      -4.329  76.885 112.619  0.00  0.00    -0.241 OA
ATOM     24  O   LIG d   1      -3.838  76.840 110.516  0.00  0.00    -0.241 OA
ENDBRANCH   3  22
TORSDOF 7
ENDMDL
MODEL 4
REMARK VINA RESULT:      -5.2      2.672      4.548
REMARK  7 active torsions:
REMARK  status: ('A' for Active; 'I' for Inactive)
REMARK    1  A    between atoms: C_2  and  C_3 
REMARK    2  A    between atoms: C_3  and  O_6 
REMARK    3  A    between atoms: C_3  and  C_4 
REMARK    4  A    between atoms: C_7  and  O_6 
REMARK    5  A    between atoms: C_9  and  C_10 
REMARK    6  A    between atoms: N_15  and  C_14 
REMARK    7  A    between atoms: N_20  and  C_19 
REMARK       I    between atoms: C_22  and  N_20 
ROOT
ATOM      1  C   LIG d   1      -1.170  80.065 112.889  0.00  0.00     0.161 C 
ATOM      2  C   LIG d   1      -1.829  78.849 112.639  0.00  0.00     0.016 C 
ATOM      3  C   LIG d   1      -1.404  77.921 111.661  0.00  0.00     0.038 C 
ATOM      4  C   LIG d   1      -0.195  78.077 110.966  0.00  0.00     0.028 C 
ATOM      5  C   LIG d   1       0.239  79.532 110.825  0.00  0.00    -0.047 C 
ATOM      6  C   LIG d   1       0.213  80.201 112.219  0.00  0.00     0.091 C 
ENDROOT
BRANCH   1   7
ATOM      7  O   LIG d   1      -1.061  80.277 114.310  0.00  0.00    -0.368 OA
BRANCH   7   8
ATOM      8  C   LIG d   1      -1.055  79.086 115.135  0.00  0.00     0.119 C 
BRANCH   8   9
ATOM      9  C   LIG d   1      -2.018  79.332 116.312  0.00  0.00     0.028 C 
ATOM     10  C   LIG d   1      -3.292  78.477 116.218  0.00  0.00     0.006 C 
ENDBRANCH   8   9
BRANCH   8  11
ATOM     11  C   LIG d   1       0.318  78.858 115.774  0.00  0.00     0.028 C 
ATOM     12  C   LIG d   1       1.200  80.116 115.755  0.00  0.00     0.006 C 
ENDBRANCH   8  11
ENDBRANCH   7   8
ENDBRANCH   1   7
BRANCH   6  13
ATOM     13  N   LIG d   1       0.543  81.649 112.159  0.00  0.00    -0.311 N 
ATOM     14  C   LIG d   1       1.774  82.128 112.332  0.00  0.00     0.210 C 
ATOM     15  C   LIG d   1       1.891  83.653 112.250  0.00  0.00     0.109 C 
ATOM     16  O   LIG d   1       2.784  81.432 112.513  0.00  0.00    -0.276 OA
ATOM     17  H   LIG d   1      -0.213  82.282 111.985  0.00  0.00     0.149 HD
ENDBRANCH   6  13
BRANCH   5  18
ATOM     18  N   LIG d   1       1.577  79.540 110.205  0.00  0.00     0.381 N 
ATOM     19  H   LIG d   1       1.677  80.349 109.624  0.00  0.00    -0.090 HD
ATOM     20  H   LIG d   1       1.673  78.723 109.628  0.00  0.00    -0.090 HD
ATOM     21  H   LIG d   1       2.280  79.541 110.911  0.00  0.00    -0.090 HD
ENDBRANCH   5  18
BRANCH   3  22
ATOM     22  C   LIG d   1      -2.212  76.841 111.341  0.00  0.00     0.382 C 
ATOM     23  O   LIG d   1      -1.710  75.698 111.215  0.00  0.00    -0.241 OA
ATOM     24  O   LIG d   1      -3.430  77.003 111.133  0.00  0.00    -0.241 OA
ENDBRANCH   3  22
TORSDOF 7
ENDMDL
MODEL 5
REMARK VINA RESULT:      -5.0      1.561      4.857
REMARK  7 active torsions:
REMARK  status: ('A' for Active; 'I' for Inactive)
REMARK    1  A    between atoms: C_2  and  C_3 
REMARK    2  A    between atoms: C_3  and  O_6 
REMARK    3  A    between atoms: C_3  and  C_4 
REMARK    4  A    between atoms: C_7  and  O_6 
REMARK    5  A    between atoms: C_9  and  C_10 
REMARK    6  A    between atoms: N_15  and  C_14 
REMARK    7  A    between atoms: N_20  and  C_19 
REMARK       I    between atoms: C_22  and  N_20 
ROOT
ATOM      1  C   LIG d   1      -1.601  77.062 112.051  0.00  0.00     0.161 C 
ATOM      2  C   LIG d   1      -0.786  77.575 111.028  0.00  0.00     0.016 C 
ATOM      3  C   LIG d   1      -0.155  78.838 111.097  0.00  0.00     0.038 C 
ATOM      4  C   LIG d   1      -0.174  79.614 112.265  0.00  0.00     0.028 C 
ATOM      5  C   LIG d   1      -1.400  79.365 113.138  0.00  0.00    -0.047 C 
ATOM      6  C   LIG d   1      -1.544  77.845 113.379  0.00  0.00     0.091 C 
ENDROOT
BRANCH   1   7
ATOM      7  O   LIG d   1      -1.288  75.673 112.275  0.00  0.00    -0.368 OA
BRANCH   7   8
ATOM      8  C   LIG d   1      -0.026  75.402 112.934  0.00  0.00     0.119 C 
BRANCH   8   9
ATOM      9  C   LIG d   1       0.767  74.433 112.035  0.00  0.00     0.028 C 
ATOM     10  C   LIG d   1       2.257  74.803 111.946  0.00  0.00     0.006 C 
ENDBRANCH   8   9
BRANCH   8  11
ATOM     11  C   LIG d   1      -0.236  74.653 114.253  0.00  0.00     0.028 C 
ATOM     12  C   LIG d   1       0.554  75.267 115.419  0.00  0.00     0.006 C 
ENDBRANCH   8  11
ENDBRANCH   7   8
ENDBRANCH   1   7
BRANCH   6  13
ATOM     13  N   LIG d   1      -2.766  77.507 114.154  0.00  0.00    -0.311 N 
ATOM     14  C   LIG d   1      -2.790  77.419 115.483  0.00  0.00     0.210 C 
ATOM     15  C   LIG d   1      -4.148  77.039 116.081  0.00  0.00     0.109 C 
ATOM     16  O   LIG d   1      -1.824  77.651 116.225  0.00  0.00    -0.276 OA
ATOM     17  H   LIG d   1      -3.603  77.335 113.633  0.00  0.00     0.149 HD
ENDBRANCH   6  13
BRANCH   5  18
ATOM     18  N   LIG d   1      -1.223  80.134 114.384  0.00  0.00     0.381 N 
ATOM     19  H   LIG d   1      -0.274  80.443 114.460  0.00  0.00    -0.090 HD
ATOM     20  H   LIG d   1      -1.423  79.536 115.166  0.00  0.00    -0.090 HD
ATOM     21  H   LIG d   1      -1.837  80.919 114.391  0.00  0.00    -0.090 HD
ENDBRANCH   5  18
BRANCH   3  22
ATOM     22  C   LIG d   1       0.472  79.355 109.973  0.00  0.00     0.382 C 
ATOM     23  O   LIG d   1       0.068  80.430 109.468  0.00  0.00    -0.241 OA
ATOM     24  O   LIG d   1       1.408  78.737 109.431  0.00  0.00    -0.241 OA
ENDBRANCH   3  22
TORSDOF 7
ENDMDL
MODEL 6
REMARK VINA RESULT:      -5.0      2.600      5.707
REMARK  7 active torsions:
REMARK  status: ('A' for Active; 'I' for Inactive)
REMARK    1  A    between atoms: C_2  and  C_3 
REMARK    2  A    between atoms: C_3  and  O_6 
REMARK    3  A    between atoms: C_3  and  C_4 
REMARK    4  A    between atoms: C_7  and  O_6 
REMARK    5  A    between atoms: C_9  and  C_10 
REMARK    6  A    between atoms: N_15  and  C_14 
REMARK    7  A    between atoms: N_20  and  C_19 
REMARK       I    between atoms: C_22  and  N_20 
ROOT
ATOM      1  C   LIG d   1      -1.549  78.655 113.638  0.00  0.00     0.161 C 
ATOM      2  C   LIG d   1      -0.897  79.663 112.908  0.00  0.00     0.016 C 
ATOM      3  C   LIG d   1      -0.417  79.483 111.590  0.00  0.00     0.038 C 
ATOM      4  C   LIG d   1      -0.693  78.321 110.853  0.00  0.00     0.028 C 
ATOM      5  C   LIG d   1      -0.908  77.088 111.724  0.00  0.00    -0.047 C 
ATOM      6  C   LIG d   1      -1.956  77.418 112.811  0.00  0.00     0.091 C 
ENDROOT
BRANCH   1   7
ATOM      7  O   LIG d   1      -2.696  79.205 114.315  0.00  0.00    -0.368 OA
BRANCH   7   8
ATOM      8  C   LIG d   1      -2.551  79.425 115.739  0.00  0.00     0.119 C 
BRANCH   8   9
ATOM      9  C   LIG d   1      -1.284  78.678 116.196  0.00  0.00     0.028 C 
ATOM     10  C   LIG d   1      -1.599  77.518 117.156  0.00  0.00     0.006 C 
ENDBRANCH   8   9
BRANCH   8  11
ATOM     11  C   LIG d   1      -3.703  78.786 116.521  0.00  0.00     0.028 C 
ATOM     12  C   LIG d   1      -4.436  79.787 117.428  0.00  0.00     0.006 C 
ENDBRANCH   8  11
ENDBRANCH   7   8
ENDBRANCH   1   7
BRANCH   6  13
ATOM     13  N   LIG d   1      -2.164  76.292 113.758  0.00  0.00    -0.311 N 
ATOM     14  C   LIG d   1      -3.364  75.914 114.196  0.00  0.00     0.210 C 
ATOM     15  C   LIG d   1      -3.353  74.743 115.183  0.00  0.00     0.109 C 
ATOM     16  O   LIG d   1      -4.439  76.417 113.835  0.00  0.00    -0.276 OA
ATOM     17  H   LIG d   1      -1.348  75.808 114.077  0.00  0.00     0.149 HD
ENDBRANCH   6  13
BRANCH   5  18
ATOM     18  N   LIG d   1      -1.321  75.983 110.838  0.00  0.00     0.381 N 
ATOM     19  H   LIG d   1      -0.766  75.991 110.005  0.00  0.00    -0.090 HD
ATOM     20  H   LIG d   1      -2.282  76.118 110.577  0.00  0.00    -0.090 HD
ATOM     21  H   LIG d   1      -1.216  75.111 111.308  0.00  0.00    -0.090 HD
ENDBRANCH   5  18
BRANCH   3  22
ATOM     22  C   LIG d   1       0.382  80.457 111.011  0.00  0.00     0.382 C 
ATOM     23  O   LIG d   1       1.548  80.175 110.646  0.00  0.00    -0.241 OA
ATOM     24  O   LIG d   1      -0.034  81.625 110.889  0.00  0.00    -0.241 OA
ENDBRANCH   3  22
TORSDOF 7
ENDMDL
MODEL 7
REMARK VINA RESULT:      -4.8      2.560      4.874
REMARK  7 active torsions:
REMARK  status: ('A' for Active; 'I' for Inactive)
REMARK    1  A    between atoms: C_2  and  C_3 
REMARK    2  A    between atoms: C_3  and  O_6 
REMARK    3  A    between atoms: C_3  and  C_4 
REMARK    4  A    between atoms: C_7  and  O_6 
REMARK    5  A    between atoms: C_9  and  C_10 
REMARK    6  A    between atoms: N_15  and  C_14 
REMARK    7  A    between atoms: N_20  and  C_19 
REMARK       I    between atoms: C_22  and  N_20 
ROOT
ATOM      1  C   LIG d   1      -2.619  77.581 114.425  0.00  0.00     0.161 C 
ATOM      2  C   LIG d   1      -2.866  78.901 114.013  0.00  0.00     0.016 C 
ATOM      3  C   LIG d   1      -2.217  79.506 112.912  0.00  0.00     0.038 C 
ATOM      4  C   LIG d   1      -1.384  78.778 112.050  0.00  0.00     0.028 C 
ATOM      5  C   LIG d   1      -0.715  77.583 112.721  0.00  0.00    -0.047 C 
ATOM      6  C   LIG d   1      -1.796  76.736 113.431  0.00  0.00     0.091 C 
ENDROOT
BRANCH   1   7
ATOM      7  O   LIG d   1      -3.865  76.923 114.730  0.00  0.00    -0.368 OA
BRANCH   7   8
ATOM      8  C   LIG d   1      -4.187  76.786 116.136  0.00  0.00     0.119 C 
BRANCH   8   9
ATOM      9  C   LIG d   1      -2.939  77.203 116.939  0.00  0.00     0.028 C 
ATOM     10  C   LIG d   1      -2.600  76.204 118.058  0.00  0.00     0.006 C 
ENDBRANCH   8   9
BRANCH   8  11
ATOM     11  C   LIG d   1      -4.439  75.323 116.510  0.00  0.00     0.028 C 
ATOM     12  C   LIG d   1      -4.438  74.388 115.290  0.00  0.00     0.006 C 
ENDBRANCH   8  11
ENDBRANCH   7   8
ENDBRANCH   1   7
BRANCH   6  13
ATOM     13  N   LIG d   1      -1.217  75.592 114.183  0.00  0.00    -0.311 N 
ATOM     14  C   LIG d   1      -0.272  75.729 115.111  0.00  0.00     0.210 C 
ATOM     15  C   LIG d   1       0.200  74.420 115.752  0.00  0.00     0.109 C 
ATOM     16  O   LIG d   1       0.199  76.813 115.487  0.00  0.00    -0.276 OA
ATOM     17  H   LIG d   1      -1.564  74.679 113.963  0.00  0.00     0.149 HD
ENDBRANCH   6  13
BRANCH   5  18
ATOM     18  N   LIG d   1       0.013  76.836 111.678  0.00  0.00     0.381 N 
ATOM     19  H   LIG d   1       0.629  77.452 111.188  0.00  0.00    -0.090 HD
ATOM     20  H   LIG d   1      -0.651  76.465 111.021  0.00  0.00    -0.090 HD
ATOM     21  H   LIG d   1       0.533  76.093 112.091  0.00  0.00    -0.090 HD
ENDBRANCH   5  18
BRANCH   3  22
ATOM     22  C   LIG d   1      -2.369  80.866 112.688  0.00  0.00     0.382 C 
ATOM     23  O   LIG d   1      -1.367  81.575 112.431  0.00  0.00    -0.241 OA
ATOM     24  O   LIG d   1      -3.490  81.400 112.782  0.00  0.00    -0.241 OA
ENDBRANCH   3  22
TORSDOF 7
ENDMDL
MODEL 8
REMARK VINA RESULT:      -4.6      2.368      5.396
REMARK  7 active torsions:
REMARK  status: ('A' for Active; 'I' for Inactive)
REMARK    1  A    between atoms: C_2  and  C_3 
REMARK    2  A    between atoms: C_3  and  O_6 
REMARK    3  A    between atoms: C_3  and  C_4 
REMARK    4  A    between atoms: C_7  and  O_6 
REMARK    5  A    between atoms: C_9  and  C_10 
REMARK    6  A    between atoms: N_15  and  C_14 
REMARK    7  A    between atoms: N_20  and  C_19 
REMARK       I    between atoms: C_22  and  N_20 
ROOT
ATOM      1  C   LIG d   1      -2.169  78.226 114.354  0.00  0.00     0.161 C 
ATOM      2  C   LIG d   1      -1.974  79.550 113.929  0.00  0.00     0.016 C 
ATOM      3  C   LIG d   1      -1.493  79.893 112.644  0.00  0.00     0.038 C 
ATOM      4  C   LIG d   1      -1.315  78.931 111.638  0.00  0.00     0.028 C 
ATOM      5  C   LIG d   1      -1.017  77.537 112.179  0.00  0.00    -0.047 C 
ATOM      6  C   LIG d   1      -2.087  77.168 113.233  0.00  0.00     0.091 C 
ENDROOT
BRANCH   1   7
ATOM      7  O   LIG d   1      -3.424  78.117 115.054  0.00  0.00    -0.368 OA
BRANCH   7   8
ATOM      8  C   LIG d   1      -3.350  78.135 116.501  0.00  0.00     0.119 C 
BRANCH   8   9
ATOM      9  C   LIG d   1      -4.052  76.864 117.017  0.00  0.00     0.028 C 
ATOM     10  C   LIG d   1      -3.075  75.885 117.689  0.00  0.00     0.006 C 
ENDBRANCH   8   9
BRANCH   8  11
ATOM     11  C   LIG d   1      -4.148  79.305 117.085  0.00  0.00     0.028 C 
ATOM     12  C   LIG d   1      -3.680  79.701 118.494  0.00  0.00     0.006 C 
ENDBRANCH   8  11
ENDBRANCH   7   8
ENDBRANCH   1   7
BRANCH   6  13
ATOM     13  N   LIG d   1      -1.822  75.854 113.874  0.00  0.00    -0.311 N 
ATOM     14  C   LIG d   1      -0.751  75.608 114.627  0.00  0.00     0.210 C 
ATOM     15  C   LIG d   1      -0.660  74.180 115.175  0.00  0.00     0.109 C 
ATOM     16  O   LIG d   1       0.116  76.445 114.919  0.00  0.00    -0.276 OA
ATOM     17  H   LIG d   1      -2.490  75.126 113.715  0.00  0.00     0.149 HD
ENDBRANCH   6  13
BRANCH   5  18
ATOM     18  N   LIG d   1      -0.993  76.609 111.032  0.00  0.00     0.381 N 
ATOM     19  H   LIG d   1      -1.926  76.334 110.799  0.00  0.00    -0.090 HD
ATOM     20  H   LIG d   1      -0.476  75.787 111.290  0.00  0.00    -0.090 HD
ATOM     21  H   LIG d   1      -0.562  77.048 110.248  0.00  0.00    -0.090 HD
ENDBRANCH   5  18
BRANCH   3  22
ATOM     22  C   LIG d   1      -1.145  81.206 112.368  0.00  0.00     0.382 C 
ATOM     23  O   LIG d   1      -2.033  82.091 112.310  0.00  0.00    -0.241 OA
ATOM     24  O   LIG d   1       0.040  81.510 112.133  0.00  0.00    -0.241 OA
ENDBRANCH   3  22
TORSDOF 7
ENDMDL
MODEL 9
REMARK VINA RESULT:      -4.5      3.383      5.373
REMARK  7 active torsions:
REMARK  status: ('A' for Active; 'I' for Inactive)
REMARK    1  A    between atoms: C_2  and  C_3 
REMARK    2  A    between atoms: C_3  and  O_6 
REMARK    3  A    between atoms: C_3  and  C_4 
REMARK    4  A    between atoms: C_7  and  O_6 
REMARK    5  A    between atoms: C_9  and  C_10 
REMARK    6  A    between atoms: N_15  and  C_14 
REMARK    7  A    between atoms: N_20  and  C_19 
REMARK       I    between atoms: C_22  and  N_20 
ROOT
ATOM      1  C   LIG d   1      -2.611  78.565 115.856  0.00  0.00     0.161 C 
ATOM      2  C   LIG d   1      -2.880  79.328 114.707  0.00  0.00     0.016 C 
ATOM      3  C   LIG d   1      -1.876  79.980 113.954  0.00  0.00     0.038 C 
ATOM      4  C   LIG d   1      -0.511  79.787 114.214  0.00  0.00     0.028 C 
ATOM      5  C   LIG d   1      -0.215  79.432 115.668  0.00  0.00    -0.047 C 
ATOM      6  C   LIG d   1      -1.119  78.251 116.090  0.00  0.00     0.091 C 
ENDROOT
BRANCH   1   7
ATOM      7  O   LIG d   1      -3.380  77.346 115.823  0.00  0.00    -0.368 OA
BRANCH   7   8
ATOM      8  C   LIG d   1      -2.859  76.286 114.984  0.00  0.00     0.119 C 
BRANCH   8   9
ATOM      9  C   LIG d   1      -3.810  76.137 113.781  0.00  0.00     0.028 C 
ATOM     10  C   LIG d   1      -3.235  76.761 112.498  0.00  0.00     0.006 C 
ENDBRANCH   8   9
BRANCH   8  11
ATOM     11  C   LIG d   1      -2.901  74.935 115.704  0.00  0.00     0.028 C 
ATOM     12  C   LIG d   1      -3.288  75.061 117.186  0.00  0.00     0.006 C 
ENDBRANCH   8  11
ENDBRANCH   7   8
ENDBRANCH   1   7
BRANCH   6  13
ATOM     13  N   LIG d   1      -0.954  77.896 117.523  0.00  0.00    -0.311 N 
ATOM     14  C   LIG d   1      -0.163  76.911 117.948  0.00  0.00     0.210 C 
ATOM     15  C   LIG d   1      -0.153  76.699 119.465  0.00  0.00     0.109 C 
ATOM     16  O   LIG d   1       0.555  76.215 117.215  0.00  0.00    -0.276 OA
ATOM     17  H   LIG d   1      -1.476  78.430 118.189  0.00  0.00     0.149 HD
ENDBRANCH   6  13
BRANCH   5  18
ATOM     18  N   LIG d   1       1.224  79.124 115.767  0.00  0.00     0.381 N 
ATOM     19  H   LIG d   1       1.380  78.162 115.541  0.00  0.00    -0.090 HD
ATOM     20  H   LIG d   1       1.525  79.278 116.714  0.00  0.00    -0.090 HD
ATOM     21  H   LIG d   1       1.741  79.707 115.147  0.00  0.00    -0.090 HD
ENDBRANCH   5  18
BRANCH   3  22
ATOM     22  C   LIG d   1      -2.236  80.869 112.953  0.00  0.00     0.382 C 
ATOM     23  O   LIG d   1      -1.351  81.413 112.249  0.00  0.00    -0.241 OA
ATOM     24  O   LIG d   1      -3.432  81.167 112.773  0.00  0.00    -0.241 OA
ENDBRANCH   3  22
TORSDOF 7
ENDMDL
