MODEL 1
REMARK VINA RESULT:      -5.5      0.000      0.000
REMARK  7 active torsions:
REMARK  status: ('A' for Active; 'I' for Inactive)
REMARK    1  A    between atoms: C_2  and  C_3 
REMARK    2  A    between atoms: C_3  and  O_6 
REMARK    3  A    between atoms: C_3  and  C_4 
REMARK    4  A    between atoms: C_7  and  O_6 
REMARK    5  A    between atoms: C_9  and  C_10 
REMARK    6  A    between atoms: N_15  and  C_14 
REMARK    7  A    between atoms: N_20  and  C_19 
REMARK       I    between atoms: C_22  and  N_20 
ROOT
ATOM      1  C   LIG d   1       0.281  82.943 112.276  0.00  0.00     0.161 C 
ATOM      2  C   LIG d   1      -0.935  82.545 112.857  0.00  0.00     0.016 C 
ATOM      3  C   LIG d   1      -1.463  81.239 112.740  0.00  0.00     0.038 C 
ATOM      4  C   LIG d   1      -0.732  80.194 112.156  0.00  0.00     0.028 C 
ATOM      5  C   LIG d   1       0.276  80.667 111.114  0.00  0.00    -0.047 C 
ATOM      6  C   LIG d   1       1.145  81.787 111.730  0.00  0.00     0.091 C 
ENDROOT
BRANCH   1   7
ATOM      7  O   LIG d   1       1.036  83.733 113.216  0.00  0.00    -0.368 OA
BRANCH   7   8
ATOM      8  C   LIG d   1       1.371  83.086 114.469  0.00  0.00     0.119 C 
BRANCH   8   9
ATOM      9  C   LIG d   1       0.946  84.034 115.607  0.00  0.00     0.028 C 
ATOM     10  C   LIG d   1      -0.215  83.467 116.440  0.00  0.00     0.006 C 
ENDBRANCH   8   9
BRANCH   8  11
ATOM     11  C   LIG d   1       2.885  82.920 114.623  0.00  0.00     0.028 C 
ATOM     12  C   LIG d   1       3.683  83.978 113.844  0.00  0.00     0.006 C 
ENDBRANCH   8  11
ENDBRANCH   7   8
ENDBRANCH   1   7
BRANCH   6  13
ATOM     13  N   LIG d   1       2.102  82.365 110.751  0.00  0.00    -0.311 N 
ATOM     14  C   LIG d   1       3.377  81.991 110.664  0.00  0.00     0.210 C 
ATOM     15  C   LIG d   1       4.196  82.728 109.599  0.00  0.00     0.109 C 
ATOM     16  O   LIG d   1       3.900  81.096 111.345  0.00  0.00    -0.276 OA
ATOM     17  H   LIG d   1       1.754  83.076 110.138  0.00  0.00     0.149 HD
ENDBRANCH   6  13
BRANCH   5  18
ATOM     18  N   LIG d   1       1.062  79.494 110.689  0.00  0.00     0.381 N 
ATOM     19  H   LIG d   1       0.447  78.734 110.474  0.00  0.00    -0.090 HD
ATOM     20  H   LIG d   1       1.660  79.211 111.445  0.00  0.00    -0.090 HD
ATOM     21  H   LIG d   1       1.611  79.722 109.889  0.00  0.00    -0.090 HD
ENDBRANCH   5  18
BRANCH   3  22
ATOM     22  C   LIG d   1      -2.753  80.978 113.175  0.00  0.00     0.382 C 
ATOM     23  O   LIG d   1      -3.696  81.731 112.830  0.00  0.00    -0.241 OA
ATOM     24  O   LIG d   1      -2.980  80.024 113.944  0.00  0.00    -0.241 OA
ENDBRANCH   3  22
TORSDOF 7
ENDMDL
MODEL 2
REMARK VINA RESULT:      -5.0      1.853      4.759
REMARK  7 active torsions:
REMARK  status: ('A' for Active; 'I' for Inactive)
REMARK    1  A    between atoms: C_2  and  C_3 
REMARK    2  A    between atoms: C_3  and  O_6 
REMARK    3  A    between atoms: C_3  and  C_4 
REMARK    4  A    between atoms: C_7  and  O_6 
REMARK    5  A    between atoms: C_9  and  C_10 
REMARK    6  A    between atoms: N_15  and  C_14 
REMARK    7  A    between atoms: N_20  and  C_19 
REMARK       I    between atoms: C_22  and  N_20 
ROOT
ATOM      1  C   LIG d   1       0.781  82.077 112.557  0.00  0.00     0.161 C 
ATOM      2  C   LIG d   1       1.656  81.632 111.552  0.00  0.00     0.016 C 
ATOM      3  C   LIG d   1       1.395  80.509 110.735  0.00  0.00     0.038 C 
ATOM      4  C   LIG d   1       0.163  79.840 110.766  0.00  0.00     0.028 C 
ATOM      5  C   LIG d   1      -0.548  79.941 112.111  0.00  0.00    -0.047 C 
ATOM      6  C   LIG d   1      -0.618  81.427 112.531  0.00  0.00     0.091 C 
ENDROOT
BRANCH   1   7
ATOM      7  O   LIG d   1       0.668  83.513 112.506  0.00  0.00    -0.368 OA
BRANCH   7   8
ATOM      8  C   LIG d   1       1.274  84.241 113.602  0.00  0.00     0.119 C 
BRANCH   8   9
ATOM      9  C   LIG d   1       2.680  84.677 113.147  0.00  0.00     0.028 C 
ATOM     10  C   LIG d   1       3.780  84.217 114.118  0.00  0.00     0.006 C 
ENDBRANCH   8   9
BRANCH   8  11
ATOM     11  C   LIG d   1       1.504  83.332 114.814  0.00  0.00     0.028 C 
ATOM     12  C   LIG d   1       0.612  83.699 116.011  0.00  0.00     0.006 C 
ENDBRANCH   8  11
ENDBRANCH   7   8
ENDBRANCH   1   7
BRANCH   6  13
ATOM     13  N   LIG d   1      -1.223  81.608 113.876  0.00  0.00    -0.311 N 
ATOM     14  C   LIG d   1      -2.518  81.850 114.071  0.00  0.00     0.210 C 
ATOM     15  C   LIG d   1      -2.931  82.024 115.536  0.00  0.00     0.109 C 
ATOM     16  O   LIG d   1      -3.371  81.904 113.172  0.00  0.00    -0.276 OA
ATOM     17  H   LIG d   1      -0.609  81.549 114.665  0.00  0.00     0.149 HD
ENDBRANCH   6  13
BRANCH   5  18
ATOM     18  N   LIG d   1      -1.877  79.320 111.961  0.00  0.00     0.381 N 
ATOM     19  H   LIG d   1      -2.441  79.529 112.761  0.00  0.00    -0.090 HD
ATOM     20  H   LIG d   1      -1.766  78.323 111.906  0.00  0.00    -0.090 HD
ATOM     21  H   LIG d   1      -2.321  79.658 111.136  0.00  0.00    -0.090 HD
ENDBRANCH   5  18
BRANCH   3  22
ATOM     22  C   LIG d   1       2.389  80.020 109.901  0.00  0.00     0.382 C 
ATOM     23  O   LIG d   1       3.348  80.757 109.569  0.00  0.00    -0.241 OA
ATOM     24  O   LIG d   1       2.317  78.864 109.442  0.00  0.00    -0.241 OA
ENDBRANCH   3  22
TORSDOF 7
ENDMDL
MODEL 3
REMARK VINA RESULT:      -4.9      1.830      4.975
REMARK  7 active torsions:
REMARK  status: ('A' for Active; 'I' for Inactive)
REMARK    1  A    between atoms: C_2  and  C_3 
REMARK    2  A    between atoms: C_3  and  O_6 
REMARK    3  A    between atoms: C_3  and  C_4 
REMARK    4  A    between atoms: C_7  and  O_6 
REMARK    5  A    between atoms: C_9  and  C_10 
REMARK    6  A    between atoms: N_15  and  C_14 
REMARK    7  A    between atoms: N_20  and  C_19 
REMARK       I    between atoms: C_22  and  N_20 
ROOT
ATOM      1  C   LIG d   1       1.266  81.213 113.088  0.00  0.00     0.161 C 
ATOM      2  C   LIG d   1       2.217  82.075 112.518  0.00  0.00     0.016 C 
ATOM      3  C   LIG d   1       2.425  82.193 111.124  0.00  0.00     0.038 C 
ATOM      4  C   LIG d   1       1.585  81.563 110.194  0.00  0.00     0.028 C 
ATOM      5  C   LIG d   1       0.936  80.291 110.728  0.00  0.00    -0.047 C 
ATOM      6  C   LIG d   1       0.265  80.601 112.085  0.00  0.00     0.091 C 
ENDROOT
BRANCH   1   7
ATOM      7  O   LIG d   1       0.562  81.893 114.146  0.00  0.00    -0.368 OA
BRANCH   7   8
ATOM      8  C   LIG d   1      -0.501  82.787 113.733  0.00  0.00     0.119 C 
BRANCH   8   9
ATOM      9  C   LIG d   1      -0.054  84.223 114.066  0.00  0.00     0.028 C 
ATOM     10  C   LIG d   1       0.829  84.286 115.324  0.00  0.00     0.006 C 
ENDBRANCH   8   9
BRANCH   8  11
ATOM     11  C   LIG d   1      -1.773  82.557 114.555  0.00  0.00     0.028 C 
ATOM     12  C   LIG d   1      -1.561  81.575 115.718  0.00  0.00     0.006 C 
ENDBRANCH   8  11
ENDBRANCH   7   8
ENDBRANCH   1   7
BRANCH   6  13
ATOM     13  N   LIG d   1      -0.322  79.391 112.717  0.00  0.00    -0.311 N 
ATOM     14  C   LIG d   1      -1.632  79.197 112.853  0.00  0.00     0.210 C 
ATOM     15  C   LIG d   1      -2.024  77.891 113.551  0.00  0.00     0.109 C 
ATOM     16  O   LIG d   1      -2.509  79.968 112.433  0.00  0.00    -0.276 OA
ATOM     17  H   LIG d   1       0.317  78.699 113.058  0.00  0.00     0.149 HD
ENDBRANCH   6  13
BRANCH   5  18
ATOM     18  N   LIG d   1      -0.016  79.814 109.707  0.00  0.00     0.381 N 
ATOM     19  H   LIG d   1       0.266  78.914 109.374  0.00  0.00    -0.090 HD
ATOM     20  H   LIG d   1      -0.009  80.454 108.932  0.00  0.00    -0.090 HD
ATOM     21  H   LIG d   1      -0.933  79.760 110.095  0.00  0.00    -0.090 HD
ENDBRANCH   5  18
BRANCH   3  22
ATOM     22  C   LIG d   1       3.508  82.917 110.650  0.00  0.00     0.382 C 
ATOM     23  O   LIG d   1       4.576  82.950 111.307  0.00  0.00    -0.241 OA
ATOM     24  O   LIG d   1       3.416  83.573 109.595  0.00  0.00    -0.241 OA
ENDBRANCH   3  22
TORSDOF 7
ENDMDL
MODEL 4
REMARK VINA RESULT:      -4.9      1.645      4.985
REMARK  7 active torsions:
REMARK  status: ('A' for Active; 'I' for Inactive)
REMARK    1  A    between atoms: C_2  and  C_3 
REMARK    2  A    between atoms: C_3  and  O_6 
REMARK    3  A    between atoms: C_3  and  C_4 
REMARK    4  A    between atoms: C_7  and  O_6 
REMARK    5  A    between atoms: C_9  and  C_10 
REMARK    6  A    between atoms: N_15  and  C_14 
REMARK    7  A    between atoms: N_20  and  C_19 
REMARK       I    between atoms: C_22  and  N_20 
ROOT
ATOM      1  C   LIG d   1       0.438  82.813 113.034  0.00  0.00     0.161 C 
ATOM      2  C   LIG d   1       1.540  83.323 112.328  0.00  0.00     0.016 C 
ATOM      3  C   LIG d   1       2.106  82.684 111.201  0.00  0.00     0.038 C 
ATOM      4  C   LIG d   1       1.509  81.562 110.608  0.00  0.00     0.028 C 
ATOM      5  C   LIG d   1       0.691  80.724 111.584  0.00  0.00    -0.047 C 
ATOM      6  C   LIG d   1      -0.295  81.648 112.335  0.00  0.00     0.091 C 
ENDROOT
BRANCH   1   7
ATOM      7  O   LIG d   1      -0.486  83.878 113.334  0.00  0.00    -0.368 OA
BRANCH   7   8
ATOM      8  C   LIG d   1      -0.548  84.296 114.719  0.00  0.00     0.119 C 
BRANCH   8   9
ATOM      9  C   LIG d   1       0.613  83.609 115.463  0.00  0.00     0.028 C 
ATOM     10  C   LIG d   1       1.646  84.616 115.998  0.00  0.00     0.006 C 
ENDBRANCH   8   9
BRANCH   8  11
ATOM     11  C   LIG d   1      -1.823  83.786 115.398  0.00  0.00     0.028 C 
ATOM     12  C   LIG d   1      -1.537  82.998 116.687  0.00  0.00     0.006 C 
ENDBRANCH   8  11
ENDBRANCH   7   8
ENDBRANCH   1   7
BRANCH   6  13
ATOM     13  N   LIG d   1      -1.076  80.923 113.370  0.00  0.00    -0.311 N 
ATOM     14  C   LIG d   1      -2.398  81.022 113.495  0.00  0.00     0.210 C 
ATOM     15  C   LIG d   1      -3.003  80.206 114.641  0.00  0.00     0.109 C 
ATOM     16  O   LIG d   1      -3.131  81.684 112.744  0.00  0.00    -0.276 OA
ATOM     17  H   LIG d   1      -0.564  80.339 114.002  0.00  0.00     0.149 HD
ENDBRANCH   6  13
BRANCH   5  18
ATOM     18  N   LIG d   1       0.015  79.668 110.807  0.00  0.00     0.381 N 
ATOM     19  H   LIG d   1      -0.948  79.906 110.678  0.00  0.00    -0.090 HD
ATOM     20  H   LIG d   1       0.060  78.806 111.322  0.00  0.00    -0.090 HD
ATOM     21  H   LIG d   1       0.459  79.558 109.922  0.00  0.00    -0.090 HD
ENDBRANCH   5  18
BRANCH   3  22
ATOM     22  C   LIG d   1       3.305  83.145 110.679  0.00  0.00     0.382 C 
ATOM     23  O   LIG d   1       4.391  82.801 111.204  0.00  0.00    -0.241 OA
ATOM     24  O   LIG d   1       3.312  83.937 109.717  0.00  0.00    -0.241 OA
ENDBRANCH   3  22
TORSDOF 7
ENDMDL
MODEL 5
REMARK VINA RESULT:      -4.8      1.891      4.992
REMARK  7 active torsions:
REMARK  status: ('A' for Active; 'I' for Inactive)
REMARK    1  A    between atoms: C_2  and  C_3 
REMARK    2  A    between atoms: C_3  and  O_6 
REMARK    3  A    between atoms: C_3  and  C_4 
REMARK    4  A    between atoms: C_7  and  O_6 
REMARK    5  A    between atoms: C_9  and  C_10 
REMARK    6  A    between atoms: N_15  and  C_14 
REMARK    7  A    between atoms: N_20  and  C_19 
REMARK       I    between atoms: C_22  and  N_20 
ROOT
ATOM      1  C   LIG d   1       1.073  81.360 112.819  0.00  0.00     0.161 C 
ATOM      2  C   LIG d   1       2.098  82.160 112.287  0.00  0.00     0.016 C 
ATOM      3  C   LIG d   1       2.439  82.178 110.915  0.00  0.00     0.038 C 
ATOM      4  C   LIG d   1       1.673  81.505 109.952  0.00  0.00     0.028 C 
ATOM      5  C   LIG d   1       0.940  80.287 110.504  0.00  0.00    -0.047 C 
ATOM      6  C   LIG d   1       0.154  80.704 111.767  0.00  0.00     0.091 C 
ENDROOT
BRANCH   1   7
ATOM      7  O   LIG d   1       0.293  82.126 113.758  0.00  0.00    -0.368 OA
BRANCH   7   8
ATOM      8  C   LIG d   1       0.709  82.050 115.144  0.00  0.00     0.119 C 
BRANCH   8   9
ATOM      9  C   LIG d   1       1.017  80.572 115.454  0.00  0.00     0.028 C 
ATOM     10  C   LIG d   1      -0.113  79.891 116.245  0.00  0.00     0.006 C 
ENDBRANCH   8   9
BRANCH   8  11
ATOM     11  C   LIG d   1      -0.432  82.434 116.090  0.00  0.00     0.028 C 
ATOM     12  C   LIG d   1      -1.454  83.379 115.439  0.00  0.00     0.006 C 
ENDBRANCH   8  11
ENDBRANCH   7   8
ENDBRANCH   1   7
BRANCH   6  13
ATOM     13  N   LIG d   1      -0.524  79.553 112.419  0.00  0.00    -0.311 N 
ATOM     14  C   LIG d   1      -1.792  79.583 112.825  0.00  0.00     0.210 C 
ATOM     15  C   LIG d   1      -2.289  78.295 113.490  0.00  0.00     0.109 C 
ATOM     16  O   LIG d   1      -2.562  80.542 112.669  0.00  0.00    -0.276 OA
ATOM     17  H   LIG d   1       0.018  78.722 112.556  0.00  0.00     0.149 HD
ENDBRANCH   6  13
BRANCH   5  18
ATOM     18  N   LIG d   1       0.075  79.763 109.430  0.00  0.00     0.381 N 
ATOM     19  H   LIG d   1      -0.658  79.209 109.826  0.00  0.00    -0.090 HD
ATOM     20  H   LIG d   1       0.623  79.176 108.827  0.00  0.00    -0.090 HD
ATOM     21  H   LIG d   1      -0.315  80.517 108.908  0.00  0.00    -0.090 HD
ENDBRANCH   5  18
BRANCH   3  22
ATOM     22  C   LIG d   1       3.582  82.844 110.500  0.00  0.00     0.382 C 
ATOM     23  O   LIG d   1       4.648  82.725 111.151  0.00  0.00    -0.241 OA
ATOM     24  O   LIG d   1       3.550  83.596 109.508  0.00  0.00    -0.241 OA
ENDBRANCH   3  22
TORSDOF 7
ENDMDL
MODEL 6
REMARK VINA RESULT:      -4.7      2.089      4.114
REMARK  7 active torsions:
REMARK  status: ('A' for Active; 'I' for Inactive)
REMARK    1  A    between atoms: C_2  and  C_3 
REMARK    2  A    between atoms: C_3  and  O_6 
REMARK    3  A    between atoms: C_3  and  C_4 
REMARK    4  A    between atoms: C_7  and  O_6 
REMARK    5  A    between atoms: C_9  and  C_10 
REMARK    6  A    between atoms: N_15  and  C_14 
REMARK    7  A    between atoms: N_20  and  C_19 
REMARK       I    between atoms: C_22  and  N_20 
ROOT
ATOM      1  C   LIG d   1       0.904  81.169 113.224  0.00  0.00     0.161 C 
ATOM      2  C   LIG d   1      -0.404  80.826 112.842  0.00  0.00     0.016 C 
ATOM      3  C   LIG d   1      -1.556  81.473 113.345  0.00  0.00     0.038 C 
ATOM      4  C   LIG d   1      -1.471  82.615 114.155  0.00  0.00     0.028 C 
ATOM      5  C   LIG d   1      -0.183  82.685 114.969  0.00  0.00    -0.047 C 
ATOM      6  C   LIG d   1       1.021  82.484 114.022  0.00  0.00     0.091 C 
ENDROOT
BRANCH   1   7
ATOM      7  O   LIG d   1       1.757  81.209 112.063  0.00  0.00    -0.368 OA
BRANCH   7   8
ATOM      8  C   LIG d   1       1.309  82.049 110.971  0.00  0.00     0.119 C 
BRANCH   8   9
ATOM      9  C   LIG d   1       1.401  81.216 109.678  0.00  0.00     0.028 C 
ATOM     10  C   LIG d   1       2.130  79.878 109.893  0.00  0.00     0.006 C 
ENDBRANCH   8   9
BRANCH   8  11
ATOM     11  C   LIG d   1       2.252  83.236 110.756  0.00  0.00     0.028 C 
ATOM     12  C   LIG d   1       3.671  82.973 111.285  0.00  0.00     0.006 C 
ENDBRANCH   8  11
ENDBRANCH   7   8
ENDBRANCH   1   7
BRANCH   6  13
ATOM     13  N   LIG d   1       2.316  82.455 114.749  0.00  0.00    -0.311 N 
ATOM     14  C   LIG d   1       3.078  83.532 114.935  0.00  0.00     0.210 C 
ATOM     15  C   LIG d   1       4.383  83.278 115.695  0.00  0.00     0.109 C 
ATOM     16  O   LIG d   1       2.780  84.680 114.571  0.00  0.00    -0.276 OA
ATOM     17  H   LIG d   1       2.619  81.570 115.106  0.00  0.00     0.149 HD
ENDBRANCH   6  13
BRANCH   5  18
ATOM     18  N   LIG d   1      -0.164  83.988 115.661  0.00  0.00     0.381 N 
ATOM     19  H   LIG d   1      -0.399  84.717 115.017  0.00  0.00    -0.090 HD
ATOM     20  H   LIG d   1       0.764  84.159 116.006  0.00  0.00    -0.090 HD
ATOM     21  H   LIG d   1      -0.812  83.982 116.418  0.00  0.00    -0.090 HD
ENDBRANCH   5  18
BRANCH   3  22
ATOM     22  C   LIG d   1      -2.811  80.953 113.069  0.00  0.00     0.382 C 
ATOM     23  O   LIG d   1      -3.764  81.724 112.799  0.00  0.00    -0.241 OA
ATOM     24  O   LIG d   1      -3.014  79.726 113.131  0.00  0.00    -0.241 OA
ENDBRANCH   3  22
TORSDOF 7
ENDMDL
MODEL 7
REMARK VINA RESULT:      -4.5      2.698      4.493
REMARK  7 active torsions:
REMARK  status: ('A' for Active; 'I' for Inactive)
REMARK    1  A    between atoms: C_2  and  C_3 
REMARK    2  A    between atoms: C_3  and  O_6 
REMARK    3  A    between atoms: C_3  and  C_4 
REMARK    4  A    between atoms: C_7  and  O_6 
REMARK    5  A    between atoms: C_9  and  C_10 
REMARK    6  A    between atoms: N_15  and  C_14 
REMARK    7  A    between atoms: N_20  and  C_19 
REMARK       I    between atoms: C_22  and  N_20 
ROOT
ATOM      1  C   LIG d   1       0.859  80.575 113.310  0.00  0.00     0.161 C 
ATOM      2  C   LIG d   1      -0.465  80.664 112.848  0.00  0.00     0.016 C 
ATOM      3  C   LIG d   1      -1.565  80.946 113.689  0.00  0.00     0.038 C 
ATOM      4  C   LIG d   1      -1.397  81.310 115.033  0.00  0.00     0.028 C 
ATOM      5  C   LIG d   1      -0.129  80.740 115.661  0.00  0.00    -0.047 C 
ATOM      6  C   LIG d   1       1.075  81.078 114.753  0.00  0.00     0.091 C 
ENDROOT
BRANCH   1   7
ATOM      7  O   LIG d   1       1.741  81.264 112.402  0.00  0.00    -0.368 OA
BRANCH   7   8
ATOM      8  C   LIG d   1       1.413  81.163 110.995  0.00  0.00     0.119 C 
BRANCH   8   9
ATOM      9  C   LIG d   1       2.453  80.232 110.342  0.00  0.00     0.028 C 
ATOM     10  C   LIG d   1       3.846  80.878 110.257  0.00  0.00     0.006 C 
ENDBRANCH   8   9
BRANCH   8  11
ATOM     11  C   LIG d   1       1.574  82.511 110.287  0.00  0.00     0.028 C 
ATOM     12  C   LIG d   1       0.426  83.486 110.592  0.00  0.00     0.006 C 
ENDBRANCH   8  11
ENDBRANCH   7   8
ENDBRANCH   1   7
BRANCH   6  13
ATOM     13  N   LIG d   1       2.344  80.485 115.251  0.00  0.00    -0.311 N 
ATOM     14  C   LIG d   1       3.194  81.134 116.044  0.00  0.00     0.210 C 
ATOM     15  C   LIG d   1       4.452  80.347 116.424  0.00  0.00     0.109 C 
ATOM     16  O   LIG d   1       3.011  82.274 116.495  0.00  0.00    -0.276 OA
ATOM     17  H   LIG d   1       2.557  79.552 114.958  0.00  0.00     0.149 HD
ENDBRANCH   6  13
BRANCH   5  18
ATOM     18  N   LIG d   1      -0.009  81.309 117.017  0.00  0.00     0.381 N 
ATOM     19  H   LIG d   1       0.441  82.201 116.971  0.00  0.00    -0.090 HD
ATOM     20  H   LIG d   1       0.559  80.697 117.576  0.00  0.00    -0.090 HD
ATOM     21  H   LIG d   1      -0.912  81.404 117.428  0.00  0.00    -0.090 HD
ENDBRANCH   5  18
BRANCH   3  22
ATOM     22  C   LIG d   1      -2.856  80.826 113.195  0.00  0.00     0.382 C 
ATOM     23  O   LIG d   1      -3.590  81.840 113.108  0.00  0.00    -0.241 OA
ATOM     24  O   LIG d   1      -3.310  79.711 112.878  0.00  0.00    -0.241 OA
ENDBRANCH   3  22
TORSDOF 7
ENDMDL
MODEL 8
REMARK VINA RESULT:      -4.4      1.909      2.102
REMARK  7 active torsions:
REMARK  status: ('A' for Active; 'I' for Inactive)
REMARK    1  A    between atoms: C_2  and  C_3 
REMARK    2  A    between atoms: C_3  and  O_6 
REMARK    3  A    between atoms: C_3  and  C_4 
REMARK    4  A    between atoms: C_7  and  O_6 
REMARK    5  A    between atoms: C_9  and  C_10 
REMARK    6  A    between atoms: N_15  and  C_14 
REMARK    7  A    between atoms: N_20  and  C_19 
REMARK       I    between atoms: C_22  and  N_20 
ROOT
ATOM      1  C   LIG d   1       0.796  81.992 113.553  0.00  0.00     0.161 C 
ATOM      2  C   LIG d   1      -0.557  81.956 113.930  0.00  0.00     0.016 C 
ATOM      3  C   LIG d   1      -1.511  81.104 113.328  0.00  0.00     0.038 C 
ATOM      4  C   LIG d   1      -1.142  80.116 112.403  0.00  0.00     0.028 C 
ATOM      5  C   LIG d   1       0.124  80.456 111.625  0.00  0.00    -0.047 C 
ATOM      6  C   LIG d   1       1.239  80.843 112.624  0.00  0.00     0.091 C 
ENDROOT
BRANCH   1   7
ATOM      7  O   LIG d   1       1.630  82.037 114.727  0.00  0.00    -0.368 OA
BRANCH   7   8
ATOM      8  C   LIG d   1       1.877  80.768 115.382  0.00  0.00     0.119 C 
BRANCH   8   9
ATOM      9  C   LIG d   1       1.180  80.812 116.756  0.00  0.00     0.028 C 
ATOM     10  C   LIG d   1       0.068  79.758 116.884  0.00  0.00     0.006 C 
ENDBRANCH   8   9
BRANCH   8  11
ATOM     11  C   LIG d   1       3.366  80.579 115.688  0.00  0.00     0.028 C 
ATOM     12  C   LIG d   1       3.721  80.910 117.147  0.00  0.00     0.006 C 
ENDBRANCH   8  11
ENDBRANCH   7   8
ENDBRANCH   1   7
BRANCH   6  13
ATOM     13  N   LIG d   1       2.488  81.271 111.941  0.00  0.00    -0.311 N 
ATOM     14  C   LIG d   1       2.544  82.294 111.090  0.00  0.00     0.210 C 
ATOM     15  C   LIG d   1       3.926  82.555 110.483  0.00  0.00     0.109 C 
ATOM     16  O   LIG d   1       1.587  83.030 110.804  0.00  0.00    -0.276 OA
ATOM     17  H   LIG d   1       3.318  80.749 112.140  0.00  0.00     0.149 HD
ENDBRANCH   6  13
BRANCH   5  18
ATOM     18  N   LIG d   1       0.469  79.283 110.800  0.00  0.00     0.381 N 
ATOM     19  H   LIG d   1       1.180  78.746 111.254  0.00  0.00    -0.090 HD
ATOM     20  H   LIG d   1       0.829  79.601 109.917  0.00  0.00    -0.090 HD
ATOM     21  H   LIG d   1      -0.340  78.719 110.653  0.00  0.00    -0.090 HD
ENDBRANCH   5  18
BRANCH   3  22
ATOM     22  C   LIG d   1      -2.857  81.264 113.620  0.00  0.00     0.382 C 
ATOM     23  O   LIG d   1      -3.637  81.723 112.750  0.00  0.00    -0.241 OA
ATOM     24  O   LIG d   1      -3.293  80.997 114.755  0.00  0.00    -0.241 OA
ENDBRANCH   3  22
TORSDOF 7
ENDMDL
MODEL 9
REMARK VINA RESULT:      -4.3      1.711      4.666
REMARK  7 active torsions:
REMARK  status: ('A' for Active; 'I' for Inactive)
REMARK    1  A    between atoms: C_2  and  C_3 
REMARK    2  A    between atoms: C_3  and  O_6 
REMARK    3  A    between atoms: C_3  and  C_4 
REMARK    4  A    between atoms: C_7  and  O_6 
REMARK    5  A    between atoms: C_9  and  C_10 
REMARK    6  A    between atoms: N_15  and  C_14 
REMARK    7  A    between atoms: N_20  and  C_19 
REMARK       I    between atoms: C_22  and  N_20 
ROOT
ATOM      1  C   LIG d   1       0.826  81.766 113.750  0.00  0.00     0.161 C 
ATOM      2  C   LIG d   1       1.840  81.894 112.786  0.00  0.00     0.016 C 
ATOM      3  C   LIG d   1       1.798  81.261 111.523  0.00  0.00     0.038 C 
ATOM      4  C   LIG d   1       0.660  80.574 111.076  0.00  0.00     0.028 C 
ATOM      5  C   LIG d   1      -0.182  79.995 112.208  0.00  0.00    -0.047 C 
ATOM      6  C   LIG d   1      -0.474  81.111 113.237  0.00  0.00     0.091 C 
ENDROOT
BRANCH   1   7
ATOM      7  O   LIG d   1       0.541  83.053 114.334  0.00  0.00    -0.368 OA
BRANCH   7   8
ATOM      8  C   LIG d   1       1.442  83.490 115.382  0.00  0.00     0.119 C 
BRANCH   8   9
ATOM      9  C   LIG d   1       0.578  84.026 116.540  0.00  0.00     0.028 C 
ATOM     10  C   LIG d   1      -0.708  83.207 116.740  0.00  0.00     0.006 C 
ENDBRANCH   8   9
BRANCH   8  11
ATOM     11  C   LIG d   1       2.291  84.680 114.926  0.00  0.00     0.028 C 
ATOM     12  C   LIG d   1       3.792  84.353 114.867  0.00  0.00     0.006 C 
ENDBRANCH   8  11
ENDBRANCH   7   8
ENDBRANCH   1   7
BRANCH   6  13
ATOM     13  N   LIG d   1      -1.222  80.611 114.419  0.00  0.00    -0.311 N 
ATOM     14  C   LIG d   1      -2.548  80.682 114.532  0.00  0.00     0.210 C 
ATOM     15  C   LIG d   1      -3.116  80.126 115.841  0.00  0.00     0.109 C 
ATOM     16  O   LIG d   1      -3.309  81.124 113.659  0.00  0.00    -0.276 OA
ATOM     17  H   LIG d   1      -0.685  80.208 115.162  0.00  0.00     0.149 HD
ENDBRANCH   6  13
BRANCH   5  18
ATOM     18  N   LIG d   1      -1.404  79.427 111.608  0.00  0.00     0.381 N 
ATOM     19  H   LIG d   1      -1.175  78.951 110.759  0.00  0.00    -0.090 HD
ATOM     20  H   LIG d   1      -2.037  80.176 111.389  0.00  0.00    -0.090 HD
ATOM     21  H   LIG d   1      -1.835  78.795 112.246  0.00  0.00    -0.090 HD
ENDBRANCH   5  18
BRANCH   3  22
ATOM     22  C   LIG d   1       2.920  81.278 110.708  0.00  0.00     0.382 C 
ATOM     23  O   LIG d   1       2.909  81.936 109.640  0.00  0.00    -0.241 OA
ATOM     24  O   LIG d   1       3.928  80.609 111.006  0.00  0.00    -0.241 OA
ENDBRANCH   3  22
TORSDOF 7
ENDMDL
