MODEL 1
REMARK VINA RESULT:      -5.3      0.000      0.000
REMARK  7 active torsions:
REMARK  status: ('A' for Active; 'I' for Inactive)
REMARK    1  A    between atoms: C_2  and  C_3 
REMARK    2  A    between atoms: C_3  and  O_6 
REMARK    3  A    between atoms: C_3  and  C_4 
REMARK    4  A    between atoms: C_7  and  O_6 
REMARK    5  A    between atoms: C_9  and  C_10 
REMARK    6  A    between atoms: N_15  and  C_14 
REMARK    7  A    between atoms: N_20  and  C_19 
REMARK       I    between atoms: C_22  and  N_20 
ROOT
ATOM      1  C   LIG d   1       1.124  81.181 112.889  0.00  0.00     0.161 C 
ATOM      2  C   LIG d   1       2.225  81.885 112.373  0.00  0.00     0.016 C 
ATOM      3  C   LIG d   1       2.482  82.021 110.990  0.00  0.00     0.038 C 
ATOM      4  C   LIG d   1       1.566  81.588 110.019  0.00  0.00     0.028 C 
ATOM      5  C   LIG d   1       0.692  80.429 110.485  0.00  0.00    -0.047 C 
ATOM      6  C   LIG d   1       0.055  80.796 111.845  0.00  0.00     0.091 C 
ENDROOT
BRANCH   1   7
ATOM      7  O   LIG d   1       0.526  81.929 113.966  0.00  0.00    -0.368 OA
BRANCH   7   8
ATOM      8  C   LIG d   1       0.540  81.294 115.268  0.00  0.00     0.119 C 
BRANCH   8   9
ATOM      9  C   LIG d   1      -0.885  81.394 115.846  0.00  0.00     0.028 C 
ATOM     10  C   LIG d   1      -0.890  81.798 117.330  0.00  0.00     0.006 C 
ENDBRANCH   8   9
BRANCH   8  11
ATOM     11  C   LIG d   1       1.431  82.059 116.252  0.00  0.00     0.028 C 
ATOM     12  C   LIG d   1       2.744  81.322 116.562  0.00  0.00     0.006 C 
ENDBRANCH   8  11
ENDBRANCH   7   8
ENDBRANCH   1   7
BRANCH   6  13
ATOM     13  N   LIG d   1      -0.750  79.683 112.413  0.00  0.00    -0.311 N 
ATOM     14  C   LIG d   1      -2.055  79.775 112.662  0.00  0.00     0.210 C 
ATOM     15  C   LIG d   1      -2.687  78.517 113.267  0.00  0.00     0.109 C 
ATOM     16  O   LIG d   1      -2.755  80.767 112.409  0.00  0.00    -0.276 OA
ATOM     17  H   LIG d   1      -0.267  78.831 112.619  0.00  0.00     0.149 HD
ENDBRANCH   6  13
BRANCH   5  18
ATOM     18  N   LIG d   1      -0.306  80.170 109.430  0.00  0.00     0.381 N 
ATOM     19  H   LIG d   1      -0.238  80.873 108.721  0.00  0.00    -0.090 HD
ATOM     20  H   LIG d   1      -1.225  80.217 109.833  0.00  0.00    -0.090 HD
ATOM     21  H   LIG d   1      -0.155  79.270 109.032  0.00  0.00    -0.090 HD
ENDBRANCH   5  18
BRANCH   3  22
ATOM     22  C   LIG d   1       3.686  82.562 110.564  0.00  0.00     0.382 C 
ATOM     23  O   LIG d   1       4.240  83.464 111.237  0.00  0.00    -0.241 OA
ATOM     24  O   LIG d   1       4.202  82.190 109.494  0.00  0.00    -0.241 OA
ENDBRANCH   3  22
TORSDOF 7
ENDMDL
MODEL 2
REMARK VINA RESULT:      -5.3      3.365      4.561
REMARK  7 active torsions:
REMARK  status: ('A' for Active; 'I' for Inactive)
REMARK    1  A    between atoms: C_2  and  C_3 
REMARK    2  A    between atoms: C_3  and  O_6 
REMARK    3  A    between atoms: C_3  and  C_4 
REMARK    4  A    between atoms: C_7  and  O_6 
REMARK    5  A    between atoms: C_9  and  C_10 
REMARK    6  A    between atoms: N_15  and  C_14 
REMARK    7  A    between atoms: N_20  and  C_19 
REMARK       I    between atoms: C_22  and  N_20 
ROOT
ATOM      1  C   LIG d   1      -2.689  80.018 114.777  0.00  0.00     0.161 C 
ATOM      2  C   LIG d   1      -2.216  81.158 114.106  0.00  0.00     0.016 C 
ATOM      3  C   LIG d   1      -1.573  81.109 112.848  0.00  0.00     0.038 C 
ATOM      4  C   LIG d   1      -1.494  79.925 112.101  0.00  0.00     0.028 C 
ATOM      5  C   LIG d   1      -1.509  78.665 112.959  0.00  0.00    -0.047 C 
ATOM      6  C   LIG d   1      -2.712  78.730 113.927  0.00  0.00     0.091 C 
ENDROOT
BRANCH   1   7
ATOM      7  O   LIG d   1      -3.997  80.280 115.324  0.00  0.00    -0.368 OA
BRANCH   7   8
ATOM      8  C   LIG d   1      -4.073  80.400 116.765  0.00  0.00     0.119 C 
BRANCH   8   9
ATOM      9  C   LIG d   1      -4.226  81.896 117.099  0.00  0.00     0.028 C 
ATOM     10  C   LIG d   1      -3.073  82.424 117.969  0.00  0.00     0.006 C 
ENDBRANCH   8   9
BRANCH   8  11
ATOM     11  C   LIG d   1      -2.762  79.968 117.430  0.00  0.00     0.028 C 
ATOM     12  C   LIG d   1      -2.923  78.715 118.306  0.00  0.00     0.006 C 
ENDBRANCH   8  11
ENDBRANCH   7   8
ENDBRANCH   1   7
BRANCH   6  13
ATOM     13  N   LIG d   1      -2.752  77.575 114.861  0.00  0.00    -0.311 N 
ATOM     14  C   LIG d   1      -3.445  76.463 114.623  0.00  0.00     0.210 C 
ATOM     15  C   LIG d   1      -3.366  75.403 115.726  0.00  0.00     0.109 C 
ATOM     16  O   LIG d   1      -4.092  76.241 113.588  0.00  0.00    -0.276 OA
ATOM     17  H   LIG d   1      -2.230  77.658 115.711  0.00  0.00     0.149 HD
ENDBRANCH   6  13
BRANCH   5  18
ATOM     18  N   LIG d   1      -1.561  77.505 112.049  0.00  0.00     0.381 N 
ATOM     19  H   LIG d   1      -1.991  76.730 112.512  0.00  0.00    -0.090 HD
ATOM     20  H   LIG d   1      -0.623  77.244 111.800  0.00  0.00    -0.090 HD
ATOM     21  H   LIG d   1      -2.077  77.739 111.229  0.00  0.00    -0.090 HD
ENDBRANCH   5  18
BRANCH   3  22
ATOM     22  C   LIG d   1      -0.964  82.248 112.343  0.00  0.00     0.382 C 
ATOM     23  O   LIG d   1      -1.460  82.838 111.353  0.00  0.00    -0.241 OA
ATOM     24  O   LIG d   1       0.099  82.668 112.838  0.00  0.00    -0.241 OA
ENDBRANCH   3  22
TORSDOF 7
ENDMDL
MODEL 3
REMARK VINA RESULT:      -5.2      2.510      6.034
REMARK  7 active torsions:
REMARK  status: ('A' for Active; 'I' for Inactive)
REMARK    1  A    between atoms: C_2  and  C_3 
REMARK    2  A    between atoms: C_3  and  O_6 
REMARK    3  A    between atoms: C_3  and  C_4 
REMARK    4  A    between atoms: C_7  and  O_6 
REMARK    5  A    between atoms: C_9  and  C_10 
REMARK    6  A    between atoms: N_15  and  C_14 
REMARK    7  A    between atoms: N_20  and  C_19 
REMARK       I    between atoms: C_22  and  N_20 
ROOT
ATOM      1  C   LIG d   1       0.735  81.283 113.407  0.00  0.00     0.161 C 
ATOM      2  C   LIG d   1      -0.592  81.306 112.948  0.00  0.00     0.016 C 
ATOM      3  C   LIG d   1      -1.690  80.857 113.718  0.00  0.00     0.038 C 
ATOM      4  C   LIG d   1      -1.551  80.494 115.066  0.00  0.00     0.028 C 
ATOM      5  C   LIG d   1      -0.159  79.977 115.413  0.00  0.00    -0.047 C 
ATOM      6  C   LIG d   1       0.893  80.994 114.914  0.00  0.00     0.091 C 
ENDROOT
BRANCH   1   7
ATOM      7  O   LIG d   1       1.393  82.518 113.062  0.00  0.00    -0.368 OA
BRANCH   7   8
ATOM      8  C   LIG d   1       1.919  82.606 111.715  0.00  0.00     0.119 C 
BRANCH   8   9
ATOM      9  C   LIG d   1       2.815  81.373 111.486  0.00  0.00     0.028 C 
ATOM     10  C   LIG d   1       2.597  80.738 110.103  0.00  0.00     0.006 C 
ENDBRANCH   8   9
BRANCH   8  11
ATOM     11  C   LIG d   1       2.844  83.815 111.556  0.00  0.00     0.028 C 
ATOM     12  C   LIG d   1       2.591  84.592 110.254  0.00  0.00     0.006 C 
ENDBRANCH   8  11
ENDBRANCH   7   8
ENDBRANCH   1   7
BRANCH   6  13
ATOM     13  N   LIG d   1       2.286  80.525 115.139  0.00  0.00    -0.311 N 
ATOM     14  C   LIG d   1       2.988  80.810 116.234  0.00  0.00     0.210 C 
ATOM     15  C   LIG d   1       4.411  80.245 116.256  0.00  0.00     0.109 C 
ATOM     16  O   LIG d   1       2.555  81.451 117.204  0.00  0.00    -0.276 OA
ATOM     17  H   LIG d   1       2.703  79.973 114.416  0.00  0.00     0.149 HD
ENDBRANCH   6  13
BRANCH   5  18
ATOM     18  N   LIG d   1      -0.113  79.766 116.872  0.00  0.00     0.381 N 
ATOM     19  H   LIG d   1      -0.475  80.571 117.342  0.00  0.00    -0.090 HD
ATOM     20  H   LIG d   1       0.844  79.641 117.153  0.00  0.00    -0.090 HD
ATOM     21  H   LIG d   1      -0.646  78.961 117.117  0.00  0.00    -0.090 HD
ENDBRANCH   5  18
BRANCH   3  22
ATOM     22  C   LIG d   1      -2.938  80.732 113.128  0.00  0.00     0.382 C 
ATOM     23  O   LIG d   1      -3.513  79.617 113.109  0.00  0.00    -0.241 OA
ATOM     24  O   LIG d   1      -3.476  81.709 112.574  0.00  0.00    -0.241 OA
ENDBRANCH   3  22
TORSDOF 7
ENDMDL
MODEL 4
REMARK VINA RESULT:      -5.1      1.457      4.742
REMARK  7 active torsions:
REMARK  status: ('A' for Active; 'I' for Inactive)
REMARK    1  A    between atoms: C_2  and  C_3 
REMARK    2  A    between atoms: C_3  and  O_6 
REMARK    3  A    between atoms: C_3  and  C_4 
REMARK    4  A    between atoms: C_7  and  O_6 
REMARK    5  A    between atoms: C_9  and  C_10 
REMARK    6  A    between atoms: N_15  and  C_14 
REMARK    7  A    between atoms: N_20  and  C_19 
REMARK       I    between atoms: C_22  and  N_20 
ROOT
ATOM      1  C   LIG d   1       0.086  81.898 112.824  0.00  0.00     0.161 C 
ATOM      2  C   LIG d   1      -1.099  81.309 113.295  0.00  0.00     0.016 C 
ATOM      3  C   LIG d   1      -1.679  80.156 112.718  0.00  0.00     0.038 C 
ATOM      4  C   LIG d   1      -1.026  79.420 111.718  0.00  0.00     0.028 C 
ATOM      5  C   LIG d   1      -0.077  80.260 110.869  0.00  0.00    -0.047 C 
ATOM      6  C   LIG d   1       0.871  81.045 111.805  0.00  0.00     0.091 C 
ENDROOT
BRANCH   1   7
ATOM      7  O   LIG d   1       0.931  82.252 113.936  0.00  0.00    -0.368 OA
BRANCH   7   8
ATOM      8  C   LIG d   1       1.115  81.232 114.948  0.00  0.00     0.119 C 
BRANCH   8   9
ATOM      9  C   LIG d   1       0.542  81.782 116.269  0.00  0.00     0.028 C 
ATOM     10  C   LIG d   1      -0.470  80.822 116.915  0.00  0.00     0.006 C 
ENDBRANCH   8   9
BRANCH   8  11
ATOM     11  C   LIG d   1       2.600  80.981 115.224  0.00  0.00     0.028 C 
ATOM     12  C   LIG d   1       3.151  81.855 116.361  0.00  0.00     0.006 C 
ENDBRANCH   8  11
ENDBRANCH   7   8
ENDBRANCH   1   7
BRANCH   6  13
ATOM     13  N   LIG d   1       1.777  81.956 111.059  0.00  0.00    -0.311 N 
ATOM     14  C   LIG d   1       3.105  81.909 111.154  0.00  0.00     0.210 C 
ATOM     15  C   LIG d   1       3.850  82.952 110.315  0.00  0.00     0.109 C 
ATOM     16  O   LIG d   1       3.737  81.082 111.828  0.00  0.00    -0.276 OA
ATOM     17  H   LIG d   1       1.349  82.638 110.464  0.00  0.00     0.149 HD
ENDBRANCH   6  13
BRANCH   5  18
ATOM     18  N   LIG d   1       0.637  79.343 109.960  0.00  0.00     0.381 N 
ATOM     19  H   LIG d   1       0.417  78.396 110.193  0.00  0.00    -0.090 HD
ATOM     20  H   LIG d   1       1.626  79.476 110.076  0.00  0.00    -0.090 HD
ATOM     21  H   LIG d   1       0.378  79.530 109.016  0.00  0.00    -0.090 HD
ENDBRANCH   5  18
BRANCH   3  22
ATOM     22  C   LIG d   1      -2.944  79.751 113.114  0.00  0.00     0.382 C 
ATOM     23  O   LIG d   1      -3.437  78.694 112.652  0.00  0.00    -0.241 OA
ATOM     24  O   LIG d   1      -3.617  80.452 113.893  0.00  0.00    -0.241 OA
ENDBRANCH   3  22
TORSDOF 7
ENDMDL
MODEL 5
REMARK VINA RESULT:      -5.1      2.513      6.054
REMARK  7 active torsions:
REMARK  status: ('A' for Active; 'I' for Inactive)
REMARK    1  A    between atoms: C_2  and  C_3 
REMARK    2  A    between atoms: C_3  and  O_6 
REMARK    3  A    between atoms: C_3  and  C_4 
REMARK    4  A    between atoms: C_7  and  O_6 
REMARK    5  A    between atoms: C_9  and  C_10 
REMARK    6  A    between atoms: N_15  and  C_14 
REMARK    7  A    between atoms: N_20  and  C_19 
REMARK       I    between atoms: C_22  and  N_20 
ROOT
ATOM      1  C   LIG d   1      -0.498  80.055 112.422  0.00  0.00     0.161 C 
ATOM      2  C   LIG d   1      -1.519  79.280 111.847  0.00  0.00     0.016 C 
ATOM      3  C   LIG d   1      -2.382  78.450 112.597  0.00  0.00     0.038 C 
ATOM      4  C   LIG d   1      -2.381  78.454 114.000  0.00  0.00     0.028 C 
ATOM      5  C   LIG d   1      -1.034  78.836 114.603  0.00  0.00    -0.047 C 
ATOM      6  C   LIG d   1      -0.553  80.157 113.961  0.00  0.00     0.091 C 
ENDROOT
BRANCH   1   7
ATOM      7  O   LIG d   1      -0.490  81.370 111.832  0.00  0.00    -0.368 OA
BRANCH   7   8
ATOM      8  C   LIG d   1       0.272  81.516 110.609  0.00  0.00     0.119 C 
BRANCH   8   9
ATOM      9  C   LIG d   1       1.677  80.937 110.867  0.00  0.00     0.028 C 
ATOM     10  C   LIG d   1       2.613  81.952 111.544  0.00  0.00     0.006 C 
ENDBRANCH   8   9
BRANCH   8  11
ATOM     11  C   LIG d   1       0.497  82.991 110.265  0.00  0.00     0.028 C 
ATOM     12  C   LIG d   1      -0.600  83.908 110.828  0.00  0.00     0.006 C 
ENDBRANCH   8  11
ENDBRANCH   7   8
ENDBRANCH   1   7
BRANCH   6  13
ATOM     13  N   LIG d   1       0.797  80.559 114.434  0.00  0.00    -0.311 N 
ATOM     14  C   LIG d   1       0.999  81.379 115.464  0.00  0.00     0.210 C 
ATOM     15  C   LIG d   1       2.469  81.679 115.773  0.00  0.00     0.109 C 
ATOM     16  O   LIG d   1       0.102  81.860 116.171  0.00  0.00    -0.276 OA
ATOM     17  H   LIG d   1       1.583  80.190 113.936  0.00  0.00     0.149 HD
ENDBRANCH   6  13
BRANCH   5  18
ATOM     18  N   LIG d   1      -1.212  78.935 116.064  0.00  0.00     0.381 N 
ATOM     19  H   LIG d   1      -2.185  79.011 116.283  0.00  0.00    -0.090 HD
ATOM     20  H   LIG d   1      -0.749  79.764 116.393  0.00  0.00    -0.090 HD
ATOM     21  H   LIG d   1      -0.826  78.131 116.510  0.00  0.00    -0.090 HD
ENDBRANCH   5  18
BRANCH   3  22
ATOM     22  C   LIG d   1      -3.234  77.573 111.942  0.00  0.00     0.382 C 
ATOM     23  O   LIG d   1      -4.235  77.108 112.538  0.00  0.00    -0.241 OA
ATOM     24  O   LIG d   1      -2.989  77.207 110.776  0.00  0.00    -0.241 OA
ENDBRANCH   3  22
TORSDOF 7
ENDMDL
MODEL 6
REMARK VINA RESULT:      -5.0      3.312      5.381
REMARK  7 active torsions:
REMARK  status: ('A' for Active; 'I' for Inactive)
REMARK    1  A    between atoms: C_2  and  C_3 
REMARK    2  A    between atoms: C_3  and  O_6 
REMARK    3  A    between atoms: C_3  and  C_4 
REMARK    4  A    between atoms: C_7  and  O_6 
REMARK    5  A    between atoms: C_9  and  C_10 
REMARK    6  A    between atoms: N_15  and  C_14 
REMARK    7  A    between atoms: N_20  and  C_19 
REMARK       I    between atoms: C_22  and  N_20 
ROOT
ATOM      1  C   LIG d   1      -2.819  80.478 114.184  0.00  0.00     0.161 C 
ATOM      2  C   LIG d   1      -2.386  81.250 113.094  0.00  0.00     0.016 C 
ATOM      3  C   LIG d   1      -1.114  81.865 113.032  0.00  0.00     0.038 C 
ATOM      4  C   LIG d   1      -0.126  81.622 113.998  0.00  0.00     0.028 C 
ATOM      5  C   LIG d   1      -0.692  81.257 115.366  0.00  0.00    -0.047 C 
ATOM      6  C   LIG d   1      -1.714  80.110 115.196  0.00  0.00     0.091 C 
ENDROOT
BRANCH   1   7
ATOM      7  O   LIG d   1      -3.479  79.288 113.708  0.00  0.00    -0.368 OA
BRANCH   7   8
ATOM      8  C   LIG d   1      -2.614  78.221 113.247  0.00  0.00     0.119 C 
BRANCH   8   9
ATOM      9  C   LIG d   1      -3.069  77.839 111.825  0.00  0.00     0.028 C 
ATOM     10  C   LIG d   1      -1.902  77.814 110.823  0.00  0.00     0.006 C 
ENDBRANCH   8   9
BRANCH   8  11
ATOM     11  C   LIG d   1      -2.798  76.952 114.085  0.00  0.00     0.028 C 
ATOM     12  C   LIG d   1      -1.474  76.222 114.360  0.00  0.00     0.006 C 
ENDBRANCH   8  11
ENDBRANCH   7   8
ENDBRANCH   1   7
BRANCH   6  13
ATOM     13  N   LIG d   1      -2.378  79.748 116.476  0.00  0.00    -0.311 N 
ATOM     14  C   LIG d   1      -1.924  78.801 117.295  0.00  0.00     0.210 C 
ATOM     15  C   LIG d   1      -2.770  78.574 118.552  0.00  0.00     0.109 C 
ATOM     16  O   LIG d   1      -0.884  78.149 117.116  0.00  0.00    -0.276 OA
ATOM     17  H   LIG d   1      -3.211  80.249 116.715  0.00  0.00     0.149 HD
ENDBRANCH   6  13
BRANCH   5  18
ATOM     18  N   LIG d   1       0.443  80.896 116.236  0.00  0.00     0.381 N 
ATOM     19  H   LIG d   1       0.228  81.125 117.186  0.00  0.00    -0.090 HD
ATOM     20  H   LIG d   1       1.248  81.429 115.958  0.00  0.00    -0.090 HD
ATOM     21  H   LIG d   1       0.637  79.922 116.157  0.00  0.00    -0.090 HD
ENDBRANCH   5  18
BRANCH   3  22
ATOM     22  C   LIG d   1      -0.835  82.766 112.016  0.00  0.00     0.382 C 
ATOM     23  O   LIG d   1       0.076  83.616 112.164  0.00  0.00    -0.241 OA
ATOM     24  O   LIG d   1      -1.511  82.768 110.970  0.00  0.00    -0.241 OA
ENDBRANCH   3  22
TORSDOF 7
ENDMDL
MODEL 7
REMARK VINA RESULT:      -4.7      2.052      5.134
REMARK  7 active torsions:
REMARK  status: ('A' for Active; 'I' for Inactive)
REMARK    1  A    between atoms: C_2  and  C_3 
REMARK    2  A    between atoms: C_3  and  O_6 
REMARK    3  A    between atoms: C_3  and  C_4 
REMARK    4  A    between atoms: C_7  and  O_6 
REMARK    5  A    between atoms: C_9  and  C_10 
REMARK    6  A    between atoms: N_15  and  C_14 
REMARK    7  A    between atoms: N_20  and  C_19 
REMARK       I    between atoms: C_22  and  N_20 
ROOT
ATOM      1  C   LIG d   1       0.478  81.745 114.234  0.00  0.00     0.161 C 
ATOM      2  C   LIG d   1      -0.733  81.220 114.717  0.00  0.00     0.016 C 
ATOM      3  C   LIG d   1      -1.925  81.190 113.959  0.00  0.00     0.038 C 
ATOM      4  C   LIG d   1      -1.951  81.547 112.603  0.00  0.00     0.028 C 
ATOM      5  C   LIG d   1      -0.872  82.555 112.221  0.00  0.00    -0.047 C 
ATOM      6  C   LIG d   1       0.497  82.037 112.719  0.00  0.00     0.091 C 
ENDROOT
BRANCH   1   7
ATOM      7  O   LIG d   1       1.566  80.870 114.590  0.00  0.00    -0.368 OA
BRANCH   7   8
ATOM      8  C   LIG d   1       2.520  81.395 115.545  0.00  0.00     0.119 C 
BRANCH   8   9
ATOM      9  C   LIG d   1       3.114  80.197 116.312  0.00  0.00     0.028 C 
ATOM     10  C   LIG d   1       2.092  79.538 117.254  0.00  0.00     0.006 C 
ENDBRANCH   8   9
BRANCH   8  11
ATOM     11  C   LIG d   1       1.829  82.254 116.608  0.00  0.00     0.028 C 
ATOM     12  C   LIG d   1       2.737  83.367 117.157  0.00  0.00     0.006 C 
ENDBRANCH   8  11
ENDBRANCH   7   8
ENDBRANCH   1   7
BRANCH   6  13
ATOM     13  N   LIG d   1       1.596  83.004 112.462  0.00  0.00    -0.311 N 
ATOM     14  C   LIG d   1       2.353  82.978 111.366  0.00  0.00     0.210 C 
ATOM     15  C   LIG d   1       3.444  84.052 111.308  0.00  0.00     0.109 C 
ATOM     16  O   LIG d   1       2.204  82.187 110.422  0.00  0.00    -0.276 OA
ATOM     17  H   LIG d   1       1.766  83.699 113.162  0.00  0.00     0.149 HD
ENDBRANCH   6  13
BRANCH   5  18
ATOM     18  N   LIG d   1      -0.925  82.733 110.758  0.00  0.00     0.381 N 
ATOM     19  H   LIG d   1      -1.828  82.469 110.417  0.00  0.00    -0.090 HD
ATOM     20  H   LIG d   1      -0.240  82.134 110.333  0.00  0.00    -0.090 HD
ATOM     21  H   LIG d   1      -0.738  83.683 110.523  0.00  0.00    -0.090 HD
ENDBRANCH   5  18
BRANCH   3  22
ATOM     22  C   LIG d   1      -3.119  80.836 114.569  0.00  0.00     0.382 C 
ATOM     23  O   LIG d   1      -3.503  79.642 114.550  0.00  0.00    -0.241 OA
ATOM     24  O   LIG d   1      -3.839  81.703 115.100  0.00  0.00    -0.241 OA
ENDBRANCH   3  22
TORSDOF 7
ENDMDL
MODEL 8
REMARK VINA RESULT:      -4.5      1.578      2.170
REMARK  7 active torsions:
REMARK  status: ('A' for Active; 'I' for Inactive)
REMARK    1  A    between atoms: C_2  and  C_3 
REMARK    2  A    between atoms: C_3  and  O_6 
REMARK    3  A    between atoms: C_3  and  C_4 
REMARK    4  A    between atoms: C_7  and  O_6 
REMARK    5  A    between atoms: C_9  and  C_10 
REMARK    6  A    between atoms: N_15  and  C_14 
REMARK    7  A    between atoms: N_20  and  C_19 
REMARK       I    between atoms: C_22  and  N_20 
ROOT
ATOM      1  C   LIG d   1       0.296  80.922 113.907  0.00  0.00     0.161 C 
ATOM      2  C   LIG d   1       1.011  82.008 113.376  0.00  0.00     0.016 C 
ATOM      3  C   LIG d   1       1.139  82.254 111.990  0.00  0.00     0.038 C 
ATOM      4  C   LIG d   1       0.429  81.509 111.036  0.00  0.00     0.028 C 
ATOM      5  C   LIG d   1       0.098  80.094 111.497  0.00  0.00    -0.047 C 
ATOM      6  C   LIG d   1      -0.578  80.163 112.886  0.00  0.00     0.091 C 
ENDROOT
BRANCH   1   7
ATOM      7  O   LIG d   1      -0.504  81.362 115.022  0.00  0.00    -0.368 OA
BRANCH   7   8
ATOM      8  C   LIG d   1      -0.006  81.018 116.338  0.00  0.00     0.119 C 
BRANCH   8   9
ATOM      9  C   LIG d   1      -0.901  79.894 116.893  0.00  0.00     0.028 C 
ATOM     10  C   LIG d   1      -0.152  78.557 117.023  0.00  0.00     0.006 C 
ENDBRANCH   8   9
BRANCH   8  11
ATOM     11  C   LIG d   1      -0.167  82.185 117.317  0.00  0.00     0.028 C 
ATOM     12  C   LIG d   1      -1.599  82.315 117.859  0.00  0.00     0.006 C 
ENDBRANCH   8  11
ENDBRANCH   7   8
ENDBRANCH   1   7
BRANCH   6  13
ATOM     13  N   LIG d   1      -0.859  78.816 113.448  0.00  0.00    -0.311 N 
ATOM     14  C   LIG d   1      -2.084  78.302 113.542  0.00  0.00     0.210 C 
ATOM     15  C   LIG d   1      -2.153  76.907 114.170  0.00  0.00     0.109 C 
ATOM     16  O   LIG d   1      -3.117  78.856 113.135  0.00  0.00    -0.276 OA
ATOM     17  H   LIG d   1      -0.075  78.285 113.773  0.00  0.00     0.149 HD
ENDBRANCH   6  13
BRANCH   5  18
ATOM     18  N   LIG d   1      -0.760  79.479 110.467  0.00  0.00     0.381 N 
ATOM     19  H   LIG d   1      -1.490  80.113 110.211  0.00  0.00    -0.090 HD
ATOM     20  H   LIG d   1      -1.182  78.650 110.847  0.00  0.00    -0.090 HD
ATOM     21  H   LIG d   1      -0.216  79.246 109.665  0.00  0.00    -0.090 HD
ENDBRANCH   5  18
BRANCH   3  22
ATOM     22  C   LIG d   1       2.018  83.229 111.543  0.00  0.00     0.382 C 
ATOM     23  O   LIG d   1       2.395  83.232 110.346  0.00  0.00    -0.241 OA
ATOM     24  O   LIG d   1       2.472  84.079 112.331  0.00  0.00    -0.241 OA
ENDBRANCH   3  22
TORSDOF 7
ENDMDL
MODEL 9
REMARK VINA RESULT:      -4.5      1.763      2.375
REMARK  7 active torsions:
REMARK  status: ('A' for Active; 'I' for Inactive)
REMARK    1  A    between atoms: C_2  and  C_3 
REMARK    2  A    between atoms: C_3  and  O_6 
REMARK    3  A    between atoms: C_3  and  C_4 
REMARK    4  A    between atoms: C_7  and  O_6 
REMARK    5  A    between atoms: C_9  and  C_10 
REMARK    6  A    between atoms: N_15  and  C_14 
REMARK    7  A    between atoms: N_20  and  C_19 
REMARK       I    between atoms: C_22  and  N_20 
ROOT
ATOM      1  C   LIG d   1       0.493  80.924 114.709  0.00  0.00     0.161 C 
ATOM      2  C   LIG d   1       1.464  81.273 113.756  0.00  0.00     0.016 C 
ATOM      3  C   LIG d   1       1.290  81.091 112.365  0.00  0.00     0.038 C 
ATOM      4  C   LIG d   1       0.063  80.685 111.818  0.00  0.00     0.028 C 
ATOM      5  C   LIG d   1      -0.776  79.842 112.773  0.00  0.00    -0.047 C 
ATOM      6  C   LIG d   1      -0.894  80.583 114.125  0.00  0.00     0.091 C 
ENDROOT
BRANCH   1   7
ATOM      7  O   LIG d   1       0.378  81.969 115.695  0.00  0.00    -0.368 OA
BRANCH   7   8
ATOM      8  C   LIG d   1       1.143  81.784 116.912  0.00  0.00     0.119 C 
BRANCH   8   9
ATOM      9  C   LIG d   1       0.177  81.973 118.098  0.00  0.00     0.028 C 
ATOM     10  C   LIG d   1      -1.241  82.359 117.645  0.00  0.00     0.006 C 
ENDBRANCH   8   9
BRANCH   8  11
ATOM     11  C   LIG d   1       2.203  82.877 117.075  0.00  0.00     0.028 C 
ATOM     12  C   LIG d   1       3.627  82.372 116.792  0.00  0.00     0.006 C 
ENDBRANCH   8  11
ENDBRANCH   7   8
ENDBRANCH   1   7
BRANCH   6  13
ATOM     13  N   LIG d   1      -1.628  79.789 115.144  0.00  0.00    -0.311 N 
ATOM     14  C   LIG d   1      -2.946  79.868 115.325  0.00  0.00     0.210 C 
ATOM     15  C   LIG d   1      -3.499  78.979 116.443  0.00  0.00     0.109 C 
ATOM     16  O   LIG d   1      -3.712  80.567 114.645  0.00  0.00    -0.276 OA
ATOM     17  H   LIG d   1      -1.088  79.173 115.719  0.00  0.00     0.149 HD
ENDBRANCH   6  13
BRANCH   5  18
ATOM     18  N   LIG d   1      -2.081  79.605 112.128  0.00  0.00     0.381 N 
ATOM     19  H   LIG d   1      -2.031  79.852 111.160  0.00  0.00    -0.090 HD
ATOM     20  H   LIG d   1      -2.771  80.189 112.567  0.00  0.00    -0.090 HD
ATOM     21  H   LIG d   1      -2.338  78.647 112.221  0.00  0.00    -0.090 HD
ENDBRANCH   5  18
BRANCH   3  22
ATOM     22  C   LIG d   1       2.363  81.279 111.507  0.00  0.00     0.382 C 
ATOM     23  O   LIG d   1       2.161  81.514 110.292  0.00  0.00    -0.241 OA
ATOM     24  O   LIG d   1       3.532  81.171 111.925  0.00  0.00    -0.241 OA
ENDBRANCH   3  22
TORSDOF 7
ENDMDL
