MODEL 1
REMARK VINA RESULT:      -5.5      0.000      0.000
REMARK  7 active torsions:
REMARK  status: ('A' for Active; 'I' for Inactive)
REMARK    1  A    between atoms: C_2  and  C_3 
REMARK    2  A    between atoms: C_3  and  O_6 
REMARK    3  A    between atoms: C_3  and  C_4 
REMARK    4  A    between atoms: C_7  and  O_6 
REMARK    5  A    between atoms: C_9  and  C_10 
REMARK    6  A    between atoms: N_15  and  C_14 
REMARK    7  A    between atoms: N_20  and  C_19 
REMARK       I    between atoms: C_22  and  N_20 
ROOT
ATOM      1  C   LIG d   1       1.329  81.304 112.517  0.00  0.00     0.161 C 
ATOM      2  C   LIG d   1       2.422  81.783 111.776  0.00  0.00     0.016 C 
ATOM      3  C   LIG d   1       2.507  81.692 110.367  0.00  0.00     0.038 C 
ATOM      4  C   LIG d   1       1.428  81.250 109.587  0.00  0.00     0.028 C 
ATOM      5  C   LIG d   1       0.501  80.289 110.323  0.00  0.00    -0.047 C 
ATOM      6  C   LIG d   1       0.095  80.920 111.675  0.00  0.00     0.091 C 
ENDROOT
BRANCH   1   7
ATOM      7  O   LIG d   1       0.967  82.265 113.528  0.00  0.00    -0.368 OA
BRANCH   7   8
ATOM      8  C   LIG d   1       1.255  83.652 113.222  0.00  0.00     0.119 C 
BRANCH   8   9
ATOM      9  C   LIG d   1       1.738  84.322 114.523  0.00  0.00     0.028 C 
ATOM     10  C   LIG d   1       2.047  83.300 115.630  0.00  0.00     0.006 C 
ENDBRANCH   8   9
BRANCH   8  11
ATOM     11  C   LIG d   1      -0.013  84.410 112.821  0.00  0.00     0.028 C 
ATOM     12  C   LIG d   1      -0.154  84.575 111.300  0.00  0.00     0.006 C 
ENDBRANCH   8  11
ENDBRANCH   7   8
ENDBRANCH   1   7
BRANCH   6  13
ATOM     13  N   LIG d   1      -0.744  80.009 112.496  0.00  0.00    -0.311 N 
ATOM     14  C   LIG d   1      -1.962  80.328 112.932  0.00  0.00     0.210 C 
ATOM     15  C   LIG d   1      -2.647  79.252 113.780  0.00  0.00     0.109 C 
ATOM     16  O   LIG d   1      -2.552  81.386 112.669  0.00  0.00    -0.276 OA
ATOM     17  H   LIG d   1      -0.355  79.117 112.730  0.00  0.00     0.149 HD
ENDBRANCH   6  13
BRANCH   5  18
ATOM     18  N   LIG d   1      -0.651  80.017 109.443  0.00  0.00     0.381 N 
ATOM     19  H   LIG d   1      -1.474  80.441 109.821  0.00  0.00    -0.090 HD
ATOM     20  H   LIG d   1      -0.799  79.024 109.399  0.00  0.00    -0.090 HD
ATOM     21  H   LIG d   1      -0.473  80.375 108.530  0.00  0.00    -0.090 HD
ENDBRANCH   5  18
BRANCH   3  22
ATOM     22  C   LIG d   1       3.695  82.009 109.728  0.00  0.00     0.382 C 
ATOM     23  O   LIG d   1       4.509  81.101 109.430  0.00  0.00    -0.241 OA
ATOM     24  O   LIG d   1       3.985  83.196 109.485  0.00  0.00    -0.241 OA
ENDBRANCH   3  22
TORSDOF 7
ENDMDL
MODEL 2
REMARK VINA RESULT:      -5.3      1.611      4.678
REMARK  7 active torsions:
REMARK  status: ('A' for Active; 'I' for Inactive)
REMARK    1  A    between atoms: C_2  and  C_3 
REMARK    2  A    between atoms: C_3  and  O_6 
REMARK    3  A    between atoms: C_3  and  C_4 
REMARK    4  A    between atoms: C_7  and  O_6 
REMARK    5  A    between atoms: C_9  and  C_10 
REMARK    6  A    between atoms: N_15  and  C_14 
REMARK    7  A    between atoms: N_20  and  C_19 
REMARK       I    between atoms: C_22  and  N_20 
ROOT
ATOM      1  C   LIG d   1       0.222  81.385 111.894  0.00  0.00     0.161 C 
ATOM      2  C   LIG d   1      -0.929  80.768 112.412  0.00  0.00     0.016 C 
ATOM      3  C   LIG d   1      -1.362  79.480 112.025  0.00  0.00     0.038 C 
ATOM      4  C   LIG d   1      -0.586  78.653 111.199  0.00  0.00     0.028 C 
ATOM      5  C   LIG d   1       0.328  79.427 110.255  0.00  0.00    -0.047 C 
ATOM      6  C   LIG d   1       1.141  80.455 111.075  0.00  0.00     0.091 C 
ENDROOT
BRANCH   1   7
ATOM      7  O   LIG d   1       0.963  82.011 112.959  0.00  0.00    -0.368 OA
BRANCH   7   8
ATOM      8  C   LIG d   1       1.342  83.393 112.746  0.00  0.00     0.119 C 
BRANCH   8   9
ATOM      9  C   LIG d   1       1.549  84.036 114.131  0.00  0.00     0.028 C 
ATOM     10  C   LIG d   1       2.244  83.086 115.121  0.00  0.00     0.006 C 
ENDBRANCH   8   9
BRANCH   8  11
ATOM     11  C   LIG d   1       0.207  84.189 112.095  0.00  0.00     0.028 C 
ATOM     12  C   LIG d   1       0.557  84.679 110.681  0.00  0.00     0.006 C 
ENDBRANCH   8  11
ENDBRANCH   7   8
ENDBRANCH   1   7
BRANCH   6  13
ATOM     13  N   LIG d   1       2.000  81.312 110.217  0.00  0.00    -0.311 N 
ATOM     14  C   LIG d   1       3.307  81.477 110.420  0.00  0.00     0.210 C 
ATOM     15  C   LIG d   1       4.000  82.419 109.431  0.00  0.00     0.109 C 
ATOM     16  O   LIG d   1       3.963  80.907 111.304  0.00  0.00    -0.276 OA
ATOM     17  H   LIG d   1       1.555  81.788 109.457  0.00  0.00     0.149 HD
ENDBRANCH   6  13
BRANCH   5  18
ATOM     18  N   LIG d   1       1.177  78.446 109.553  0.00  0.00     0.381 N 
ATOM     19  H   LIG d   1       1.187  77.583 110.059  0.00  0.00    -0.090 HD
ATOM     20  H   LIG d   1       2.117  78.799 109.513  0.00  0.00    -0.090 HD
ATOM     21  H   LIG d   1       0.832  78.295 108.631  0.00  0.00    -0.090 HD
ENDBRANCH   5  18
BRANCH   3  22
ATOM     22  C   LIG d   1      -2.605  79.021 112.434  0.00  0.00     0.382 C 
ATOM     23  O   LIG d   1      -3.044  77.928 112.001  0.00  0.00    -0.241 OA
ATOM     24  O   LIG d   1      -3.312  79.707 113.196  0.00  0.00    -0.241 OA
ENDBRANCH   3  22
TORSDOF 7
ENDMDL
MODEL 3
REMARK VINA RESULT:      -5.2      1.770      5.096
REMARK  7 active torsions:
REMARK  status: ('A' for Active; 'I' for Inactive)
REMARK    1  A    between atoms: C_2  and  C_3 
REMARK    2  A    between atoms: C_3  and  O_6 
REMARK    3  A    between atoms: C_3  and  C_4 
REMARK    4  A    between atoms: C_7  and  O_6 
REMARK    5  A    between atoms: C_9  and  C_10 
REMARK    6  A    between atoms: N_15  and  C_14 
REMARK    7  A    between atoms: N_20  and  C_19 
REMARK       I    between atoms: C_22  and  N_20 
ROOT
ATOM      1  C   LIG d   1      -0.224  81.130 111.854  0.00  0.00     0.161 C 
ATOM      2  C   LIG d   1      -1.327  80.476 112.429  0.00  0.00     0.016 C 
ATOM      3  C   LIG d   1      -1.608  79.104 112.230  0.00  0.00     0.038 C 
ATOM      4  C   LIG d   1      -0.716  78.254 111.561  0.00  0.00     0.028 C 
ATOM      5  C   LIG d   1       0.154  78.974 110.536  0.00  0.00    -0.047 C 
ATOM      6  C   LIG d   1       0.821  80.194 111.213  0.00  0.00     0.091 C 
ENDROOT
BRANCH   1   7
ATOM      7  O   LIG d   1       0.401  81.984 112.833  0.00  0.00    -0.368 OA
BRANCH   7   8
ATOM      8  C   LIG d   1       0.117  83.400 112.718  0.00  0.00     0.119 C 
BRANCH   8   9
ATOM      9  C   LIG d   1      -0.344  83.663 111.271  0.00  0.00     0.028 C 
ATOM     10  C   LIG d   1       0.655  84.529 110.485  0.00  0.00     0.006 C 
ENDBRANCH   8   9
BRANCH   8  11
ATOM     11  C   LIG d   1       1.385  84.239 112.898  0.00  0.00     0.028 C 
ATOM     12  C   LIG d   1       2.036  84.046 114.277  0.00  0.00     0.006 C 
ENDBRANCH   8  11
ENDBRANCH   7   8
ENDBRANCH   1   7
BRANCH   6  13
ATOM     13  N   LIG d   1       1.623  81.002 110.258  0.00  0.00    -0.311 N 
ATOM     14  C   LIG d   1       2.823  81.503 110.550  0.00  0.00     0.210 C 
ATOM     15  C   LIG d   1       3.470  82.324 109.430  0.00  0.00     0.109 C 
ATOM     16  O   LIG d   1       3.426  81.318 111.617  0.00  0.00    -0.276 OA
ATOM     17  H   LIG d   1       1.223  81.175 109.357  0.00  0.00     0.149 HD
ENDBRANCH   6  13
BRANCH   5  18
ATOM     18  N   LIG d   1       1.130  77.997 110.015  0.00  0.00     0.381 N 
ATOM     19  H   LIG d   1       1.392  78.246 109.082  0.00  0.00    -0.090 HD
ATOM     20  H   LIG d   1       0.699  77.090 109.990  0.00  0.00    -0.090 HD
ATOM     21  H   LIG d   1       1.936  77.975 110.600  0.00  0.00    -0.090 HD
ENDBRANCH   5  18
BRANCH   3  22
ATOM     22  C   LIG d   1      -2.814  78.579 112.670  0.00  0.00     0.382 C 
ATOM     23  O   LIG d   1      -3.166  78.732 113.864  0.00  0.00    -0.241 OA
ATOM     24  O   LIG d   1      -3.533  77.917 111.898  0.00  0.00    -0.241 OA
ENDBRANCH   3  22
TORSDOF 7
ENDMDL
MODEL 4
REMARK VINA RESULT:      -4.7      1.806      2.189
REMARK  7 active torsions:
REMARK  status: ('A' for Active; 'I' for Inactive)
REMARK    1  A    between atoms: C_2  and  C_3 
REMARK    2  A    between atoms: C_3  and  O_6 
REMARK    3  A    between atoms: C_3  and  C_4 
REMARK    4  A    between atoms: C_7  and  O_6 
REMARK    5  A    between atoms: C_9  and  C_10 
REMARK    6  A    between atoms: N_15  and  C_14 
REMARK    7  A    between atoms: N_20  and  C_19 
REMARK       I    between atoms: C_22  and  N_20 
ROOT
ATOM      1  C   LIG d   1       0.084  80.666 112.282  0.00  0.00     0.161 C 
ATOM      2  C   LIG d   1       1.232  80.629 111.474  0.00  0.00     0.016 C 
ATOM      3  C   LIG d   1       1.375  79.765 110.363  0.00  0.00     0.038 C 
ATOM      4  C   LIG d   1       0.310  78.982 109.892  0.00  0.00     0.028 C 
ATOM      5  C   LIG d   1      -0.697  78.613 110.975  0.00  0.00    -0.047 C 
ATOM      6  C   LIG d   1      -1.130  79.899 111.717  0.00  0.00     0.091 C 
ENDROOT
BRANCH   1   7
ATOM      7  O   LIG d   1      -0.274  82.034 112.560  0.00  0.00    -0.368 OA
BRANCH   7   8
ATOM      8  C   LIG d   1       0.605  83.047 112.010  0.00  0.00     0.119 C 
BRANCH   8   9
ATOM      9  C   LIG d   1       0.830  84.108 113.105  0.00  0.00     0.028 C 
ATOM     10  C   LIG d   1       2.058  83.799 113.978  0.00  0.00     0.006 C 
ENDBRANCH   8   9
BRANCH   8  11
ATOM     11  C   LIG d   1      -0.063  83.794 110.852  0.00  0.00     0.028 C 
ATOM     12  C   LIG d   1       0.869  83.973 109.643  0.00  0.00     0.006 C 
ENDBRANCH   8  11
ENDBRANCH   7   8
ENDBRANCH   1   7
BRANCH   6  13
ATOM     13  N   LIG d   1      -2.051  79.618 112.848  0.00  0.00    -0.311 N 
ATOM     14  C   LIG d   1      -2.002  78.502 113.574  0.00  0.00     0.210 C 
ATOM     15  C   LIG d   1      -3.056  78.403 114.681  0.00  0.00     0.109 C 
ATOM     16  O   LIG d   1      -1.165  77.599 113.426  0.00  0.00    -0.276 OA
ATOM     17  H   LIG d   1      -2.742  80.312 113.057  0.00  0.00     0.149 HD
ENDBRANCH   6  13
BRANCH   5  18
ATOM     18  N   LIG d   1      -1.821  77.917 110.321  0.00  0.00     0.381 N 
ATOM     19  H   LIG d   1      -2.631  78.503 110.326  0.00  0.00    -0.090 HD
ATOM     20  H   LIG d   1      -2.032  77.082 110.839  0.00  0.00    -0.090 HD
ATOM     21  H   LIG d   1      -1.577  77.682 109.384  0.00  0.00    -0.090 HD
ENDBRANCH   5  18
BRANCH   3  22
ATOM     22  C   LIG d   1       2.606  79.650 109.736  0.00  0.00     0.382 C 
ATOM     23  O   LIG d   1       3.091  78.515 109.512  0.00  0.00    -0.241 OA
ATOM     24  O   LIG d   1       3.257  80.667 109.431  0.00  0.00    -0.241 OA
ENDBRANCH   3  22
TORSDOF 7
ENDMDL
MODEL 5
REMARK VINA RESULT:      -4.5      2.775      5.402
REMARK  7 active torsions:
REMARK  status: ('A' for Active; 'I' for Inactive)
REMARK    1  A    between atoms: C_2  and  C_3 
REMARK    2  A    between atoms: C_3  and  O_6 
REMARK    3  A    between atoms: C_3  and  C_4 
REMARK    4  A    between atoms: C_7  and  O_6 
REMARK    5  A    between atoms: C_9  and  C_10 
REMARK    6  A    between atoms: N_15  and  C_14 
REMARK    7  A    between atoms: N_20  and  C_19 
REMARK       I    between atoms: C_22  and  N_20 
ROOT
ATOM      1  C   LIG d   1       0.437  80.368 112.512  0.00  0.00     0.161 C 
ATOM      2  C   LIG d   1      -0.655  79.724 111.907  0.00  0.00     0.016 C 
ATOM      3  C   LIG d   1      -1.660  79.046 112.634  0.00  0.00     0.038 C 
ATOM      4  C   LIG d   1      -1.722  79.095 114.035  0.00  0.00     0.028 C 
ATOM      5  C   LIG d   1      -0.363  79.306 114.694  0.00  0.00    -0.047 C 
ATOM      6  C   LIG d   1       0.326  80.527 114.043  0.00  0.00     0.091 C 
ENDROOT
BRANCH   1   7
ATOM      7  O   LIG d   1       0.656  81.649 111.890  0.00  0.00    -0.368 OA
BRANCH   7   8
ATOM      8  C   LIG d   1       1.338  81.629 110.612  0.00  0.00     0.119 C 
BRANCH   8   9
ATOM      9  C   LIG d   1       2.760  81.089 110.854  0.00  0.00     0.028 C 
ATOM     10  C   LIG d   1       3.087  79.877 109.966  0.00  0.00     0.006 C 
ENDBRANCH   8   9
BRANCH   8  11
ATOM     11  C   LIG d   1       1.530  83.045 110.060  0.00  0.00     0.028 C 
ATOM     12  C   LIG d   1       2.967  83.562 110.235  0.00  0.00     0.006 C 
ENDBRANCH   8  11
ENDBRANCH   7   8
ENDBRANCH   1   7
BRANCH   6  13
ATOM     13  N   LIG d   1       1.697  80.753 114.572  0.00  0.00    -0.311 N 
ATOM     14  C   LIG d   1       1.952  81.474 115.662  0.00  0.00     0.210 C 
ATOM     15  C   LIG d   1       3.436  81.598 116.023  0.00  0.00     0.109 C 
ATOM     16  O   LIG d   1       1.089  81.997 116.383  0.00  0.00    -0.276 OA
ATOM     17  H   LIG d   1       2.455  80.338 114.066  0.00  0.00     0.149 HD
ENDBRANCH   6  13
BRANCH   5  18
ATOM     18  N   LIG d   1      -0.592  79.476 116.142  0.00  0.00     0.381 N 
ATOM     19  H   LIG d   1      -0.145  78.735 116.644  0.00  0.00    -0.090 HD
ATOM     20  H   LIG d   1      -1.579  79.429 116.322  0.00  0.00    -0.090 HD
ATOM     21  H   LIG d   1      -0.233  80.355 116.443  0.00  0.00    -0.090 HD
ENDBRANCH   5  18
BRANCH   3  22
ATOM     22  C   LIG d   1      -2.594  78.275 111.960  0.00  0.00     0.382 C 
ATOM     23  O   LIG d   1      -3.632  77.889 112.550  0.00  0.00    -0.241 OA
ATOM     24  O   LIG d   1      -2.392  77.923 110.783  0.00  0.00    -0.241 OA
ENDBRANCH   3  22
TORSDOF 7
ENDMDL
MODEL 6
REMARK VINA RESULT:      -4.4      2.223      4.951
REMARK  7 active torsions:
REMARK  status: ('A' for Active; 'I' for Inactive)
REMARK    1  A    between atoms: C_2  and  C_3 
REMARK    2  A    between atoms: C_3  and  O_6 
REMARK    3  A    between atoms: C_3  and  C_4 
REMARK    4  A    between atoms: C_7  and  O_6 
REMARK    5  A    between atoms: C_9  and  C_10 
REMARK    6  A    between atoms: N_15  and  C_14 
REMARK    7  A    between atoms: N_20  and  C_19 
REMARK       I    between atoms: C_22  and  N_20 
ROOT
ATOM      1  C   LIG d   1       0.008  81.338 112.172  0.00  0.00     0.161 C 
ATOM      2  C   LIG d   1      -0.957  80.327 112.311  0.00  0.00     0.016 C 
ATOM      3  C   LIG d   1      -0.942  79.129 111.561  0.00  0.00     0.038 C 
ATOM      4  C   LIG d   1       0.132  78.791 110.724  0.00  0.00     0.028 C 
ATOM      5  C   LIG d   1       0.874  80.003 110.173  0.00  0.00    -0.047 C 
ATOM      6  C   LIG d   1       1.248  80.939 111.345  0.00  0.00     0.091 C 
ENDROOT
BRANCH   1   7
ATOM      7  O   LIG d   1       0.406  81.815 113.473  0.00  0.00    -0.368 OA
BRANCH   7   8
ATOM      8  C   LIG d   1       1.489  81.096 114.112  0.00  0.00     0.119 C 
BRANCH   8   9
ATOM      9  C   LIG d   1       0.981  80.621 115.487  0.00  0.00     0.028 C 
ATOM     10  C   LIG d   1       0.029  79.418 115.378  0.00  0.00     0.006 C 
ENDBRANCH   8   9
BRANCH   8  11
ATOM     11  C   LIG d   1       2.671  82.021 114.414  0.00  0.00     0.028 C 
ATOM     12  C   LIG d   1       2.279  83.507 114.421  0.00  0.00     0.006 C 
ENDBRANCH   8  11
ENDBRANCH   7   8
ENDBRANCH   1   7
BRANCH   6  13
ATOM     13  N   LIG d   1       1.904  82.190 110.885  0.00  0.00    -0.311 N 
ATOM     14  C   LIG d   1       3.222  82.317 110.738  0.00  0.00     0.210 C 
ATOM     15  C   LIG d   1       3.691  83.698 110.272  0.00  0.00     0.109 C 
ATOM     16  O   LIG d   1       4.044  81.406 110.919  0.00  0.00    -0.276 OA
ATOM     17  H   LIG d   1       1.309  82.970 110.685  0.00  0.00     0.149 HD
ENDBRANCH   6  13
BRANCH   5  18
ATOM     18  N   LIG d   1       2.049  79.507 109.431  0.00  0.00     0.381 N 
ATOM     19  H   LIG d   1       2.757  79.214 110.075  0.00  0.00    -0.090 HD
ATOM     20  H   LIG d   1       2.421  80.255 108.873  0.00  0.00    -0.090 HD
ATOM     21  H   LIG d   1       1.786  78.745 108.846  0.00  0.00    -0.090 HD
ENDBRANCH   5  18
BRANCH   3  22
ATOM     22  C   LIG d   1      -2.031  78.271 111.615  0.00  0.00     0.382 C 
ATOM     23  O   LIG d   1      -2.494  77.915 112.725  0.00  0.00    -0.241 OA
ATOM     24  O   LIG d   1      -2.526  77.813 110.568  0.00  0.00    -0.241 OA
ENDBRANCH   3  22
TORSDOF 7
ENDMDL
MODEL 7
REMARK VINA RESULT:      -4.3      2.049      5.167
REMARK  7 active torsions:
REMARK  status: ('A' for Active; 'I' for Inactive)
REMARK    1  A    between atoms: C_2  and  C_3 
REMARK    2  A    between atoms: C_3  and  O_6 
REMARK    3  A    between atoms: C_3  and  C_4 
REMARK    4  A    between atoms: C_7  and  O_6 
REMARK    5  A    between atoms: C_9  and  C_10 
REMARK    6  A    between atoms: N_15  and  C_14 
REMARK    7  A    between atoms: N_20  and  C_19 
REMARK       I    between atoms: C_22  and  N_20 
ROOT
ATOM      1  C   LIG d   1       1.102  81.493 113.233  0.00  0.00     0.161 C 
ATOM      2  C   LIG d   1       0.138  80.549 113.625  0.00  0.00     0.016 C 
ATOM      3  C   LIG d   1      -0.667  79.833 112.709  0.00  0.00     0.038 C 
ATOM      4  C   LIG d   1      -0.456  79.903 111.324  0.00  0.00     0.028 C 
ATOM      5  C   LIG d   1       0.165  81.220 110.871  0.00  0.00    -0.047 C 
ATOM      6  C   LIG d   1       1.424  81.501 111.724  0.00  0.00     0.091 C 
ENDROOT
BRANCH   1   7
ATOM      7  O   LIG d   1       2.307  81.308 114.001  0.00  0.00    -0.368 OA
BRANCH   7   8
ATOM      8  C   LIG d   1       2.266  81.771 115.373  0.00  0.00     0.119 C 
BRANCH   8   9
ATOM      9  C   LIG d   1       2.340  83.310 115.345  0.00  0.00     0.028 C 
ATOM     10  C   LIG d   1       1.914  83.942 116.681  0.00  0.00     0.006 C 
ENDBRANCH   8   9
BRANCH   8  11
ATOM     11  C   LIG d   1       3.506  81.319 116.151  0.00  0.00     0.028 C 
ATOM     12  C   LIG d   1       3.158  80.476 117.389  0.00  0.00     0.006 C 
ENDBRANCH   8  11
ENDBRANCH   7   8
ENDBRANCH   1   7
BRANCH   6  13
ATOM     13  N   LIG d   1       2.045  82.812 111.403  0.00  0.00    -0.311 N 
ATOM     14  C   LIG d   1       3.269  82.938 110.893  0.00  0.00     0.210 C 
ATOM     15  C   LIG d   1       3.725  84.381 110.656  0.00  0.00     0.109 C 
ATOM     16  O   LIG d   1       4.008  81.991 110.585  0.00  0.00    -0.276 OA
ATOM     17  H   LIG d   1       1.503  83.632 111.592  0.00  0.00     0.149 HD
ENDBRANCH   6  13
BRANCH   5  18
ATOM     18  N   LIG d   1       0.457  81.103 109.430  0.00  0.00     0.381 N 
ATOM     19  H   LIG d   1      -0.392  81.176 108.906  0.00  0.00    -0.090 HD
ATOM     20  H   LIG d   1       0.861  80.200 109.252  0.00  0.00    -0.090 HD
ATOM     21  H   LIG d   1       1.091  81.819 109.151  0.00  0.00    -0.090 HD
ENDBRANCH   5  18
BRANCH   3  22
ATOM     22  C   LIG d   1      -1.724  79.067 113.176  0.00  0.00     0.382 C 
ATOM     23  O   LIG d   1      -2.756  79.626 113.620  0.00  0.00    -0.241 OA
ATOM     24  O   LIG d   1      -1.641  77.824 113.201  0.00  0.00    -0.241 OA
ENDBRANCH   3  22
TORSDOF 7
ENDMDL
MODEL 8
REMARK VINA RESULT:      -4.2      3.275      6.664
REMARK  7 active torsions:
REMARK  status: ('A' for Active; 'I' for Inactive)
REMARK    1  A    between atoms: C_2  and  C_3 
REMARK    2  A    between atoms: C_3  and  O_6 
REMARK    3  A    between atoms: C_3  and  C_4 
REMARK    4  A    between atoms: C_7  and  O_6 
REMARK    5  A    between atoms: C_9  and  C_10 
REMARK    6  A    between atoms: N_15  and  C_14 
REMARK    7  A    between atoms: N_20  and  C_19 
REMARK       I    between atoms: C_22  and  N_20 
ROOT
ATOM      1  C   LIG d   1      -1.042  79.281 113.730  0.00  0.00     0.161 C 
ATOM      2  C   LIG d   1      -2.121  78.392 113.591  0.00  0.00     0.016 C 
ATOM      3  C   LIG d   1      -2.559  77.532 114.624  0.00  0.00     0.038 C 
ATOM      4  C   LIG d   1      -2.040  77.611 115.925  0.00  0.00     0.028 C 
ATOM      5  C   LIG d   1      -0.610  78.139 115.975  0.00  0.00    -0.047 C 
ATOM      6  C   LIG d   1      -0.535  79.461 115.177  0.00  0.00     0.091 C 
ENDROOT
BRANCH   1   7
ATOM      7  O   LIG d   1      -1.385  80.559 113.157  0.00  0.00    -0.368 OA
BRANCH   7   8
ATOM      8  C   LIG d   1      -0.725  80.896 111.913  0.00  0.00     0.119 C 
BRANCH   8   9
ATOM      9  C   LIG d   1      -0.094  79.604 111.358  0.00  0.00     0.028 C 
ATOM     10  C   LIG d   1      -0.641  79.235 109.968  0.00  0.00     0.006 C 
ENDBRANCH   8   9
BRANCH   8  11
ATOM     11  C   LIG d   1       0.449  81.852 112.146  0.00  0.00     0.028 C 
ATOM     12  C   LIG d   1       1.814  81.192 111.897  0.00  0.00     0.006 C 
ENDBRANCH   8  11
ENDBRANCH   7   8
ENDBRANCH   1   7
BRANCH   6  13
ATOM     13  N   LIG d   1       0.847  80.002 115.105  0.00  0.00    -0.311 N 
ATOM     14  C   LIG d   1       1.337  80.880 115.978  0.00  0.00     0.210 C 
ATOM     15  C   LIG d   1       2.779  81.323 115.709  0.00  0.00     0.109 C 
ATOM     16  O   LIG d   1       0.726  81.308 116.968  0.00  0.00    -0.276 OA
ATOM     17  H   LIG d   1       1.423  79.683 114.350  0.00  0.00     0.149 HD
ENDBRANCH   6  13
BRANCH   5  18
ATOM     18  N   LIG d   1      -0.244  78.300 117.395  0.00  0.00     0.381 N 
ATOM     19  H   LIG d   1       0.547  78.907 117.474  0.00  0.00    -0.090 HD
ATOM     20  H   LIG d   1       0.008  77.402 117.769  0.00  0.00    -0.090 HD
ATOM     21  H   LIG d   1      -1.013  78.676 117.905  0.00  0.00    -0.090 HD
ENDBRANCH   5  18
BRANCH   3  22
ATOM     22  C   LIG d   1      -3.500  76.552 114.349  0.00  0.00     0.382 C 
ATOM     23  O   LIG d   1      -4.428  76.784 113.537  0.00  0.00    -0.241 OA
ATOM     24  O   LIG d   1      -3.459  75.454 114.936  0.00  0.00    -0.241 OA
ENDBRANCH   3  22
TORSDOF 7
ENDMDL
MODEL 9
REMARK VINA RESULT:      -4.1      6.002      7.571
REMARK  7 active torsions:
REMARK  status: ('A' for Active; 'I' for Inactive)
REMARK    1  A    between atoms: C_2  and  C_3 
REMARK    2  A    between atoms: C_3  and  O_6 
REMARK    3  A    between atoms: C_3  and  C_4 
REMARK    4  A    between atoms: C_7  and  O_6 
REMARK    5  A    between atoms: C_9  and  C_10 
REMARK    6  A    between atoms: N_15  and  C_14 
REMARK    7  A    between atoms: N_20  and  C_19 
REMARK       I    between atoms: C_22  and  N_20 
ROOT
ATOM      1  C   LIG d   1       0.103  78.136 116.319  0.00  0.00     0.161 C 
ATOM      2  C   LIG d   1      -0.960  78.599 115.526  0.00  0.00     0.016 C 
ATOM      3  C   LIG d   1      -1.854  77.740 114.845  0.00  0.00     0.038 C 
ATOM      4  C   LIG d   1      -1.837  76.351 115.035  0.00  0.00     0.028 C 
ATOM      5  C   LIG d   1      -0.467  75.810 115.428  0.00  0.00    -0.047 C 
ATOM      6  C   LIG d   1       0.069  76.624 116.627  0.00  0.00     0.091 C 
ENDROOT
BRANCH   1   7
ATOM      7  O   LIG d   1       0.166  78.895 117.542  0.00  0.00    -0.368 OA
BRANCH   7   8
ATOM      8  C   LIG d   1      -1.075  79.498 117.984  0.00  0.00     0.119 C 
BRANCH   8   9
ATOM      9  C   LIG d   1      -0.730  80.866 118.604  0.00  0.00     0.028 C 
ATOM     10  C   LIG d   1       0.580  81.449 118.049  0.00  0.00     0.006 C 
ENDBRANCH   8   9
BRANCH   8  11
ATOM     11  C   LIG d   1      -1.716  78.689 119.115  0.00  0.00     0.028 C 
ATOM     12  C   LIG d   1      -2.889  77.819 118.635  0.00  0.00     0.006 C 
ENDBRANCH   8  11
ENDBRANCH   7   8
ENDBRANCH   1   7
BRANCH   6  13
ATOM     13  N   LIG d   1       1.443  76.215 117.022  0.00  0.00    -0.311 N 
ATOM     14  C   LIG d   1       1.766  75.825 118.253  0.00  0.00     0.210 C 
ATOM     15  C   LIG d   1       3.242  75.465 118.451  0.00  0.00     0.109 C 
ATOM     16  O   LIG d   1       0.964  75.711 119.192  0.00  0.00    -0.276 OA
ATOM     17  H   LIG d   1       2.150  76.247 116.313  0.00  0.00     0.149 HD
ENDBRANCH   6  13
BRANCH   5  18
ATOM     18  N   LIG d   1      -0.623  74.374 115.727  0.00  0.00     0.381 N 
ATOM     19  H   LIG d   1      -1.593  74.128 115.711  0.00  0.00    -0.090 HD
ATOM     20  H   LIG d   1      -0.268  74.194 116.650  0.00  0.00    -0.090 HD
ATOM     21  H   LIG d   1      -0.124  73.829 115.059  0.00  0.00    -0.090 HD
ENDBRANCH   5  18
BRANCH   3  22
ATOM     22  C   LIG d   1      -2.754  78.269 113.932  0.00  0.00     0.382 C 
ATOM     23  O   LIG d   1      -3.384  77.508 113.159  0.00  0.00    -0.241 OA
ATOM     24  O   LIG d   1      -2.910  79.502 113.841  0.00  0.00    -0.241 OA
ENDBRANCH   3  22
TORSDOF 7
ENDMDL
