MODEL 1
REMARK VINA RESULT:      -4.9      0.000      0.000
REMARK  7 active torsions:
REMARK  status: ('A' for Active; 'I' for Inactive)
REMARK    1  A    between atoms: C_2  and  C_3 
REMARK    2  A    between atoms: C_3  and  O_6 
REMARK    3  A    between atoms: C_3  and  C_4 
REMARK    4  A    between atoms: C_7  and  O_6 
REMARK    5  A    between atoms: C_9  and  C_10 
REMARK    6  A    between atoms: N_15  and  C_14 
REMARK    7  A    between atoms: N_20  and  C_19 
REMARK       I    between atoms: C_22  and  N_20 
ROOT
ATOM      1  C   LIG d   1      -2.407  78.275 115.335  0.00  0.00     0.161 C 
ATOM      2  C   LIG d   1      -2.709  79.456 114.638  0.00  0.00     0.016 C 
ATOM      3  C   LIG d   1      -2.276  79.713 113.317  0.00  0.00     0.038 C 
ATOM      4  C   LIG d   1      -1.633  78.735 112.544  0.00  0.00     0.028 C 
ATOM      5  C   LIG d   1      -0.865  77.714 113.376  0.00  0.00    -0.047 C 
ATOM      6  C   LIG d   1      -1.801  77.150 114.469  0.00  0.00     0.091 C 
ENDROOT
BRANCH   1   7
ATOM      7  O   LIG d   1      -3.580  77.800 116.024  0.00  0.00    -0.368 OA
BRANCH   7   8
ATOM      8  C   LIG d   1      -3.736  78.241 117.395  0.00  0.00     0.119 C 
BRANCH   8   9
ATOM      9  C   LIG d   1      -2.326  78.380 118.000  0.00  0.00     0.028 C 
ATOM     10  C   LIG d   1      -2.148  79.694 118.780  0.00  0.00     0.006 C 
ENDBRANCH   8   9
BRANCH   8  11
ATOM     11  C   LIG d   1      -4.440  77.180 118.246  0.00  0.00     0.028 C 
ATOM     12  C   LIG d   1      -3.518  76.008 118.619  0.00  0.00     0.006 C 
ENDBRANCH   8  11
ENDBRANCH   7   8
ENDBRANCH   1   7
BRANCH   6  13
ATOM     13  N   LIG d   1      -1.105  76.206 115.381  0.00  0.00    -0.311 N 
ATOM     14  C   LIG d   1      -1.556  74.983 115.654  0.00  0.00     0.210 C 
ATOM     15  C   LIG d   1      -0.695  74.181 116.635  0.00  0.00     0.109 C 
ATOM     16  O   LIG d   1      -2.569  74.474 115.152  0.00  0.00    -0.276 OA
ATOM     17  H   LIG d   1      -0.257  76.526 115.808  0.00  0.00     0.149 HD
ENDBRANCH   6  13
BRANCH   5  18
ATOM     18  N   LIG d   1      -0.361  76.677 112.455  0.00  0.00     0.381 N 
ATOM     19  H   LIG d   1       0.546  76.935 112.119  0.00  0.00    -0.090 HD
ATOM     20  H   LIG d   1      -0.982  76.611 111.669  0.00  0.00    -0.090 HD
ATOM     21  H   LIG d   1      -0.312  75.799 112.924  0.00  0.00    -0.090 HD
ENDBRANCH   5  18
BRANCH   3  22
ATOM     22  C   LIG d   1      -2.450  80.976 112.770  0.00  0.00     0.382 C 
ATOM     23  O   LIG d   1      -1.459  81.615 112.341  0.00  0.00    -0.241 OA
ATOM     24  O   LIG d   1      -3.578  81.502 112.740  0.00  0.00    -0.241 OA
ENDBRANCH   3  22
TORSDOF 7
ENDMDL
MODEL 2
REMARK VINA RESULT:      -4.9      2.317      3.269
REMARK  7 active torsions:
REMARK  status: ('A' for Active; 'I' for Inactive)
REMARK    1  A    between atoms: C_2  and  C_3 
REMARK    2  A    between atoms: C_3  and  O_6 
REMARK    3  A    between atoms: C_3  and  C_4 
REMARK    4  A    between atoms: C_7  and  O_6 
REMARK    5  A    between atoms: C_9  and  C_10 
REMARK    6  A    between atoms: N_15  and  C_14 
REMARK    7  A    between atoms: N_20  and  C_19 
REMARK       I    between atoms: C_22  and  N_20 
ROOT
ATOM      1  C   LIG d   1      -1.186  76.806 113.845  0.00  0.00     0.161 C 
ATOM      2  C   LIG d   1      -2.053  77.885 114.087  0.00  0.00     0.016 C 
ATOM      3  C   LIG d   1      -2.304  78.907 113.143  0.00  0.00     0.038 C 
ATOM      4  C   LIG d   1      -1.819  78.839 111.829  0.00  0.00     0.028 C 
ATOM      5  C   LIG d   1      -0.533  78.030 111.699  0.00  0.00    -0.047 C 
ATOM      6  C   LIG d   1      -0.734  76.655 112.377  0.00  0.00     0.091 C 
ENDROOT
BRANCH   1   7
ATOM      7  O   LIG d   1      -1.787  75.582 114.313  0.00  0.00    -0.368 OA
BRANCH   7   8
ATOM      8  C   LIG d   1      -2.117  75.532 115.723  0.00  0.00     0.119 C 
BRANCH   8   9
ATOM      9  C   LIG d   1      -0.891  74.965 116.465  0.00  0.00     0.028 C 
ATOM     10  C   LIG d   1      -0.178  76.028 117.318  0.00  0.00     0.006 C 
ENDBRANCH   8   9
BRANCH   8  11
ATOM     11  C   LIG d   1      -3.251  74.539 115.995  0.00  0.00     0.028 C 
ATOM     12  C   LIG d   1      -4.436  75.176 116.738  0.00  0.00     0.006 C 
ENDBRANCH   8  11
ENDBRANCH   7   8
ENDBRANCH   1   7
BRANCH   6  13
ATOM     13  N   LIG d   1       0.503  75.833 112.370  0.00  0.00    -0.311 N 
ATOM     14  C   LIG d   1       0.817  74.989 111.388  0.00  0.00     0.210 C 
ATOM     15  C   LIG d   1       2.129  74.223 111.588  0.00  0.00     0.109 C 
ATOM     16  O   LIG d   1       0.149  74.825 110.356  0.00  0.00    -0.276 OA
ATOM     17  H   LIG d   1       1.118  75.926 113.155  0.00  0.00     0.149 HD
ENDBRANCH   6  13
BRANCH   5  18
ATOM     18  N   LIG d   1      -0.215  77.925 110.263  0.00  0.00     0.381 N 
ATOM     19  H   LIG d   1       0.313  77.092 110.093  0.00  0.00    -0.090 HD
ATOM     20  H   LIG d   1       0.345  78.714 109.995  0.00  0.00    -0.090 HD
ATOM     21  H   LIG d   1      -1.056  77.908 109.728  0.00  0.00    -0.090 HD
ENDBRANCH   5  18
BRANCH   3  22
ATOM     22  C   LIG d   1      -3.016  80.034 113.524  0.00  0.00     0.382 C 
ATOM     23  O   LIG d   1      -3.140  80.997 112.729  0.00  0.00    -0.241 OA
ATOM     24  O   LIG d   1      -3.499  80.119 114.670  0.00  0.00    -0.241 OA
ENDBRANCH   3  22
TORSDOF 7
ENDMDL
MODEL 3
REMARK VINA RESULT:      -4.7      1.939      2.570
REMARK  7 active torsions:
REMARK  status: ('A' for Active; 'I' for Inactive)
REMARK    1  A    between atoms: C_2  and  C_3 
REMARK    2  A    between atoms: C_3  and  O_6 
REMARK    3  A    between atoms: C_3  and  C_4 
REMARK    4  A    between atoms: C_7  and  O_6 
REMARK    5  A    between atoms: C_9  and  C_10 
REMARK    6  A    between atoms: N_15  and  C_14 
REMARK    7  A    between atoms: N_20  and  C_19 
REMARK       I    between atoms: C_22  and  N_20 
ROOT
ATOM      1  C   LIG d   1      -0.590  78.385 114.336  0.00  0.00     0.161 C 
ATOM      2  C   LIG d   1      -1.242  79.608 114.105  0.00  0.00     0.016 C 
ATOM      3  C   LIG d   1      -1.986  79.885 112.935  0.00  0.00     0.038 C 
ATOM      4  C   LIG d   1      -2.257  78.896 111.977  0.00  0.00     0.028 C 
ATOM      5  C   LIG d   1      -1.200  77.799 111.924  0.00  0.00    -0.047 C 
ATOM      6  C   LIG d   1      -0.967  77.257 113.353  0.00  0.00     0.091 C 
ENDROOT
BRANCH   1   7
ATOM      7  O   LIG d   1      -0.814  77.962 115.695  0.00  0.00    -0.368 OA
BRANCH   7   8
ATOM      8  C   LIG d   1       0.127  78.456 116.679  0.00  0.00     0.119 C 
BRANCH   8   9
ATOM      9  C   LIG d   1       1.038  77.280 117.080  0.00  0.00     0.028 C 
ATOM     10  C   LIG d   1       1.020  77.013 118.595  0.00  0.00     0.006 C 
ENDBRANCH   8   9
BRANCH   8  11
ATOM     11  C   LIG d   1      -0.585  78.875 117.969  0.00  0.00     0.028 C 
ATOM     12  C   LIG d   1      -2.110  78.974 117.803  0.00  0.00     0.006 C 
ENDBRANCH   8  11
ENDBRANCH   7   8
ENDBRANCH   1   7
BRANCH   6  13
ATOM     13  N   LIG d   1       0.113  76.237 113.404  0.00  0.00    -0.311 N 
ATOM     14  C   LIG d   1      -0.001  75.079 114.052  0.00  0.00     0.210 C 
ATOM     15  C   LIG d   1       1.238  74.181 113.995  0.00  0.00     0.109 C 
ATOM     16  O   LIG d   1      -1.023  74.697 114.642  0.00  0.00    -0.276 OA
ATOM     17  H   LIG d   1       0.966  76.452 112.925  0.00  0.00     0.149 HD
ENDBRANCH   6  13
BRANCH   5  18
ATOM     18  N   LIG d   1      -1.676  76.766 110.985  0.00  0.00     0.381 N 
ATOM     19  H   LIG d   1      -2.384  77.149 110.391  0.00  0.00    -0.090 HD
ATOM     20  H   LIG d   1      -2.079  76.010 111.509  0.00  0.00    -0.090 HD
ATOM     21  H   LIG d   1      -0.917  76.430 110.434  0.00  0.00    -0.090 HD
ENDBRANCH   5  18
BRANCH   3  22
ATOM     22  C   LIG d   1      -2.435  81.175 112.695  0.00  0.00     0.382 C 
ATOM     23  O   LIG d   1      -3.661  81.432 112.747  0.00  0.00    -0.241 OA
ATOM     24  O   LIG d   1      -1.632  82.075 112.383  0.00  0.00    -0.241 OA
ENDBRANCH   3  22
TORSDOF 7
ENDMDL
MODEL 4
REMARK VINA RESULT:      -4.7      0.606      1.573
REMARK  7 active torsions:
REMARK  status: ('A' for Active; 'I' for Inactive)
REMARK    1  A    between atoms: C_2  and  C_3 
REMARK    2  A    between atoms: C_3  and  O_6 
REMARK    3  A    between atoms: C_3  and  C_4 
REMARK    4  A    between atoms: C_7  and  O_6 
REMARK    5  A    between atoms: C_9  and  C_10 
REMARK    6  A    between atoms: N_15  and  C_14 
REMARK    7  A    between atoms: N_20  and  C_19 
REMARK       I    between atoms: C_22  and  N_20 
ROOT
ATOM      1  C   LIG d   1      -2.313  78.309 115.651  0.00  0.00     0.161 C 
ATOM      2  C   LIG d   1      -2.573  79.420 114.831  0.00  0.00     0.016 C 
ATOM      3  C   LIG d   1      -2.133  79.519 113.491  0.00  0.00     0.038 C 
ATOM      4  C   LIG d   1      -1.528  78.440 112.828  0.00  0.00     0.028 C 
ATOM      5  C   LIG d   1      -0.797  77.486 113.767  0.00  0.00    -0.047 C 
ATOM      6  C   LIG d   1      -1.752  77.077 114.911  0.00  0.00     0.091 C 
ENDROOT
BRANCH   1   7
ATOM      7  O   LIG d   1      -3.503  77.954 116.384  0.00  0.00    -0.368 OA
BRANCH   7   8
ATOM      8  C   LIG d   1      -3.389  77.971 117.828  0.00  0.00     0.119 C 
BRANCH   8   9
ATOM      9  C   LIG d   1      -4.215  76.788 118.371  0.00  0.00     0.028 C 
ATOM     10  C   LIG d   1      -3.328  75.641 118.886  0.00  0.00     0.006 C 
ENDBRANCH   8   9
BRANCH   8  11
ATOM     11  C   LIG d   1      -4.038  79.224 118.424  0.00  0.00     0.028 C 
ATOM     12  C   LIG d   1      -3.036  80.111 119.180  0.00  0.00     0.006 C 
ENDBRANCH   8  11
ENDBRANCH   7   8
ENDBRANCH   1   7
BRANCH   6  13
ATOM     13  N   LIG d   1      -1.089  76.210 115.920  0.00  0.00    -0.311 N 
ATOM     14  C   LIG d   1      -1.172  74.881 115.912  0.00  0.00     0.210 C 
ATOM     15  C   LIG d   1      -0.430  74.180 117.055  0.00  0.00     0.109 C 
ATOM     16  O   LIG d   1      -1.762  74.214 115.049  0.00  0.00    -0.276 OA
ATOM     17  H   LIG d   1      -0.563  76.667 116.639  0.00  0.00     0.149 HD
ENDBRANCH   6  13
BRANCH   5  18
ATOM     18  N   LIG d   1      -0.333  76.339 112.963  0.00  0.00     0.381 N 
ATOM     19  H   LIG d   1      -0.856  75.521 113.206  0.00  0.00    -0.090 HD
ATOM     20  H   LIG d   1       0.635  76.168 113.170  0.00  0.00    -0.090 HD
ATOM     21  H   LIG d   1      -0.443  76.536 111.993  0.00  0.00    -0.090 HD
ENDBRANCH   5  18
BRANCH   3  22
ATOM     22  C   LIG d   1      -2.260  80.721 112.812  0.00  0.00     0.382 C 
ATOM     23  O   LIG d   1      -1.266  81.223 112.234  0.00  0.00    -0.241 OA
ATOM     24  O   LIG d   1      -3.345  81.332 112.809  0.00  0.00    -0.241 OA
ENDBRANCH   3  22
TORSDOF 7
ENDMDL
MODEL 5
REMARK VINA RESULT:      -4.7      2.818      5.057
REMARK  7 active torsions:
REMARK  status: ('A' for Active; 'I' for Inactive)
REMARK    1  A    between atoms: C_2  and  C_3 
REMARK    2  A    between atoms: C_3  and  O_6 
REMARK    3  A    between atoms: C_3  and  C_4 
REMARK    4  A    between atoms: C_7  and  O_6 
REMARK    5  A    between atoms: C_9  and  C_10 
REMARK    6  A    between atoms: N_15  and  C_14 
REMARK    7  A    between atoms: N_20  and  C_19 
REMARK       I    between atoms: C_22  and  N_20 
ROOT
ATOM      1  C   LIG d   1      -1.627  79.287 114.375  0.00  0.00     0.161 C 
ATOM      2  C   LIG d   1      -2.166  78.049 114.762  0.00  0.00     0.016 C 
ATOM      3  C   LIG d   1      -2.530  77.038 113.843  0.00  0.00     0.038 C 
ATOM      4  C   LIG d   1      -2.237  77.138 112.475  0.00  0.00     0.028 C 
ATOM      5  C   LIG d   1      -2.154  78.577 111.978  0.00  0.00    -0.047 C 
ATOM      6  C   LIG d   1      -1.197  79.372 112.895  0.00  0.00     0.091 C 
ENDROOT
BRANCH   1   7
ATOM      7  O   LIG d   1      -0.524  79.631 115.237  0.00  0.00    -0.368 OA
BRANCH   7   8
ATOM      8  C   LIG d   1      -0.391  78.844 116.446  0.00  0.00     0.119 C 
BRANCH   8   9
ATOM      9  C   LIG d   1      -0.492  79.810 117.642  0.00  0.00     0.028 C 
ATOM     10  C   LIG d   1       0.785  80.647 117.830  0.00  0.00     0.006 C 
ENDBRANCH   8   9
BRANCH   8  11
ATOM     11  C   LIG d   1       1.001  78.214 116.550  0.00  0.00     0.028 C 
ATOM     12  C   LIG d   1       1.181  77.007 115.615  0.00  0.00     0.006 C 
ENDBRANCH   8  11
ENDBRANCH   7   8
ENDBRANCH   1   7
BRANCH   6  13
ATOM     13  N   LIG d   1      -1.124  80.810 112.529  0.00  0.00    -0.311 N 
ATOM     14  C   LIG d   1      -0.217  81.309 111.691  0.00  0.00     0.210 C 
ATOM     15  C   LIG d   1      -0.306  82.821 111.467  0.00  0.00     0.109 C 
ATOM     16  O   LIG d   1       0.633  80.636 111.088  0.00  0.00    -0.276 OA
ATOM     17  H   LIG d   1      -1.796  81.422 112.949  0.00  0.00     0.149 HD
ENDBRANCH   6  13
BRANCH   5  18
ATOM     18  N   LIG d   1      -1.708  78.538 110.572  0.00  0.00     0.381 N 
ATOM     19  H   LIG d   1      -1.356  79.435 110.303  0.00  0.00    -0.090 HD
ATOM     20  H   LIG d   1      -2.495  78.320 109.987  0.00  0.00    -0.090 HD
ATOM     21  H   LIG d   1      -0.999  77.848 110.459  0.00  0.00    -0.090 HD
ENDBRANCH   5  18
BRANCH   3  22
ATOM     22  C   LIG d   1      -3.231  75.927 114.287  0.00  0.00     0.382 C 
ATOM     23  O   LIG d   1      -2.637  75.024 114.925  0.00  0.00    -0.241 OA
ATOM     24  O   LIG d   1      -4.440  75.794 114.018  0.00  0.00    -0.241 OA
ENDBRANCH   3  22
TORSDOF 7
ENDMDL
MODEL 6
REMARK VINA RESULT:      -4.5      2.736      4.182
REMARK  7 active torsions:
REMARK  status: ('A' for Active; 'I' for Inactive)
REMARK    1  A    between atoms: C_2  and  C_3 
REMARK    2  A    between atoms: C_3  and  O_6 
REMARK    3  A    between atoms: C_3  and  C_4 
REMARK    4  A    between atoms: C_7  and  O_6 
REMARK    5  A    between atoms: C_9  and  C_10 
REMARK    6  A    between atoms: N_15  and  C_14 
REMARK    7  A    between atoms: N_20  and  C_19 
REMARK       I    between atoms: C_22  and  N_20 
ROOT
ATOM      1  C   LIG d   1      -1.785  77.879 115.102  0.00  0.00     0.161 C 
ATOM      2  C   LIG d   1      -2.526  77.426 113.998  0.00  0.00     0.016 C 
ATOM      3  C   LIG d   1      -2.367  77.941 112.691  0.00  0.00     0.038 C 
ATOM      4  C   LIG d   1      -1.343  78.843 112.368  0.00  0.00     0.028 C 
ATOM      5  C   LIG d   1      -0.901  79.703 113.547  0.00  0.00    -0.047 C 
ATOM      6  C   LIG d   1      -0.586  78.784 114.749  0.00  0.00     0.091 C 
ENDROOT
BRANCH   1   7
ATOM      7  O   LIG d   1      -1.349  76.755 115.892  0.00  0.00    -0.368 OA
BRANCH   7   8
ATOM      8  C   LIG d   1      -1.145  75.513 115.174  0.00  0.00     0.119 C 
BRANCH   8   9
ATOM      9  C   LIG d   1      -1.590  74.364 116.100  0.00  0.00     0.028 C 
ATOM     10  C   LIG d   1      -2.490  74.852 117.249  0.00  0.00     0.006 C 
ENDBRANCH   8   9
BRANCH   8  11
ATOM     11  C   LIG d   1       0.342  75.262 114.905  0.00  0.00     0.028 C 
ATOM     12  C   LIG d   1       0.677  75.224 113.405  0.00  0.00     0.006 C 
ENDBRANCH   8  11
ENDBRANCH   7   8
ENDBRANCH   1   7
BRANCH   6  13
ATOM     13  N   LIG d   1      -0.226  79.551 115.971  0.00  0.00    -0.311 N 
ATOM     14  C   LIG d   1       0.742  79.183 116.808  0.00  0.00     0.210 C 
ATOM     15  C   LIG d   1       0.935  80.104 118.017  0.00  0.00     0.109 C 
ATOM     16  O   LIG d   1       1.480  78.199 116.648  0.00  0.00    -0.276 OA
ATOM     17  H   LIG d   1      -0.754  80.380 116.161  0.00  0.00     0.149 HD
ENDBRANCH   6  13
BRANCH   5  18
ATOM     18  N   LIG d   1       0.262  80.498 113.108  0.00  0.00     0.381 N 
ATOM     19  H   LIG d   1       0.307  80.508 112.108  0.00  0.00    -0.090 HD
ATOM     20  H   LIG d   1       1.100  80.069 113.457  0.00  0.00    -0.090 HD
ATOM     21  H   LIG d   1       0.188  81.430 113.453  0.00  0.00    -0.090 HD
ENDBRANCH   5  18
BRANCH   3  22
ATOM     22  C   LIG d   1      -3.266  77.582 111.697  0.00  0.00     0.382 C 
ATOM     23  O   LIG d   1      -2.910  77.599 110.494  0.00  0.00    -0.241 OA
ATOM     24  O   LIG d   1      -4.440  77.283 111.985  0.00  0.00    -0.241 OA
ENDBRANCH   3  22
TORSDOF 7
ENDMDL
MODEL 7
REMARK VINA RESULT:      -4.4      2.465      5.542
REMARK  7 active torsions:
REMARK  status: ('A' for Active; 'I' for Inactive)
REMARK    1  A    between atoms: C_2  and  C_3 
REMARK    2  A    between atoms: C_3  and  O_6 
REMARK    3  A    between atoms: C_3  and  C_4 
REMARK    4  A    between atoms: C_7  and  O_6 
REMARK    5  A    between atoms: C_9  and  C_10 
REMARK    6  A    between atoms: N_15  and  C_14 
REMARK    7  A    between atoms: N_20  and  C_19 
REMARK       I    between atoms: C_22  and  N_20 
ROOT
ATOM      1  C   LIG d   1      -0.774  77.457 113.864  0.00  0.00     0.161 C 
ATOM      2  C   LIG d   1      -1.377  77.336 115.127  0.00  0.00     0.016 C 
ATOM      3  C   LIG d   1      -2.411  78.187 115.581  0.00  0.00     0.038 C 
ATOM      4  C   LIG d   1      -3.019  79.130 114.738  0.00  0.00     0.028 C 
ATOM      5  C   LIG d   1      -2.103  79.627 113.625  0.00  0.00    -0.047 C 
ATOM      6  C   LIG d   1      -1.500  78.408 112.890  0.00  0.00     0.091 C 
ENDROOT
BRANCH   1   7
ATOM      7  O   LIG d   1      -0.618  76.153 113.270  0.00  0.00    -0.368 OA
BRANCH   7   8
ATOM      8  C   LIG d   1       0.678  75.528 113.436  0.00  0.00     0.119 C 
BRANCH   8   9
ATOM      9  C   LIG d   1       1.204  75.174 112.031  0.00  0.00     0.028 C 
ATOM     10  C   LIG d   1       0.134  75.350 110.942  0.00  0.00     0.006 C 
ENDBRANCH   8   9
BRANCH   8  11
ATOM     11  C   LIG d   1       0.561  74.191 114.174  0.00  0.00     0.028 C 
ATOM     12  C   LIG d   1      -0.451  74.235 115.329  0.00  0.00     0.006 C 
ENDBRANCH   8  11
ENDBRANCH   7   8
ENDBRANCH   1   7
BRANCH   6  13
ATOM     13  N   LIG d   1      -0.527  78.804 111.839  0.00  0.00    -0.311 N 
ATOM     14  C   LIG d   1      -0.774  78.702 110.534  0.00  0.00     0.210 C 
ATOM     15  C   LIG d   1       0.374  79.148 109.622  0.00  0.00     0.109 C 
ATOM     16  O   LIG d   1      -1.846  78.315 110.046  0.00  0.00    -0.276 OA
ATOM     17  H   LIG d   1       0.358  79.158 112.147  0.00  0.00     0.149 HD
ENDBRANCH   6  13
BRANCH   5  18
ATOM     18  N   LIG d   1      -2.905  80.496 112.743  0.00  0.00     0.381 N 
ATOM     19  H   LIG d   1      -3.012  80.063 111.847  0.00  0.00    -0.090 HD
ATOM     20  H   LIG d   1      -2.419  81.367 112.616  0.00  0.00    -0.090 HD
ATOM     21  H   LIG d   1      -3.799  80.662 113.149  0.00  0.00    -0.090 HD
ENDBRANCH   5  18
BRANCH   3  22
ATOM     22  C   LIG d   1      -2.819  78.128 116.905  0.00  0.00     0.382 C 
ATOM     23  O   LIG d   1      -2.312  77.280 117.679  0.00  0.00    -0.241 OA
ATOM     24  O   LIG d   1      -3.718  78.881 117.324  0.00  0.00    -0.241 OA
ENDBRANCH   3  22
TORSDOF 7
ENDMDL
MODEL 8
REMARK VINA RESULT:      -4.3      2.324      3.743
REMARK  7 active torsions:
REMARK  status: ('A' for Active; 'I' for Inactive)
REMARK    1  A    between atoms: C_2  and  C_3 
REMARK    2  A    between atoms: C_3  and  O_6 
REMARK    3  A    between atoms: C_3  and  C_4 
REMARK    4  A    between atoms: C_7  and  O_6 
REMARK    5  A    between atoms: C_9  and  C_10 
REMARK    6  A    between atoms: N_15  and  C_14 
REMARK    7  A    between atoms: N_20  and  C_19 
REMARK       I    between atoms: C_22  and  N_20 
ROOT
ATOM      1  C   LIG d   1      -3.279  77.463 115.121  0.00  0.00     0.161 C 
ATOM      2  C   LIG d   1      -3.187  77.055 113.780  0.00  0.00     0.016 C 
ATOM      3  C   LIG d   1      -2.132  77.438 112.920  0.00  0.00     0.038 C 
ATOM      4  C   LIG d   1      -1.010  78.137 113.390  0.00  0.00     0.028 C 
ATOM      5  C   LIG d   1      -1.301  78.999 114.613  0.00  0.00    -0.047 C 
ATOM      6  C   LIG d   1      -2.007  78.133 115.681  0.00  0.00     0.091 C 
ENDROOT
BRANCH   1   7
ATOM      7  O   LIG d   1      -3.661  76.345 115.947  0.00  0.00    -0.368 OA
BRANCH   7   8
ATOM      8  C   LIG d   1      -2.588  75.682 116.659  0.00  0.00     0.119 C 
BRANCH   8   9
ATOM      9  C   LIG d   1      -2.293  74.359 115.926  0.00  0.00     0.028 C 
ATOM     10  C   LIG d   1      -0.825  74.251 115.478  0.00  0.00     0.006 C 
ENDBRANCH   8   9
BRANCH   8  11
ATOM     11  C   LIG d   1      -3.023  75.276 118.070  0.00  0.00     0.028 C 
ATOM     12  C   LIG d   1      -4.098  76.206 118.653  0.00  0.00     0.006 C 
ENDBRANCH   8  11
ENDBRANCH   7   8
ENDBRANCH   1   7
BRANCH   6  13
ATOM     13  N   LIG d   1      -2.403  78.921 116.878  0.00  0.00    -0.311 N 
ATOM     14  C   LIG d   1      -1.664  78.997 117.983  0.00  0.00     0.210 C 
ATOM     15  C   LIG d   1      -2.267  79.847 119.107  0.00  0.00     0.109 C 
ATOM     16  O   LIG d   1      -0.551  78.469 118.128  0.00  0.00    -0.276 OA
ATOM     17  H   LIG d   1      -3.278  79.406 116.835  0.00  0.00     0.149 HD
ENDBRANCH   6  13
BRANCH   5  18
ATOM     18  N   LIG d   1      -0.019  79.561 115.078  0.00  0.00     0.381 N 
ATOM     19  H   LIG d   1       0.645  78.824 115.211  0.00  0.00    -0.090 HD
ATOM     20  H   LIG d   1      -0.166  80.017 115.962  0.00  0.00    -0.090 HD
ATOM     21  H   LIG d   1       0.328  80.215 114.412  0.00  0.00    -0.090 HD
ENDBRANCH   5  18
BRANCH   3  22
ATOM     22  C   LIG d   1      -2.213  77.156 111.565  0.00  0.00     0.382 C 
ATOM     23  O   LIG d   1      -1.180  76.836 110.929  0.00  0.00    -0.241 OA
ATOM     24  O   LIG d   1      -3.298  77.260 110.962  0.00  0.00    -0.241 OA
ENDBRANCH   3  22
TORSDOF 7
ENDMDL
MODEL 9
REMARK VINA RESULT:      -4.2      2.788      4.614
REMARK  7 active torsions:
REMARK  status: ('A' for Active; 'I' for Inactive)
REMARK    1  A    between atoms: C_2  and  C_3 
REMARK    2  A    between atoms: C_3  and  O_6 
REMARK    3  A    between atoms: C_3  and  C_4 
REMARK    4  A    between atoms: C_7  and  O_6 
REMARK    5  A    between atoms: C_9  and  C_10 
REMARK    6  A    between atoms: N_15  and  C_14 
REMARK    7  A    between atoms: N_20  and  C_19 
REMARK       I    between atoms: C_22  and  N_20 
ROOT
ATOM      1  C   LIG d   1      -2.086  77.798 117.118  0.00  0.00     0.161 C 
ATOM      2  C   LIG d   1      -2.862  77.007 116.255  0.00  0.00     0.016 C 
ATOM      3  C   LIG d   1      -2.756  77.057 114.846  0.00  0.00     0.038 C 
ATOM      4  C   LIG d   1      -1.752  77.798 114.204  0.00  0.00     0.028 C 
ATOM      5  C   LIG d   1      -1.275  79.000 115.013  0.00  0.00    -0.047 C 
ATOM      6  C   LIG d   1      -0.909  78.530 116.440  0.00  0.00     0.091 C 
ENDROOT
BRANCH   1   7
ATOM      7  O   LIG d   1      -1.611  76.998 118.219  0.00  0.00    -0.368 OA
BRANCH   7   8
ATOM      8  C   LIG d   1      -0.357  76.304 118.008  0.00  0.00     0.119 C 
BRANCH   8   9
ATOM      9  C   LIG d   1      -0.658  74.793 118.010  0.00  0.00     0.028 C 
ATOM     10  C   LIG d   1      -0.602  74.180 116.601  0.00  0.00     0.006 C 
ENDBRANCH   8   9
BRANCH   8  11
ATOM     11  C   LIG d   1       0.607  76.527 119.177  0.00  0.00     0.028 C 
ATOM     12  C   LIG d   1       1.155  75.213 119.757  0.00  0.00     0.006 C 
ENDBRANCH   8  11
ENDBRANCH   7   8
ENDBRANCH   1   7
BRANCH   6  13
ATOM     13  N   LIG d   1      -0.512  79.658 117.323  0.00  0.00    -0.311 N 
ATOM     14  C   LIG d   1       0.755  79.994 117.559  0.00  0.00     0.210 C 
ATOM     15  C   LIG d   1       0.943  81.175 118.516  0.00  0.00     0.109 C 
ATOM     16  O   LIG d   1       1.740  79.446 117.042  0.00  0.00    -0.276 OA
ATOM     17  H   LIG d   1      -1.249  80.177 117.759  0.00  0.00     0.149 HD
ENDBRANCH   6  13
BRANCH   5  18
ATOM     18  N   LIG d   1      -0.137  79.599 114.292  0.00  0.00     0.381 N 
ATOM     19  H   LIG d   1       0.498  80.012 114.945  0.00  0.00    -0.090 HD
ATOM     20  H   LIG d   1      -0.482  80.323 113.686  0.00  0.00    -0.090 HD
ATOM     21  H   LIG d   1       0.332  78.903 113.755  0.00  0.00    -0.090 HD
ENDBRANCH   5  18
BRANCH   3  22
ATOM     22  C   LIG d   1      -3.686  76.391 114.062  0.00  0.00     0.382 C 
ATOM     23  O   LIG d   1      -3.932  75.180 114.275  0.00  0.00    -0.241 OA
ATOM     24  O   LIG d   1      -4.249  76.975 113.117  0.00  0.00    -0.241 OA
ENDBRANCH   3  22
TORSDOF 7
ENDMDL
