MODEL 1
REMARK VINA RESULT:      -5.4      0.000      0.000
REMARK  7 active torsions:
REMARK  status: ('A' for Active; 'I' for Inactive)
REMARK    1  A    between atoms: C_2  and  C_3 
REMARK    2  A    between atoms: C_3  and  O_6 
REMARK    3  A    between atoms: C_3  and  C_4 
REMARK    4  A    between atoms: C_7  and  O_6 
REMARK    5  A    between atoms: C_9  and  C_10 
REMARK    6  A    between atoms: N_15  and  C_14 
REMARK    7  A    between atoms: N_20  and  C_19 
REMARK       I    between atoms: C_22  and  N_20 
ROOT
ATOM      1  C   LIG d   1      -1.156  80.889 111.983  0.00  0.00     0.161 C 
ATOM      2  C   LIG d   1      -2.002  79.860 112.431  0.00  0.00     0.016 C 
ATOM      3  C   LIG d   1      -1.949  78.538 111.934  0.00  0.00     0.038 C 
ATOM      4  C   LIG d   1      -0.938  78.114 111.058  0.00  0.00     0.028 C 
ATOM      5  C   LIG d   1      -0.375  79.239 110.195  0.00  0.00    -0.047 C 
ATOM      6  C   LIG d   1       0.026  80.419 111.109  0.00  0.00     0.091 C 
ENDROOT
BRANCH   1   7
ATOM      7  O   LIG d   1      -0.675  81.650 113.108  0.00  0.00    -0.368 OA
BRANCH   7   8
ATOM      8  C   LIG d   1       0.565  81.195 113.703  0.00  0.00     0.119 C 
BRANCH   8   9
ATOM      9  C   LIG d   1       0.210  80.465 115.013  0.00  0.00     0.028 C 
ATOM     10  C   LIG d   1       0.482  78.953 114.934  0.00  0.00     0.006 C 
ENDBRANCH   8   9
BRANCH   8  11
ATOM     11  C   LIG d   1       1.448  82.374 114.123  0.00  0.00     0.028 C 
ATOM     12  C   LIG d   1       1.033  83.696 113.457  0.00  0.00     0.006 C 
ENDBRANCH   8  11
ENDBRANCH   7   8
ENDBRANCH   1   7
BRANCH   6  13
ATOM     13  N   LIG d   1       0.509  81.594 110.337  0.00  0.00    -0.311 N 
ATOM     14  C   LIG d   1       1.782  81.986 110.319  0.00  0.00     0.210 C 
ATOM     15  C   LIG d   1       2.062  83.234 109.476  0.00  0.00     0.109 C 
ATOM     16  O   LIG d   1       2.711  81.400 110.894  0.00  0.00    -0.276 OA
ATOM     17  H   LIG d   1      -0.173  82.110 109.816  0.00  0.00     0.149 HD
ENDBRANCH   6  13
BRANCH   5  18
ATOM     18  N   LIG d   1       0.760  78.688 109.431  0.00  0.00     0.381 N 
ATOM     19  H   LIG d   1       1.501  79.359 109.394  0.00  0.00    -0.090 HD
ATOM     20  H   LIG d   1       0.458  78.499 108.491  0.00  0.00    -0.090 HD
ATOM     21  H   LIG d   1       1.084  77.848 109.859  0.00  0.00    -0.090 HD
ENDBRANCH   5  18
BRANCH   3  22
ATOM     22  C   LIG d   1      -2.939  77.632 112.283  0.00  0.00     0.382 C 
ATOM     23  O   LIG d   1      -4.016  77.602 111.640  0.00  0.00    -0.241 OA
ATOM     24  O   LIG d   1      -2.788  76.876 113.261  0.00  0.00    -0.241 OA
ENDBRANCH   3  22
TORSDOF 7
ENDMDL
MODEL 2
REMARK VINA RESULT:      -4.9      2.444      5.561
REMARK  7 active torsions:
REMARK  status: ('A' for Active; 'I' for Inactive)
REMARK    1  A    between atoms: C_2  and  C_3 
REMARK    2  A    between atoms: C_3  and  O_6 
REMARK    3  A    between atoms: C_3  and  C_4 
REMARK    4  A    between atoms: C_7  and  O_6 
REMARK    5  A    between atoms: C_9  and  C_10 
REMARK    6  A    between atoms: N_15  and  C_14 
REMARK    7  A    between atoms: N_20  and  C_19 
REMARK       I    between atoms: C_22  and  N_20 
ROOT
ATOM      1  C   LIG d   1      -0.785  81.852 112.956  0.00  0.00     0.161 C 
ATOM      2  C   LIG d   1       0.051  82.756 113.632  0.00  0.00     0.016 C 
ATOM      3  C   LIG d   1       1.057  82.355 114.541  0.00  0.00     0.038 C 
ATOM      4  C   LIG d   1       1.397  81.007 114.724  0.00  0.00     0.028 C 
ATOM      5  C   LIG d   1       0.245  80.048 114.445  0.00  0.00    -0.047 C 
ATOM      6  C   LIG d   1      -0.354  80.373 113.057  0.00  0.00     0.091 C 
ENDROOT
BRANCH   1   7
ATOM      7  O   LIG d   1      -0.912  82.243 111.575  0.00  0.00    -0.368 OA
BRANCH   7   8
ATOM      8  C   LIG d   1       0.291  82.743 110.940  0.00  0.00     0.119 C 
BRANCH   8   9
ATOM      9  C   LIG d   1      -0.103  83.982 110.114  0.00  0.00     0.028 C 
ATOM     10  C   LIG d   1       1.113  84.663 109.462  0.00  0.00     0.006 C 
ENDBRANCH   8   9
BRANCH   8  11
ATOM     11  C   LIG d   1       0.845  81.738 109.926  0.00  0.00     0.028 C 
ATOM     12  C   LIG d   1       2.247  81.229 110.296  0.00  0.00     0.006 C 
ENDBRANCH   8  11
ENDBRANCH   7   8
ENDBRANCH   1   7
BRANCH   6  13
ATOM     13  N   LIG d   1      -1.542  79.537 112.742  0.00  0.00    -0.311 N 
ATOM     14  C   LIG d   1      -1.638  78.783 111.648  0.00  0.00     0.210 C 
ATOM     15  C   LIG d   1      -2.955  78.015 111.506  0.00  0.00     0.109 C 
ATOM     16  O   LIG d   1      -0.744  78.653 110.798  0.00  0.00    -0.276 OA
ATOM     17  H   LIG d   1      -2.301  79.559 113.394  0.00  0.00     0.149 HD
ENDBRANCH   6  13
BRANCH   5  18
ATOM     18  N   LIG d   1       0.775  78.675 114.538  0.00  0.00     0.381 N 
ATOM     19  H   LIG d   1       1.061  78.360 113.633  0.00  0.00    -0.090 HD
ATOM     20  H   LIG d   1       0.046  78.067 114.868  0.00  0.00    -0.090 HD
ATOM     21  H   LIG d   1       1.547  78.649 115.166  0.00  0.00    -0.090 HD
ENDBRANCH   5  18
BRANCH   3  22
ATOM     22  C   LIG d   1       1.707  83.308 115.311  0.00  0.00     0.382 C 
ATOM     23  O   LIG d   1       2.949  83.238 115.479  0.00  0.00    -0.241 OA
ATOM     24  O   LIG d   1       1.062  84.212 115.875  0.00  0.00    -0.241 OA
ENDBRANCH   3  22
TORSDOF 7
ENDMDL
MODEL 3
REMARK VINA RESULT:      -4.8      2.622      4.990
REMARK  7 active torsions:
REMARK  status: ('A' for Active; 'I' for Inactive)
REMARK    1  A    between atoms: C_2  and  C_3 
REMARK    2  A    between atoms: C_3  and  O_6 
REMARK    3  A    between atoms: C_3  and  C_4 
REMARK    4  A    between atoms: C_7  and  O_6 
REMARK    5  A    between atoms: C_9  and  C_10 
REMARK    6  A    between atoms: N_15  and  C_14 
REMARK    7  A    between atoms: N_20  and  C_19 
REMARK       I    between atoms: C_22  and  N_20 
ROOT
ATOM      1  C   LIG d   1       0.012  79.323 114.239  0.00  0.00     0.161 C 
ATOM      2  C   LIG d   1      -0.281  80.619 113.781  0.00  0.00     0.016 C 
ATOM      3  C   LIG d   1      -1.026  80.879 112.607  0.00  0.00     0.038 C 
ATOM      4  C   LIG d   1      -1.662  79.854 111.891  0.00  0.00     0.028 C 
ATOM      5  C   LIG d   1      -0.974  78.500 112.031  0.00  0.00    -0.047 C 
ATOM      6  C   LIG d   1      -0.767  78.195 113.532  0.00  0.00     0.091 C 
ENDROOT
BRANCH   1   7
ATOM      7  O   LIG d   1      -0.189  79.253 115.665  0.00  0.00    -0.368 OA
BRANCH   7   8
ATOM      8  C   LIG d   1       1.009  79.144 116.473  0.00  0.00     0.119 C 
BRANCH   8   9
ATOM      9  C   LIG d   1       0.816  77.951 117.428  0.00  0.00     0.028 C 
ATOM     10  C   LIG d   1      -0.664  77.571 117.602  0.00  0.00     0.006 C 
ENDBRANCH   8   9
BRANCH   8  11
ATOM     11  C   LIG d   1       1.183  80.366 117.380  0.00  0.00     0.028 C 
ATOM     12  C   LIG d   1      -0.091  81.220 117.479  0.00  0.00     0.006 C 
ENDBRANCH   8  11
ENDBRANCH   7   8
ENDBRANCH   1   7
BRANCH   6  13
ATOM     13  N   LIG d   1      -0.025  76.927 113.756  0.00  0.00    -0.311 N 
ATOM     14  C   LIG d   1      -0.558  75.862 114.352  0.00  0.00     0.210 C 
ATOM     15  C   LIG d   1       0.386  74.665 114.500  0.00  0.00     0.109 C 
ATOM     16  O   LIG d   1      -1.732  75.783 114.743  0.00  0.00    -0.276 OA
ATOM     17  H   LIG d   1       0.924  76.893 113.441  0.00  0.00     0.149 HD
ENDBRANCH   6  13
BRANCH   5  18
ATOM     18  N   LIG d   1      -1.817  77.500 111.348  0.00  0.00     0.381 N 
ATOM     19  H   LIG d   1      -2.620  77.294 111.909  0.00  0.00    -0.090 HD
ATOM     20  H   LIG d   1      -1.288  76.653 111.233  0.00  0.00    -0.090 HD
ATOM     21  H   LIG d   1      -2.103  77.845 110.459  0.00  0.00    -0.090 HD
ENDBRANCH   5  18
BRANCH   3  22
ATOM     22  C   LIG d   1      -1.107  82.173 112.118  0.00  0.00     0.382 C 
ATOM     23  O   LIG d   1      -0.808  82.411 110.923  0.00  0.00    -0.241 OA
ATOM     24  O   LIG d   1      -1.432  83.113 112.868  0.00  0.00    -0.241 OA
ENDBRANCH   3  22
TORSDOF 7
ENDMDL
MODEL 4
REMARK VINA RESULT:      -4.6      2.791      5.238
REMARK  7 active torsions:
REMARK  status: ('A' for Active; 'I' for Inactive)
REMARK    1  A    between atoms: C_2  and  C_3 
REMARK    2  A    between atoms: C_3  and  O_6 
REMARK    3  A    between atoms: C_3  and  C_4 
REMARK    4  A    between atoms: C_7  and  O_6 
REMARK    5  A    between atoms: C_9  and  C_10 
REMARK    6  A    between atoms: N_15  and  C_14 
REMARK    7  A    between atoms: N_20  and  C_19 
REMARK       I    between atoms: C_22  and  N_20 
ROOT
ATOM      1  C   LIG d   1       0.912  80.627 114.121  0.00  0.00     0.161 C 
ATOM      2  C   LIG d   1       0.588  81.823 113.458  0.00  0.00     0.016 C 
ATOM      3  C   LIG d   1      -0.552  81.971 112.635  0.00  0.00     0.038 C 
ATOM      4  C   LIG d   1      -1.533  80.972 112.539  0.00  0.00     0.028 C 
ATOM      5  C   LIG d   1      -0.993  79.568 112.788  0.00  0.00    -0.047 C 
ATOM      6  C   LIG d   1      -0.204  79.562 114.117  0.00  0.00     0.091 C 
ENDROOT
BRANCH   1   7
ATOM      7  O   LIG d   1       1.327  80.914 115.471  0.00  0.00    -0.368 OA
BRANCH   7   8
ATOM      8  C   LIG d   1       0.297  81.409 116.362  0.00  0.00     0.119 C 
BRANCH   8   9
ATOM      9  C   LIG d   1       0.802  82.735 116.963  0.00  0.00     0.028 C 
ATOM     10  C   LIG d   1       0.055  83.956 116.401  0.00  0.00     0.006 C 
ENDBRANCH   8   9
BRANCH   8  11
ATOM     11  C   LIG d   1       0.098  80.472 117.557  0.00  0.00     0.028 C 
ATOM     12  C   LIG d   1      -0.921  81.012 118.574  0.00  0.00     0.006 C 
ENDBRANCH   8  11
ENDBRANCH   7   8
ENDBRANCH   1   7
BRANCH   6  13
ATOM     13  N   LIG d   1       0.429  78.246 114.395  0.00  0.00    -0.311 N 
ATOM     14  C   LIG d   1      -0.133  77.308 115.155  0.00  0.00     0.210 C 
ATOM     15  C   LIG d   1       0.698  76.033 115.329  0.00  0.00     0.109 C 
ATOM     16  O   LIG d   1      -1.255  77.398 115.675  0.00  0.00    -0.276 OA
ATOM     17  H   LIG d   1       1.327  78.077 113.986  0.00  0.00     0.149 HD
ENDBRANCH   6  13
BRANCH   5  18
ATOM     18  N   LIG d   1      -2.143  78.644 112.794  0.00  0.00     0.381 N 
ATOM     19  H   LIG d   1      -2.903  79.045 112.282  0.00  0.00    -0.090 HD
ATOM     20  H   LIG d   1      -2.441  78.502 113.743  0.00  0.00    -0.090 HD
ATOM     21  H   LIG d   1      -1.882  77.773 112.387  0.00  0.00    -0.090 HD
ENDBRANCH   5  18
BRANCH   3  22
ATOM     22  C   LIG d   1      -0.699  83.115 111.865  0.00  0.00     0.382 C 
ATOM     23  O   LIG d   1      -0.942  84.215 112.416  0.00  0.00    -0.241 OA
ATOM     24  O   LIG d   1      -0.637  83.052 110.622  0.00  0.00    -0.241 OA
ENDBRANCH   3  22
TORSDOF 7
ENDMDL
MODEL 5
REMARK VINA RESULT:      -4.5      2.652      5.748
REMARK  7 active torsions:
REMARK  status: ('A' for Active; 'I' for Inactive)
REMARK    1  A    between atoms: C_2  and  C_3 
REMARK    2  A    between atoms: C_3  and  O_6 
REMARK    3  A    between atoms: C_3  and  C_4 
REMARK    4  A    between atoms: C_7  and  O_6 
REMARK    5  A    between atoms: C_9  and  C_10 
REMARK    6  A    between atoms: N_15  and  C_14 
REMARK    7  A    between atoms: N_20  and  C_19 
REMARK       I    between atoms: C_22  and  N_20 
ROOT
ATOM      1  C   LIG d   1       0.483  79.399 114.508  0.00  0.00     0.161 C 
ATOM      2  C   LIG d   1       1.357  80.266 115.185  0.00  0.00     0.016 C 
ATOM      3  C   LIG d   1       1.424  81.656 114.934  0.00  0.00     0.038 C 
ATOM      4  C   LIG d   1       0.509  82.301 114.089  0.00  0.00     0.028 C 
ATOM      5  C   LIG d   1      -0.060  81.392 113.004  0.00  0.00    -0.047 C 
ATOM      6  C   LIG d   1      -0.599  80.102 113.663  0.00  0.00     0.091 C 
ENDROOT
BRANCH   1   7
ATOM      7  O   LIG d   1      -0.125  78.489 115.446  0.00  0.00    -0.368 OA
BRANCH   7   8
ATOM      8  C   LIG d   1       0.473  77.172 115.536  0.00  0.00     0.119 C 
BRANCH   8   9
ATOM      9  C   LIG d   1      -0.437  76.197 114.763  0.00  0.00     0.028 C 
ATOM     10  C   LIG d   1      -1.928  76.421 115.065  0.00  0.00     0.006 C 
ENDBRANCH   8   9
BRANCH   8  11
ATOM     11  C   LIG d   1       0.481  76.662 116.979  0.00  0.00     0.028 C 
ATOM     12  C   LIG d   1       0.178  77.766 118.004  0.00  0.00     0.006 C 
ENDBRANCH   8  11
ENDBRANCH   7   8
ENDBRANCH   1   7
BRANCH   6  13
ATOM     13  N   LIG d   1      -1.098  79.121 112.664  0.00  0.00    -0.311 N 
ATOM     14  C   LIG d   1      -2.370  79.051 112.277  0.00  0.00     0.210 C 
ATOM     15  C   LIG d   1      -2.675  77.954 111.252  0.00  0.00     0.109 C 
ATOM     16  O   LIG d   1      -3.269  79.815 112.661  0.00  0.00    -0.276 OA
ATOM     17  H   LIG d   1      -0.429  78.484 112.278  0.00  0.00     0.149 HD
ENDBRANCH   6  13
BRANCH   5  18
ATOM     18  N   LIG d   1      -1.099  82.153 112.285  0.00  0.00     0.381 N 
ATOM     19  H   LIG d   1      -1.057  81.943 111.308  0.00  0.00    -0.090 HD
ATOM     20  H   LIG d   1      -0.925  83.135 112.405  0.00  0.00    -0.090 HD
ATOM     21  H   LIG d   1      -2.000  81.922 112.644  0.00  0.00    -0.090 HD
ENDBRANCH   5  18
BRANCH   3  22
ATOM     22  C   LIG d   1       2.441  82.409 115.501  0.00  0.00     0.382 C 
ATOM     23  O   LIG d   1       2.500  83.644 115.288  0.00  0.00    -0.241 OA
ATOM     24  O   LIG d   1       3.326  81.861 116.186  0.00  0.00    -0.241 OA
ENDBRANCH   3  22
TORSDOF 7
ENDMDL
MODEL 6
REMARK VINA RESULT:      -4.3      3.366      6.284
REMARK  7 active torsions:
REMARK  status: ('A' for Active; 'I' for Inactive)
REMARK    1  A    between atoms: C_2  and  C_3 
REMARK    2  A    between atoms: C_3  and  O_6 
REMARK    3  A    between atoms: C_3  and  C_4 
REMARK    4  A    between atoms: C_7  and  O_6 
REMARK    5  A    between atoms: C_9  and  C_10 
REMARK    6  A    between atoms: N_15  and  C_14 
REMARK    7  A    between atoms: N_20  and  C_19 
REMARK       I    between atoms: C_22  and  N_20 
ROOT
ATOM      1  C   LIG d   1       0.361  79.398 114.683  0.00  0.00     0.161 C 
ATOM      2  C   LIG d   1       1.618  79.966 114.949  0.00  0.00     0.016 C 
ATOM      3  C   LIG d   1       2.619  79.318 115.709  0.00  0.00     0.038 C 
ATOM      4  C   LIG d   1       2.485  77.986 116.129  0.00  0.00     0.028 C 
ATOM      5  C   LIG d   1       1.035  77.553 116.317  0.00  0.00    -0.047 C 
ATOM      6  C   LIG d   1       0.238  77.902 115.039  0.00  0.00     0.091 C 
ENDROOT
BRANCH   1   7
ATOM      7  O   LIG d   1       0.010  79.615 113.302  0.00  0.00    -0.368 OA
BRANCH   7   8
ATOM      8  C   LIG d   1      -1.034  80.589 113.054  0.00  0.00     0.119 C 
BRANCH   8   9
ATOM      9  C   LIG d   1      -2.209  79.848 112.388  0.00  0.00     0.028 C 
ATOM     10  C   LIG d   1      -1.758  78.578 111.647  0.00  0.00     0.006 C 
ENDBRANCH   8   9
BRANCH   8  11
ATOM     11  C   LIG d   1      -0.586  81.639 112.034  0.00  0.00     0.028 C 
ATOM     12  C   LIG d   1       0.819  81.366 111.475  0.00  0.00     0.006 C 
ENDBRANCH   8  11
ENDBRANCH   7   8
ENDBRANCH   1   7
BRANCH   6  13
ATOM     13  N   LIG d   1      -1.208  77.588 115.169  0.00  0.00    -0.311 N 
ATOM     14  C   LIG d   1      -1.744  76.429 114.789  0.00  0.00     0.210 C 
ATOM     15  C   LIG d   1      -3.258  76.319 114.994  0.00  0.00     0.109 C 
ATOM     16  O   LIG d   1      -1.105  75.470 114.332  0.00  0.00    -0.276 OA
ATOM     17  H   LIG d   1      -1.796  78.298 115.560  0.00  0.00     0.149 HD
ENDBRANCH   6  13
BRANCH   5  18
ATOM     18  N   LIG d   1       1.037  76.109 116.621  0.00  0.00     0.381 N 
ATOM     19  H   LIG d   1       1.652  75.632 115.992  0.00  0.00    -0.090 HD
ATOM     20  H   LIG d   1       0.109  75.748 116.490  0.00  0.00    -0.090 HD
ATOM     21  H   LIG d   1       1.330  75.960 117.561  0.00  0.00    -0.090 HD
ENDBRANCH   5  18
BRANCH   3  22
ATOM     22  C   LIG d   1       3.754  80.018 116.090  0.00  0.00     0.382 C 
ATOM     23  O   LIG d   1       3.650  81.187 116.533  0.00  0.00    -0.241 OA
ATOM     24  O   LIG d   1       4.884  79.512 115.953  0.00  0.00    -0.241 OA
ENDBRANCH   3  22
TORSDOF 7
ENDMDL
MODEL 7
REMARK VINA RESULT:      -4.3      4.364      6.297
REMARK  7 active torsions:
REMARK  status: ('A' for Active; 'I' for Inactive)
REMARK    1  A    between atoms: C_2  and  C_3 
REMARK    2  A    between atoms: C_3  and  O_6 
REMARK    3  A    between atoms: C_3  and  C_4 
REMARK    4  A    between atoms: C_7  and  O_6 
REMARK    5  A    between atoms: C_9  and  C_10 
REMARK    6  A    between atoms: N_15  and  C_14 
REMARK    7  A    between atoms: N_20  and  C_19 
REMARK       I    between atoms: C_22  and  N_20 
ROOT
ATOM      1  C   LIG d   1       0.607  77.060 115.366  0.00  0.00     0.161 C 
ATOM      2  C   LIG d   1      -0.260  77.468 114.338  0.00  0.00     0.016 C 
ATOM      3  C   LIG d   1      -1.585  76.994 114.204  0.00  0.00     0.038 C 
ATOM      4  C   LIG d   1      -2.187  76.189 115.182  0.00  0.00     0.028 C 
ATOM      5  C   LIG d   1      -1.191  75.348 115.973  0.00  0.00    -0.047 C 
ATOM      6  C   LIG d   1      -0.069  76.268 116.505  0.00  0.00     0.091 C 
ENDROOT
BRANCH   1   7
ATOM      7  O   LIG d   1       1.307  78.202 115.896  0.00  0.00    -0.368 OA
BRANCH   7   8
ATOM      8  C   LIG d   1       1.058  79.467 115.234  0.00  0.00     0.119 C 
BRANCH   8   9
ATOM      9  C   LIG d   1       2.426  80.084 114.884  0.00  0.00     0.028 C 
ATOM     10  C   LIG d   1       3.560  79.536 115.766  0.00  0.00     0.006 C 
ENDBRANCH   8   9
BRANCH   8  11
ATOM     11  C   LIG d   1       0.392  80.469 116.181  0.00  0.00     0.028 C 
ATOM     12  C   LIG d   1      -0.013  79.842 117.525  0.00  0.00     0.006 C 
ENDBRANCH   8  11
ENDBRANCH   7   8
ENDBRANCH   1   7
BRANCH   6  13
ATOM     13  N   LIG d   1       0.993  75.513 117.219  0.00  0.00    -0.311 N 
ATOM     14  C   LIG d   1       1.288  75.700 118.504  0.00  0.00     0.210 C 
ATOM     15  C   LIG d   1       2.431  74.830 119.039  0.00  0.00     0.109 C 
ATOM     16  O   LIG d   1       0.691  76.480 119.261  0.00  0.00    -0.276 OA
ATOM     17  H   LIG d   1       1.507  74.837 116.689  0.00  0.00     0.149 HD
ENDBRANCH   6  13
BRANCH   5  18
ATOM     18  N   LIG d   1      -1.937  74.665 117.046  0.00  0.00     0.381 N 
ATOM     19  H   LIG d   1      -1.647  75.017 117.937  0.00  0.00    -0.090 HD
ATOM     20  H   LIG d   1      -1.728  73.683 117.013  0.00  0.00    -0.090 HD
ATOM     21  H   LIG d   1      -2.915  74.809 116.926  0.00  0.00    -0.090 HD
ENDBRANCH   5  18
BRANCH   3  22
ATOM     22  C   LIG d   1      -2.309  77.293 113.059  0.00  0.00     0.382 C 
ATOM     23  O   LIG d   1      -3.336  78.009 113.137  0.00  0.00    -0.241 OA
ATOM     24  O   LIG d   1      -1.973  76.819 111.958  0.00  0.00    -0.241 OA
ENDBRANCH   3  22
TORSDOF 7
ENDMDL
MODEL 8
REMARK VINA RESULT:      -4.3      2.013      2.528
REMARK  7 active torsions:
REMARK  status: ('A' for Active; 'I' for Inactive)
REMARK    1  A    between atoms: C_2  and  C_3 
REMARK    2  A    between atoms: C_3  and  O_6 
REMARK    3  A    between atoms: C_3  and  C_4 
REMARK    4  A    between atoms: C_7  and  O_6 
REMARK    5  A    between atoms: C_9  and  C_10 
REMARK    6  A    between atoms: N_15  and  C_14 
REMARK    7  A    between atoms: N_20  and  C_19 
REMARK       I    between atoms: C_22  and  N_20 
ROOT
ATOM      1  C   LIG d   1       0.117  79.986 113.712  0.00  0.00     0.161 C 
ATOM      2  C   LIG d   1      -0.017  78.806 114.463  0.00  0.00     0.016 C 
ATOM      3  C   LIG d   1      -0.642  77.638 113.970  0.00  0.00     0.038 C 
ATOM      4  C   LIG d   1      -1.045  77.520 112.632  0.00  0.00     0.028 C 
ATOM      5  C   LIG d   1      -1.387  78.857 111.982  0.00  0.00    -0.047 C 
ATOM      6  C   LIG d   1      -0.217  79.840 112.213  0.00  0.00     0.091 C 
ENDROOT
BRANCH   1   7
ATOM      7  O   LIG d   1       1.443  80.524 113.880  0.00  0.00    -0.368 OA
BRANCH   7   8
ATOM      8  C   LIG d   1       1.543  81.746 114.653  0.00  0.00     0.119 C 
BRANCH   8   9
ATOM      9  C   LIG d   1       2.144  81.379 116.024  0.00  0.00     0.028 C 
ATOM     10  C   LIG d   1       3.182  80.248 115.925  0.00  0.00     0.006 C 
ENDBRANCH   8   9
BRANCH   8  11
ATOM     11  C   LIG d   1       0.158  82.325 114.960  0.00  0.00     0.028 C 
ATOM     12  C   LIG d   1      -0.058  83.713 114.337  0.00  0.00     0.006 C 
ENDBRANCH   8  11
ENDBRANCH   7   8
ENDBRANCH   1   7
BRANCH   6  13
ATOM     13  N   LIG d   1      -0.505  81.198 111.682  0.00  0.00    -0.311 N 
ATOM     14  C   LIG d   1       0.385  81.926 111.009  0.00  0.00     0.210 C 
ATOM     15  C   LIG d   1      -0.111  83.307 110.568  0.00  0.00     0.109 C 
ATOM     16  O   LIG d   1       1.526  81.547 110.707  0.00  0.00    -0.276 OA
ATOM     17  H   LIG d   1      -1.418  81.571 111.854  0.00  0.00     0.149 HD
ENDBRANCH   6  13
BRANCH   5  18
ATOM     18  N   LIG d   1      -1.656  78.603 110.554  0.00  0.00     0.381 N 
ATOM     19  H   LIG d   1      -2.574  78.923 110.320  0.00  0.00    -0.090 HD
ATOM     20  H   LIG d   1      -1.615  77.613 110.387  0.00  0.00    -0.090 HD
ATOM     21  H   LIG d   1      -0.979  79.070 109.991  0.00  0.00    -0.090 HD
ENDBRANCH   5  18
BRANCH   3  22
ATOM     22  C   LIG d   1      -0.907  76.585 114.833  0.00  0.00     0.382 C 
ATOM     23  O   LIG d   1      -0.078  76.281 115.725  0.00  0.00    -0.241 OA
ATOM     24  O   LIG d   1      -1.943  75.906 114.702  0.00  0.00    -0.241 OA
ENDBRANCH   3  22
TORSDOF 7
ENDMDL
MODEL 9
REMARK VINA RESULT:      -4.2      3.044      5.843
REMARK  7 active torsions:
REMARK  status: ('A' for Active; 'I' for Inactive)
REMARK    1  A    between atoms: C_2  and  C_3 
REMARK    2  A    between atoms: C_3  and  O_6 
REMARK    3  A    between atoms: C_3  and  C_4 
REMARK    4  A    between atoms: C_7  and  O_6 
REMARK    5  A    between atoms: C_9  and  C_10 
REMARK    6  A    between atoms: N_15  and  C_14 
REMARK    7  A    between atoms: N_20  and  C_19 
REMARK       I    between atoms: C_22  and  N_20 
ROOT
ATOM      1  C   LIG d   1      -0.565  80.055 113.876  0.00  0.00     0.161 C 
ATOM      2  C   LIG d   1      -0.713  80.981 112.831  0.00  0.00     0.016 C 
ATOM      3  C   LIG d   1      -0.253  82.317 112.904  0.00  0.00     0.038 C 
ATOM      4  C   LIG d   1       0.525  82.775 113.977  0.00  0.00     0.028 C 
ATOM      5  C   LIG d   1       0.267  82.022 115.278  0.00  0.00    -0.047 C 
ATOM      6  C   LIG d   1       0.380  80.504 115.011  0.00  0.00     0.091 C 
ENDROOT
BRANCH   1   7
ATOM      7  O   LIG d   1      -0.141  78.783 113.346  0.00  0.00    -0.368 OA
BRANCH   7   8
ATOM      8  C   LIG d   1      -1.122  77.718 113.382  0.00  0.00     0.119 C 
BRANCH   8   9
ATOM      9  C   LIG d   1      -0.475  76.517 114.098  0.00  0.00     0.028 C 
ATOM     10  C   LIG d   1      -1.331  76.000 115.267  0.00  0.00     0.006 C 
ENDBRANCH   8   9
BRANCH   8  11
ATOM     11  C   LIG d   1      -1.456  77.219 111.973  0.00  0.00     0.028 C 
ATOM     12  C   LIG d   1      -2.687  77.914 111.371  0.00  0.00     0.006 C 
ENDBRANCH   8  11
ENDBRANCH   7   8
ENDBRANCH   1   7
BRANCH   6  13
ATOM     13  N   LIG d   1       0.058  79.691 116.212  0.00  0.00    -0.311 N 
ATOM     14  C   LIG d   1       0.875  78.764 116.711  0.00  0.00     0.210 C 
ATOM     15  C   LIG d   1       0.342  78.028 117.943  0.00  0.00     0.109 C 
ATOM     16  O   LIG d   1       2.004  78.505 116.268  0.00  0.00    -0.276 OA
ATOM     17  H   LIG d   1      -0.825  79.858 116.653  0.00  0.00     0.149 HD
ENDBRANCH   6  13
BRANCH   5  18
ATOM     18  N   LIG d   1       1.240  82.508 116.275  0.00  0.00     0.381 N 
ATOM     19  H   LIG d   1       1.342  83.500 116.194  0.00  0.00    -0.090 HD
ATOM     20  H   LIG d   1       2.132  82.083 116.092  0.00  0.00    -0.090 HD
ATOM     21  H   LIG d   1       0.934  82.272 117.193  0.00  0.00    -0.090 HD
ENDBRANCH   5  18
BRANCH   3  22
ATOM     22  C   LIG d   1      -0.606  83.220 111.914  0.00  0.00     0.382 C 
ATOM     23  O   LIG d   1      -0.876  84.408 112.215  0.00  0.00    -0.241 OA
ATOM     24  O   LIG d   1      -0.702  82.852 110.728  0.00  0.00    -0.241 OA
ENDBRANCH   3  22
TORSDOF 7
ENDMDL
