MODEL 1
REMARK VINA RESULT:      -5.5      0.000      0.000
REMARK  7 active torsions:
REMARK  status: ('A' for Active; 'I' for Inactive)
REMARK    1  A    between atoms: C_2  and  C_3 
REMARK    2  A    between atoms: C_3  and  O_6 
REMARK    3  A    between atoms: C_3  and  C_4 
REMARK    4  A    between atoms: C_7  and  O_6 
REMARK    5  A    between atoms: C_9  and  C_10 
REMARK    6  A    between atoms: N_15  and  C_14 
REMARK    7  A    between atoms: N_20  and  C_19 
REMARK       I    between atoms: C_22  and  N_20 
ROOT
ATOM      1  C   LIG d   1       0.477  82.895 112.364  0.00  0.00     0.161 C 
ATOM      2  C   LIG d   1      -0.739  82.467 112.921  0.00  0.00     0.016 C 
ATOM      3  C   LIG d   1      -1.369  81.250 112.573  0.00  0.00     0.038 C 
ATOM      4  C   LIG d   1      -0.745  80.301 111.749  0.00  0.00     0.028 C 
ATOM      5  C   LIG d   1       0.250  80.911 110.768  0.00  0.00    -0.047 C 
ATOM      6  C   LIG d   1       1.228  81.822 111.547  0.00  0.00     0.091 C 
ENDROOT
BRANCH   1   7
ATOM      7  O   LIG d   1       1.330  83.423 113.398  0.00  0.00    -0.368 OA
BRANCH   7   8
ATOM      8  C   LIG d   1       0.823  83.328 114.752  0.00  0.00     0.119 C 
BRANCH   8   9
ATOM      9  C   LIG d   1       1.088  84.680 115.442  0.00  0.00     0.028 C 
ATOM     10  C   LIG d   1       2.100  84.563 116.595  0.00  0.00     0.006 C 
ENDBRANCH   8   9
BRANCH   8  11
ATOM     11  C   LIG d   1       1.606  82.296 115.569  0.00  0.00     0.028 C 
ATOM     12  C   LIG d   1       0.695  81.290 116.289  0.00  0.00     0.006 C 
ENDBRANCH   8  11
ENDBRANCH   7   8
ENDBRANCH   1   7
BRANCH   6  13
ATOM     13  N   LIG d   1       2.183  82.525 110.651  0.00  0.00    -0.311 N 
ATOM     14  C   LIG d   1       3.427  82.103 110.430  0.00  0.00     0.210 C 
ATOM     15  C   LIG d   1       4.251  82.986 109.489  0.00  0.00     0.109 C 
ATOM     16  O   LIG d   1       3.915  81.064 110.900  0.00  0.00    -0.276 OA
ATOM     17  H   LIG d   1       1.859  83.360 110.205  0.00  0.00     0.149 HD
ENDBRANCH   6  13
BRANCH   5  18
ATOM     18  N   LIG d   1       0.926  79.801 110.070  0.00  0.00     0.381 N 
ATOM     19  H   LIG d   1       0.254  79.110 109.803  0.00  0.00    -0.090 HD
ATOM     20  H   LIG d   1       1.584  79.375 110.698  0.00  0.00    -0.090 HD
ATOM     21  H   LIG d   1       1.399  80.144 109.263  0.00  0.00    -0.090 HD
ENDBRANCH   5  18
BRANCH   3  22
ATOM     22  C   LIG d   1      -2.656  80.990 113.019  0.00  0.00     0.382 C 
ATOM     23  O   LIG d   1      -3.641  81.462 112.402  0.00  0.00    -0.241 OA
ATOM     24  O   LIG d   1      -2.843  80.327 114.057  0.00  0.00    -0.241 OA
ENDBRANCH   3  22
TORSDOF 7
ENDMDL
MODEL 2
REMARK VINA RESULT:      -5.0      3.313      5.261
REMARK  7 active torsions:
REMARK  status: ('A' for Active; 'I' for Inactive)
REMARK    1  A    between atoms: C_2  and  C_3 
REMARK    2  A    between atoms: C_3  and  O_6 
REMARK    3  A    between atoms: C_3  and  C_4 
REMARK    4  A    between atoms: C_7  and  O_6 
REMARK    5  A    between atoms: C_9  and  C_10 
REMARK    6  A    between atoms: N_15  and  C_14 
REMARK    7  A    between atoms: N_20  and  C_19 
REMARK       I    between atoms: C_22  and  N_20 
ROOT
ATOM      1  C   LIG d   1      -0.803  80.615 115.333  0.00  0.00     0.161 C 
ATOM      2  C   LIG d   1      -0.841  81.998 115.086  0.00  0.00     0.016 C 
ATOM      3  C   LIG d   1      -0.944  82.554 113.790  0.00  0.00     0.038 C 
ATOM      4  C   LIG d   1      -1.170  81.758 112.657  0.00  0.00     0.028 C 
ATOM      5  C   LIG d   1      -0.633  80.337 112.799  0.00  0.00    -0.047 C 
ATOM      6  C   LIG d   1      -1.160  79.731 114.120  0.00  0.00     0.091 C 
ENDROOT
BRANCH   1   7
ATOM      7  O   LIG d   1      -1.653  80.296 116.453  0.00  0.00    -0.368 OA
BRANCH   7   8
ATOM      8  C   LIG d   1      -3.077  80.286 116.190  0.00  0.00     0.119 C 
BRANCH   8   9
ATOM      9  C   LIG d   1      -3.735  81.284 117.163  0.00  0.00     0.028 C 
ATOM     10  C   LIG d   1      -2.786  81.711 118.295  0.00  0.00     0.006 C 
ENDBRANCH   8   9
BRANCH   8  11
ATOM     11  C   LIG d   1      -3.696  78.926 116.525  0.00  0.00     0.028 C 
ATOM     12  C   LIG d   1      -2.761  78.034 117.358  0.00  0.00     0.006 C 
ENDBRANCH   8  11
ENDBRANCH   7   8
ENDBRANCH   1   7
BRANCH   6  13
ATOM     13  N   LIG d   1      -0.614  78.373 114.377  0.00  0.00    -0.311 N 
ATOM     14  C   LIG d   1      -1.243  77.252 114.027  0.00  0.00     0.210 C 
ATOM     15  C   LIG d   1      -0.515  75.958 114.404  0.00  0.00     0.109 C 
ATOM     16  O   LIG d   1      -2.318  77.207 113.410  0.00  0.00    -0.276 OA
ATOM     17  H   LIG d   1       0.269  78.317 114.845  0.00  0.00     0.149 HD
ENDBRANCH   6  13
BRANCH   5  18
ATOM     18  N   LIG d   1      -1.057  79.580 111.606  0.00  0.00     0.381 N 
ATOM     19  H   LIG d   1      -0.648  79.983 110.786  0.00  0.00    -0.090 HD
ATOM     20  H   LIG d   1      -2.057  79.640 111.521  0.00  0.00    -0.090 HD
ATOM     21  H   LIG d   1      -0.780  78.627 111.691  0.00  0.00    -0.090 HD
ENDBRANCH   5  18
BRANCH   3  22
ATOM     22  C   LIG d   1      -0.782  83.920 113.614  0.00  0.00     0.382 C 
ATOM     23  O   LIG d   1      -0.834  84.414 112.462  0.00  0.00    -0.241 OA
ATOM     24  O   LIG d   1      -0.539  84.658 114.587  0.00  0.00    -0.241 OA
ENDBRANCH   3  22
TORSDOF 7
ENDMDL
MODEL 3
REMARK VINA RESULT:      -5.0      2.643      4.736
REMARK  7 active torsions:
REMARK  status: ('A' for Active; 'I' for Inactive)
REMARK    1  A    between atoms: C_2  and  C_3 
REMARK    2  A    between atoms: C_3  and  O_6 
REMARK    3  A    between atoms: C_3  and  C_4 
REMARK    4  A    between atoms: C_7  and  O_6 
REMARK    5  A    between atoms: C_9  and  C_10 
REMARK    6  A    between atoms: N_15  and  C_14 
REMARK    7  A    between atoms: N_20  and  C_19 
REMARK       I    between atoms: C_22  and  N_20 
ROOT
ATOM      1  C   LIG d   1      -0.451  80.903 112.269  0.00  0.00     0.161 C 
ATOM      2  C   LIG d   1      -1.170  79.722 112.024  0.00  0.00     0.016 C 
ATOM      3  C   LIG d   1      -2.086  79.163 112.945  0.00  0.00     0.038 C 
ATOM      4  C   LIG d   1      -2.460  79.834 114.118  0.00  0.00     0.028 C 
ATOM      5  C   LIG d   1      -1.386  80.779 114.644  0.00  0.00    -0.047 C 
ATOM      6  C   LIG d   1      -0.929  81.708 113.496  0.00  0.00     0.091 C 
ENDROOT
BRANCH   1   7
ATOM      7  O   LIG d   1      -0.459  81.734 111.091  0.00  0.00    -0.368 OA
BRANCH   7   8
ATOM      8  C   LIG d   1       0.717  81.657 110.249  0.00  0.00     0.119 C 
BRANCH   8   9
ATOM      9  C   LIG d   1       1.896  81.219 111.139  0.00  0.00     0.028 C 
ATOM     10  C   LIG d   1       3.260  81.535 110.504  0.00  0.00     0.006 C 
ENDBRANCH   8   9
BRANCH   8  11
ATOM     11  C   LIG d   1       1.107  83.036 109.709  0.00  0.00     0.028 C 
ATOM     12  C   LIG d   1       0.199  84.159 110.233  0.00  0.00     0.006 C 
ENDBRANCH   8  11
ENDBRANCH   7   8
ENDBRANCH   1   7
BRANCH   6  13
ATOM     13  N   LIG d   1       0.181  82.609 113.903  0.00  0.00    -0.311 N 
ATOM     14  C   LIG d   1       0.068  83.935 113.955  0.00  0.00     0.210 C 
ATOM     15  C   LIG d   1       1.339  84.676 114.380  0.00  0.00     0.109 C 
ATOM     16  O   LIG d   1      -0.974  84.565 113.720  0.00  0.00    -0.276 OA
ATOM     17  H   LIG d   1       1.054  82.179 114.141  0.00  0.00     0.149 HD
ENDBRANCH   6  13
BRANCH   5  18
ATOM     18  N   LIG d   1      -1.959  81.513 115.788  0.00  0.00     0.381 N 
ATOM     19  H   LIG d   1      -1.239  82.027 116.256  0.00  0.00    -0.090 HD
ATOM     20  H   LIG d   1      -2.347  80.852 116.437  0.00  0.00    -0.090 HD
ATOM     21  H   LIG d   1      -2.669  82.136 115.472  0.00  0.00    -0.090 HD
ENDBRANCH   5  18
BRANCH   3  22
ATOM     22  C   LIG d   1      -2.609  77.899 112.713  0.00  0.00     0.382 C 
ATOM     23  O   LIG d   1      -3.718  77.775 112.142  0.00  0.00    -0.241 OA
ATOM     24  O   LIG d   1      -2.005  76.884 113.109  0.00  0.00    -0.241 OA
ENDBRANCH   3  22
TORSDOF 7
ENDMDL
MODEL 4
REMARK VINA RESULT:      -4.9      2.338      4.855
REMARK  7 active torsions:
REMARK  status: ('A' for Active; 'I' for Inactive)
REMARK    1  A    between atoms: C_2  and  C_3 
REMARK    2  A    between atoms: C_3  and  O_6 
REMARK    3  A    between atoms: C_3  and  C_4 
REMARK    4  A    between atoms: C_7  and  O_6 
REMARK    5  A    between atoms: C_9  and  C_10 
REMARK    6  A    between atoms: N_15  and  C_14 
REMARK    7  A    between atoms: N_20  and  C_19 
REMARK       I    between atoms: C_22  and  N_20 
ROOT
ATOM      1  C   LIG d   1       1.227  81.757 113.039  0.00  0.00     0.161 C 
ATOM      2  C   LIG d   1       0.014  81.363 112.451  0.00  0.00     0.016 C 
ATOM      3  C   LIG d   1      -1.230  81.421 113.121  0.00  0.00     0.038 C 
ATOM      4  C   LIG d   1      -1.367  82.024 114.380  0.00  0.00     0.028 C 
ATOM      5  C   LIG d   1      -0.092  81.976 115.216  0.00  0.00    -0.047 C 
ATOM      6  C   LIG d   1       1.082  82.521 114.371  0.00  0.00     0.091 C 
ENDROOT
BRANCH   1   7
ATOM      7  O   LIG d   1       1.996  82.532 112.098  0.00  0.00    -0.368 OA
BRANCH   7   8
ATOM      8  C   LIG d   1       1.930  82.105 110.715  0.00  0.00     0.119 C 
BRANCH   8   9
ATOM      9  C   LIG d   1       3.148  81.198 110.452  0.00  0.00     0.028 C 
ATOM     10  C   LIG d   1       2.825  80.047 109.485  0.00  0.00     0.006 C 
ENDBRANCH   8   9
BRANCH   8  11
ATOM     11  C   LIG d   1       2.092  83.289 109.757  0.00  0.00     0.028 C 
ATOM     12  C   LIG d   1       3.485  83.934 109.837  0.00  0.00     0.006 C 
ENDBRANCH   8  11
ENDBRANCH   7   8
ENDBRANCH   1   7
BRANCH   6  13
ATOM     13  N   LIG d   1       2.383  82.431 115.085  0.00  0.00    -0.311 N 
ATOM     14  C   LIG d   1       2.881  83.418 115.828  0.00  0.00     0.210 C 
ATOM     15  C   LIG d   1       4.245  83.126 116.461  0.00  0.00     0.109 C 
ATOM     16  O   LIG d   1       2.307  84.495 116.051  0.00  0.00    -0.276 OA
ATOM     17  H   LIG d   1       2.900  81.580 114.985  0.00  0.00     0.149 HD
ENDBRANCH   6  13
BRANCH   5  18
ATOM     18  N   LIG d   1      -0.334  82.759 116.443  0.00  0.00     0.381 N 
ATOM     19  H   LIG d   1       0.535  83.091 116.809  0.00  0.00    -0.090 HD
ATOM     20  H   LIG d   1      -0.759  82.162 117.130  0.00  0.00    -0.090 HD
ATOM     21  H   LIG d   1      -0.935  83.528 116.243  0.00  0.00    -0.090 HD
ENDBRANCH   5  18
BRANCH   3  22
ATOM     22  C   LIG d   1      -2.348  80.836 112.546  0.00  0.00     0.382 C 
ATOM     23  O   LIG d   1      -2.267  79.689 112.043  0.00  0.00    -0.241 OA
ATOM     24  O   LIG d   1      -3.426  81.458 112.484  0.00  0.00    -0.241 OA
ENDBRANCH   3  22
TORSDOF 7
ENDMDL
MODEL 5
REMARK VINA RESULT:      -4.8      2.368      3.410
REMARK  7 active torsions:
REMARK  status: ('A' for Active; 'I' for Inactive)
REMARK    1  A    between atoms: C_2  and  C_3 
REMARK    2  A    between atoms: C_3  and  O_6 
REMARK    3  A    between atoms: C_3  and  C_4 
REMARK    4  A    between atoms: C_7  and  O_6 
REMARK    5  A    between atoms: C_9  and  C_10 
REMARK    6  A    between atoms: N_15  and  C_14 
REMARK    7  A    between atoms: N_20  and  C_19 
REMARK       I    between atoms: C_22  and  N_20 
ROOT
ATOM      1  C   LIG d   1      -2.215  81.385 113.922  0.00  0.00     0.161 C 
ATOM      2  C   LIG d   1      -2.603  80.170 114.510  0.00  0.00     0.016 C 
ATOM      3  C   LIG d   1      -2.267  78.905 113.976  0.00  0.00     0.038 C 
ATOM      4  C   LIG d   1      -1.386  78.767 112.893  0.00  0.00     0.028 C 
ATOM      5  C   LIG d   1      -1.377  79.975 111.962  0.00  0.00    -0.047 C 
ATOM      6  C   LIG d   1      -1.161  81.255 112.803  0.00  0.00     0.091 C 
ENDROOT
BRANCH   1   7
ATOM      7  O   LIG d   1      -1.755  82.296 114.940  0.00  0.00    -0.368 OA
BRANCH   7   8
ATOM      8  C   LIG d   1      -0.367  82.164 115.333  0.00  0.00     0.119 C 
BRANCH   8   9
ATOM      9  C   LIG d   1      -0.342  81.835 116.838  0.00  0.00     0.028 C 
ATOM     10  C   LIG d   1      -1.728  81.969 117.491  0.00  0.00     0.006 C 
ENDBRANCH   8   9
BRANCH   8  11
ATOM     11  C   LIG d   1       0.380  83.494 115.196  0.00  0.00     0.028 C 
ATOM     12  C   LIG d   1      -0.559  84.678 114.911  0.00  0.00     0.006 C 
ENDBRANCH   8  11
ENDBRANCH   7   8
ENDBRANCH   1   7
BRANCH   6  13
ATOM     13  N   LIG d   1      -1.224  82.490 111.979  0.00  0.00    -0.311 N 
ATOM     14  C   LIG d   1      -0.147  83.086 111.468  0.00  0.00     0.210 C 
ATOM     15  C   LIG d   1      -0.433  84.360 110.667  0.00  0.00     0.109 C 
ATOM     16  O   LIG d   1       1.013  82.662 111.576  0.00  0.00    -0.276 OA
ATOM     17  H   LIG d   1      -2.129  82.885 111.817  0.00  0.00     0.149 HD
ENDBRANCH   6  13
BRANCH   5  18
ATOM     18  N   LIG d   1      -0.319  79.757 110.959  0.00  0.00     0.381 N 
ATOM     19  H   LIG d   1       0.026  78.820 111.028  0.00  0.00    -0.090 HD
ATOM     20  H   LIG d   1       0.441  80.387 111.145  0.00  0.00    -0.090 HD
ATOM     21  H   LIG d   1      -0.678  79.920 110.044  0.00  0.00    -0.090 HD
ENDBRANCH   5  18
BRANCH   3  22
ATOM     22  C   LIG d   1      -2.846  77.760 114.503  0.00  0.00     0.382 C 
ATOM     23  O   LIG d   1      -2.535  76.634 114.047  0.00  0.00    -0.241 OA
ATOM     24  O   LIG d   1      -3.708  77.844 115.399  0.00  0.00    -0.241 OA
ENDBRANCH   3  22
TORSDOF 7
ENDMDL
MODEL 6
REMARK VINA RESULT:      -4.7      4.258      6.005
REMARK  7 active torsions:
REMARK  status: ('A' for Active; 'I' for Inactive)
REMARK    1  A    between atoms: C_2  and  C_3 
REMARK    2  A    between atoms: C_3  and  O_6 
REMARK    3  A    between atoms: C_3  and  C_4 
REMARK    4  A    between atoms: C_7  and  O_6 
REMARK    5  A    between atoms: C_9  and  C_10 
REMARK    6  A    between atoms: N_15  and  C_14 
REMARK    7  A    between atoms: N_20  and  C_19 
REMARK       I    between atoms: C_22  and  N_20 
ROOT
ATOM      1  C   LIG d   1      -0.630  79.311 115.730  0.00  0.00     0.161 C 
ATOM      2  C   LIG d   1      -1.188  80.593 115.591  0.00  0.00     0.016 C 
ATOM      3  C   LIG d   1      -1.978  80.983 114.486  0.00  0.00     0.038 C 
ATOM      4  C   LIG d   1      -2.392  80.064 113.510  0.00  0.00     0.028 C 
ATOM      5  C   LIG d   1      -1.439  78.885 113.344  0.00  0.00    -0.047 C 
ATOM      6  C   LIG d   1      -1.164  78.263 114.732  0.00  0.00     0.091 C 
ENDROOT
BRANCH   1   7
ATOM      7  O   LIG d   1      -0.803  78.847 117.084  0.00  0.00    -0.368 OA
BRANCH   7   8
ATOM      8  C   LIG d   1      -2.041  78.148 117.365  0.00  0.00     0.119 C 
BRANCH   8   9
ATOM      9  C   LIG d   1      -2.826  78.989 118.389  0.00  0.00     0.028 C 
ATOM     10  C   LIG d   1      -3.477  78.125 119.482  0.00  0.00     0.006 C 
ENDBRANCH   8   9
BRANCH   8  11
ATOM     11  C   LIG d   1      -1.778  76.807 118.057  0.00  0.00     0.028 C 
ATOM     12  C   LIG d   1      -0.282  76.534 118.279  0.00  0.00     0.006 C 
ENDBRANCH   8  11
ENDBRANCH   7   8
ENDBRANCH   1   7
BRANCH   6  13
ATOM     13  N   LIG d   1      -0.174  77.156 114.670  0.00  0.00    -0.311 N 
ATOM     14  C   LIG d   1      -0.515  75.870 114.603  0.00  0.00     0.210 C 
ATOM     15  C   LIG d   1       0.662  74.890 114.568  0.00  0.00     0.109 C 
ATOM     16  O   LIG d   1      -1.680  75.450 114.536  0.00  0.00    -0.276 OA
ATOM     17  H   LIG d   1       0.795  77.408 114.688  0.00  0.00     0.149 HD
ENDBRANCH   6  13
BRANCH   5  18
ATOM     18  N   LIG d   1      -2.060  77.939 112.398  0.00  0.00     0.381 N 
ATOM     19  H   LIG d   1      -3.044  77.886 112.570  0.00  0.00    -0.090 HD
ATOM     20  H   LIG d   1      -1.664  77.027 112.544  0.00  0.00    -0.090 HD
ATOM     21  H   LIG d   1      -1.895  78.235 111.461  0.00  0.00    -0.090 HD
ENDBRANCH   5  18
BRANCH   3  22
ATOM     22  C   LIG d   1      -2.328  82.315 114.327  0.00  0.00     0.382 C 
ATOM     23  O   LIG d   1      -1.567  83.093 113.703  0.00  0.00    -0.241 OA
ATOM     24  O   LIG d   1      -3.375  82.758 114.837  0.00  0.00    -0.241 OA
ENDBRANCH   3  22
TORSDOF 7
ENDMDL
MODEL 7
REMARK VINA RESULT:      -4.7      4.258      6.756
REMARK  7 active torsions:
REMARK  status: ('A' for Active; 'I' for Inactive)
REMARK    1  A    between atoms: C_2  and  C_3 
REMARK    2  A    between atoms: C_3  and  O_6 
REMARK    3  A    between atoms: C_3  and  C_4 
REMARK    4  A    between atoms: C_7  and  O_6 
REMARK    5  A    between atoms: C_9  and  C_10 
REMARK    6  A    between atoms: N_15  and  C_14 
REMARK    7  A    between atoms: N_20  and  C_19 
REMARK       I    between atoms: C_22  and  N_20 
ROOT
ATOM      1  C   LIG d   1      -1.997  78.872 115.286  0.00  0.00     0.161 C 
ATOM      2  C   LIG d   1      -2.437  79.591 114.163  0.00  0.00     0.016 C 
ATOM      3  C   LIG d   1      -1.744  80.701 113.629  0.00  0.00     0.038 C 
ATOM      4  C   LIG d   1      -0.475  81.078 114.096  0.00  0.00     0.028 C 
ATOM      5  C   LIG d   1      -0.228  80.696 115.551  0.00  0.00    -0.047 C 
ATOM      6  C   LIG d   1      -0.559  79.198 115.741  0.00  0.00     0.091 C 
ENDROOT
BRANCH   1   7
ATOM      7  O   LIG d   1      -2.138  77.457 115.047  0.00  0.00    -0.368 OA
BRANCH   7   8
ATOM      8  C   LIG d   1      -2.791  76.696 116.093  0.00  0.00     0.119 C 
BRANCH   8   9
ATOM      9  C   LIG d   1      -2.102  75.320 116.163  0.00  0.00     0.028 C 
ATOM     10  C   LIG d   1      -0.880  75.228 115.235  0.00  0.00     0.006 C 
ENDBRANCH   8   9
BRANCH   8  11
ATOM     11  C   LIG d   1      -4.252  76.401 115.738  0.00  0.00     0.028 C 
ATOM     12  C   LIG d   1      -4.435  75.980 114.271  0.00  0.00     0.006 C 
ENDBRANCH   8  11
ENDBRANCH   7   8
ENDBRANCH   1   7
BRANCH   6  13
ATOM     13  N   LIG d   1      -0.425  78.763 117.155  0.00  0.00    -0.311 N 
ATOM     14  C   LIG d   1       0.462  77.856 117.562  0.00  0.00     0.210 C 
ATOM     15  C   LIG d   1       0.420  77.537 119.059  0.00  0.00     0.109 C 
ATOM     16  O   LIG d   1       1.302  77.310 116.830  0.00  0.00    -0.276 OA
ATOM     17  H   LIG d   1      -1.046  79.178 117.822  0.00  0.00     0.149 HD
ENDBRANCH   6  13
BRANCH   5  18
ATOM     18  N   LIG d   1       1.176  81.022 115.865  0.00  0.00     0.381 N 
ATOM     19  H   LIG d   1       1.635  81.366 115.045  0.00  0.00    -0.090 HD
ATOM     20  H   LIG d   1       1.646  80.185 116.161  0.00  0.00    -0.090 HD
ATOM     21  H   LIG d   1       1.214  81.707 116.587  0.00  0.00    -0.090 HD
ENDBRANCH   5  18
BRANCH   3  22
ATOM     22  C   LIG d   1      -2.338  81.474 112.643  0.00  0.00     0.382 C 
ATOM     23  O   LIG d   1      -1.638  82.244 111.942  0.00  0.00    -0.241 OA
ATOM     24  O   LIG d   1      -3.572  81.442 112.474  0.00  0.00    -0.241 OA
ENDBRANCH   3  22
TORSDOF 7
ENDMDL
MODEL 8
REMARK VINA RESULT:      -4.7      4.660      7.158
REMARK  7 active torsions:
REMARK  status: ('A' for Active; 'I' for Inactive)
REMARK    1  A    between atoms: C_2  and  C_3 
REMARK    2  A    between atoms: C_3  and  O_6 
REMARK    3  A    between atoms: C_3  and  C_4 
REMARK    4  A    between atoms: C_7  and  O_6 
REMARK    5  A    between atoms: C_9  and  C_10 
REMARK    6  A    between atoms: N_15  and  C_14 
REMARK    7  A    between atoms: N_20  and  C_19 
REMARK       I    between atoms: C_22  and  N_20 
ROOT
ATOM      1  C   LIG d   1      -1.761  78.600 115.223  0.00  0.00     0.161 C 
ATOM      2  C   LIG d   1      -1.903  79.316 114.023  0.00  0.00     0.016 C 
ATOM      3  C   LIG d   1      -2.075  80.719 113.970  0.00  0.00     0.038 C 
ATOM      4  C   LIG d   1      -1.964  81.523 115.114  0.00  0.00     0.028 C 
ATOM      5  C   LIG d   1      -2.324  80.794 116.404  0.00  0.00    -0.047 C 
ATOM      6  C   LIG d   1      -1.526  79.472 116.473  0.00  0.00     0.091 C 
ENDROOT
BRANCH   1   7
ATOM      7  O   LIG d   1      -0.708  77.624 115.088  0.00  0.00    -0.368 OA
BRANCH   7   8
ATOM      8  C   LIG d   1      -1.105  76.323 114.589  0.00  0.00     0.119 C 
BRANCH   8   9
ATOM      9  C   LIG d   1      -1.986  75.663 115.667  0.00  0.00     0.028 C 
ATOM     10  C   LIG d   1      -3.398  75.336 115.151  0.00  0.00     0.006 C 
ENDBRANCH   8   9
BRANCH   8  11
ATOM     11  C   LIG d   1       0.103  75.396 114.429  0.00  0.00     0.028 C 
ATOM     12  C   LIG d   1       1.203  75.665 115.467  0.00  0.00     0.006 C 
ENDBRANCH   8  11
ENDBRANCH   7   8
ENDBRANCH   1   7
BRANCH   6  13
ATOM     13  N   LIG d   1      -1.882  78.657 117.664  0.00  0.00    -0.311 N 
ATOM     14  C   LIG d   1      -0.979  78.068 118.446  0.00  0.00     0.210 C 
ATOM     15  C   LIG d   1      -1.560  77.258 119.609  0.00  0.00     0.109 C 
ATOM     16  O   LIG d   1       0.250  78.167 118.306  0.00  0.00    -0.276 OA
ATOM     17  H   LIG d   1      -2.856  78.551 117.869  0.00  0.00     0.149 HD
ENDBRANCH   6  13
BRANCH   5  18
ATOM     18  N   LIG d   1      -2.033  81.705 117.527  0.00  0.00     0.381 N 
ATOM     19  H   LIG d   1      -2.511  82.573 117.392  0.00  0.00    -0.090 HD
ATOM     20  H   LIG d   1      -1.045  81.889 117.548  0.00  0.00    -0.090 HD
ATOM     21  H   LIG d   1      -2.320  81.290 118.386  0.00  0.00    -0.090 HD
ENDBRANCH   5  18
BRANCH   3  22
ATOM     22  C   LIG d   1      -2.401  81.326 112.767  0.00  0.00     0.382 C 
ATOM     23  O   LIG d   1      -3.602  81.425 112.420  0.00  0.00    -0.241 OA
ATOM     24  O   LIG d   1      -1.506  81.737 112.004  0.00  0.00    -0.241 OA
ENDBRANCH   3  22
TORSDOF 7
ENDMDL
MODEL 9
REMARK VINA RESULT:      -4.6      3.543      5.824
REMARK  7 active torsions:
REMARK  status: ('A' for Active; 'I' for Inactive)
REMARK    1  A    between atoms: C_2  and  C_3 
REMARK    2  A    between atoms: C_3  and  O_6 
REMARK    3  A    between atoms: C_3  and  C_4 
REMARK    4  A    between atoms: C_7  and  O_6 
REMARK    5  A    between atoms: C_9  and  C_10 
REMARK    6  A    between atoms: N_15  and  C_14 
REMARK    7  A    between atoms: N_20  and  C_19 
REMARK       I    between atoms: C_22  and  N_20 
ROOT
ATOM      1  C   LIG d   1      -1.057  79.788 114.886  0.00  0.00     0.161 C 
ATOM      2  C   LIG d   1      -0.685  80.915 114.134  0.00  0.00     0.016 C 
ATOM      3  C   LIG d   1      -0.993  81.073 112.763  0.00  0.00     0.038 C 
ATOM      4  C   LIG d   1      -1.833  80.176 112.085  0.00  0.00     0.028 C 
ATOM      5  C   LIG d   1      -1.814  78.768 112.669  0.00  0.00    -0.047 C 
ATOM      6  C   LIG d   1      -2.068  78.853 114.191  0.00  0.00     0.091 C 
ENDROOT
BRANCH   1   7
ATOM      7  O   LIG d   1      -1.560  80.203 116.171  0.00  0.00    -0.368 OA
BRANCH   7   8
ATOM      8  C   LIG d   1      -2.927  80.682 116.196  0.00  0.00     0.119 C 
BRANCH   8   9
ATOM      9  C   LIG d   1      -2.897  82.146 116.679  0.00  0.00     0.028 C 
ATOM     10  C   LIG d   1      -2.996  83.149 115.517  0.00  0.00     0.006 C 
ENDBRANCH   8   9
BRANCH   8  11
ATOM     11  C   LIG d   1      -3.762  79.930 117.237  0.00  0.00     0.028 C 
ATOM     12  C   LIG d   1      -2.919  78.985 118.107  0.00  0.00     0.006 C 
ENDBRANCH   8  11
ENDBRANCH   7   8
ENDBRANCH   1   7
BRANCH   6  13
ATOM     13  N   LIG d   1      -1.983  77.526 114.855  0.00  0.00    -0.311 N 
ATOM     14  C   LIG d   1      -3.044  76.761 115.106  0.00  0.00     0.210 C 
ATOM     15  C   LIG d   1      -2.736  75.440 115.816  0.00  0.00     0.109 C 
ATOM     16  O   LIG d   1      -4.208  77.038 114.778  0.00  0.00    -0.276 OA
ATOM     17  H   LIG d   1      -1.072  77.209 115.126  0.00  0.00     0.149 HD
ENDBRANCH   6  13
BRANCH   5  18
ATOM     18  N   LIG d   1      -2.833  77.976 111.955  0.00  0.00     0.381 N 
ATOM     19  H   LIG d   1      -2.484  77.055 111.779  0.00  0.00    -0.090 HD
ATOM     20  H   LIG d   1      -3.026  78.414 111.072  0.00  0.00    -0.090 HD
ATOM     21  H   LIG d   1      -3.667  77.924 112.498  0.00  0.00    -0.090 HD
ENDBRANCH   5  18
BRANCH   3  22
ATOM     22  C   LIG d   1      -0.427  82.116 112.047  0.00  0.00     0.382 C 
ATOM     23  O   LIG d   1      -1.159  82.897 111.393  0.00  0.00    -0.241 OA
ATOM     24  O   LIG d   1       0.810  82.259 112.010  0.00  0.00    -0.241 OA
ENDBRANCH   3  22
TORSDOF 7
ENDMDL
