MODEL 1
REMARK VINA RESULT:      -5.3      0.000      0.000
REMARK  7 active torsions:
REMARK  status: ('A' for Active; 'I' for Inactive)
REMARK    1  A    between atoms: C_2  and  C_3 
REMARK    2  A    between atoms: C_3  and  O_6 
REMARK    3  A    between atoms: C_3  and  C_4 
REMARK    4  A    between atoms: C_7  and  O_6 
REMARK    5  A    between atoms: C_9  and  C_10 
REMARK    6  A    between atoms: N_15  and  C_14 
REMARK    7  A    between atoms: N_20  and  C_19 
REMARK       I    between atoms: C_22  and  N_20 
ROOT
ATOM      1  C   LIG d   1       1.127  81.272 112.920  0.00  0.00     0.161 C 
ATOM      2  C   LIG d   1       2.200  82.032 112.427  0.00  0.00     0.016 C 
ATOM      3  C   LIG d   1       2.466  82.202 111.049  0.00  0.00     0.038 C 
ATOM      4  C   LIG d   1       1.581  81.744 110.062  0.00  0.00     0.028 C 
ATOM      5  C   LIG d   1       0.755  80.540 110.500  0.00  0.00    -0.047 C 
ATOM      6  C   LIG d   1       0.087  80.857 111.858  0.00  0.00     0.091 C 
ENDROOT
BRANCH   1   7
ATOM      7  O   LIG d   1       0.485  81.977 114.001  0.00  0.00    -0.368 OA
BRANCH   7   8
ATOM      8  C   LIG d   1       0.463  83.422 113.896  0.00  0.00     0.119 C 
BRANCH   8   9
ATOM      9  C   LIG d   1       0.530  83.991 115.327  0.00  0.00     0.028 C 
ATOM     10  C   LIG d   1      -0.825  83.918 116.051  0.00  0.00     0.006 C 
ENDBRANCH   8   9
BRANCH   8  11
ATOM     11  C   LIG d   1      -0.867  83.919 113.324  0.00  0.00     0.028 C 
ATOM     12  C   LIG d   1      -0.730  84.483 111.901  0.00  0.00     0.006 C 
ENDBRANCH   8  11
ENDBRANCH   7   8
ENDBRANCH   1   7
BRANCH   6  13
ATOM     13  N   LIG d   1      -0.673  79.701 112.400  0.00  0.00    -0.311 N 
ATOM     14  C   LIG d   1      -1.943  79.778 112.794  0.00  0.00     0.210 C 
ATOM     15  C   LIG d   1      -2.531  78.473 113.340  0.00  0.00     0.109 C 
ATOM     16  O   LIG d   1      -2.648  80.795 112.713  0.00  0.00    -0.276 OA
ATOM     17  H   LIG d   1      -0.187  78.829 112.472  0.00  0.00     0.149 HD
ENDBRANCH   6  13
BRANCH   5  18
ATOM     18  N   LIG d   1      -0.219  80.254 109.430  0.00  0.00     0.381 N 
ATOM     19  H   LIG d   1      -0.111  80.916 108.688  0.00  0.00    -0.090 HD
ATOM     20  H   LIG d   1      -1.148  80.347 109.802  0.00  0.00    -0.090 HD
ATOM     21  H   LIG d   1      -0.084  79.330 109.083  0.00  0.00    -0.090 HD
ENDBRANCH   5  18
BRANCH   3  22
ATOM     22  C   LIG d   1       3.649  82.802 110.646  0.00  0.00     0.382 C 
ATOM     23  O   LIG d   1       4.356  83.418 111.480  0.00  0.00    -0.241 OA
ATOM     24  O   LIG d   1       3.997  82.773 109.450  0.00  0.00    -0.241 OA
ENDBRANCH   3  22
TORSDOF 7
ENDMDL
MODEL 2
REMARK VINA RESULT:      -5.2      1.458      2.092
REMARK  7 active torsions:
REMARK  status: ('A' for Active; 'I' for Inactive)
REMARK    1  A    between atoms: C_2  and  C_3 
REMARK    2  A    between atoms: C_3  and  O_6 
REMARK    3  A    between atoms: C_3  and  C_4 
REMARK    4  A    between atoms: C_7  and  O_6 
REMARK    5  A    between atoms: C_9  and  C_10 
REMARK    6  A    between atoms: N_15  and  C_14 
REMARK    7  A    between atoms: N_20  and  C_19 
REMARK       I    between atoms: C_22  and  N_20 
ROOT
ATOM      1  C   LIG d   1       0.301  83.016 113.073  0.00  0.00     0.161 C 
ATOM      2  C   LIG d   1       1.404  83.398 112.291  0.00  0.00     0.016 C 
ATOM      3  C   LIG d   1       1.870  82.650 111.185  0.00  0.00     0.038 C 
ATOM      4  C   LIG d   1       1.168  81.540 110.692  0.00  0.00     0.028 C 
ATOM      5  C   LIG d   1       0.338  80.827 111.754  0.00  0.00    -0.047 C 
ATOM      6  C   LIG d   1      -0.544  81.867 112.483  0.00  0.00     0.091 C 
ENDROOT
BRANCH   1   7
ATOM      7  O   LIG d   1      -0.529  84.163 113.340  0.00  0.00    -0.368 OA
BRANCH   7   8
ATOM      8  C   LIG d   1      -0.487  84.679 114.694  0.00  0.00     0.119 C 
BRANCH   8   9
ATOM      9  C   LIG d   1       0.541  83.840 115.477  0.00  0.00     0.028 C 
ATOM     10  C   LIG d   1       1.734  84.679 115.966  0.00  0.00     0.006 C 
ENDBRANCH   8   9
BRANCH   8  11
ATOM     11  C   LIG d   1      -1.821  84.463 115.414  0.00  0.00     0.028 C 
ATOM     12  C   LIG d   1      -1.692  83.552 116.645  0.00  0.00     0.006 C 
ENDBRANCH   8  11
ENDBRANCH   7   8
ENDBRANCH   1   7
BRANCH   6  13
ATOM     13  N   LIG d   1      -1.326  81.268 113.595  0.00  0.00    -0.311 N 
ATOM     14  C   LIG d   1      -2.652  81.361 113.692  0.00  0.00     0.210 C 
ATOM     15  C   LIG d   1      -3.258  80.688 114.928  0.00  0.00     0.109 C 
ATOM     16  O   LIG d   1      -3.385  81.910 112.856  0.00  0.00    -0.276 OA
ATOM     17  H   LIG d   1      -0.814  80.777 114.301  0.00  0.00     0.149 HD
ENDBRANCH   6  13
BRANCH   5  18
ATOM     18  N   LIG d   1      -0.447  79.778 111.077  0.00  0.00     0.381 N 
ATOM     19  H   LIG d   1      -0.755  79.100 111.746  0.00  0.00    -0.090 HD
ATOM     20  H   LIG d   1       0.141  79.315 110.406  0.00  0.00    -0.090 HD
ATOM     21  H   LIG d   1      -1.233  80.182 110.618  0.00  0.00    -0.090 HD
ENDBRANCH   5  18
BRANCH   3  22
ATOM     22  C   LIG d   1       3.074  82.987 110.586  0.00  0.00     0.382 C 
ATOM     23  O   LIG d   1       3.083  83.476 109.430  0.00  0.00    -0.241 OA
ATOM     24  O   LIG d   1       4.153  82.769 111.168  0.00  0.00    -0.241 OA
ENDBRANCH   3  22
TORSDOF 7
ENDMDL
MODEL 3
REMARK VINA RESULT:      -5.0      1.663      4.898
REMARK  7 active torsions:
REMARK  status: ('A' for Active; 'I' for Inactive)
REMARK    1  A    between atoms: C_2  and  C_3 
REMARK    2  A    between atoms: C_3  and  O_6 
REMARK    3  A    between atoms: C_3  and  C_4 
REMARK    4  A    between atoms: C_7  and  O_6 
REMARK    5  A    between atoms: C_9  and  C_10 
REMARK    6  A    between atoms: N_15  and  C_14 
REMARK    7  A    between atoms: N_20  and  C_19 
REMARK       I    between atoms: C_22  and  N_20 
ROOT
ATOM      1  C   LIG d   1       0.253  83.005 112.287  0.00  0.00     0.161 C 
ATOM      2  C   LIG d   1      -0.954  82.682 112.929  0.00  0.00     0.016 C 
ATOM      3  C   LIG d   1      -1.579  81.419 112.821  0.00  0.00     0.038 C 
ATOM      4  C   LIG d   1      -0.957  80.336 112.181  0.00  0.00     0.028 C 
ATOM      5  C   LIG d   1       0.023  80.758 111.092  0.00  0.00    -0.047 C 
ATOM      6  C   LIG d   1       1.002  81.802 111.675  0.00  0.00     0.091 C 
ENDROOT
BRANCH   1   7
ATOM      7  O   LIG d   1       1.113  83.722 113.194  0.00  0.00    -0.368 OA
BRANCH   7   8
ATOM      8  C   LIG d   1       1.085  83.287 114.576  0.00  0.00     0.119 C 
BRANCH   8   9
ATOM      9  C   LIG d   1       0.785  84.524 115.444  0.00  0.00     0.028 C 
ATOM     10  C   LIG d   1      -0.481  84.347 116.300  0.00  0.00     0.006 C 
ENDBRANCH   8   9
BRANCH   8  11
ATOM     11  C   LIG d   1       2.461  82.795 115.034  0.00  0.00     0.028 C 
ATOM     12  C   LIG d   1       2.603  81.266 114.959  0.00  0.00     0.006 C 
ENDBRANCH   8  11
ENDBRANCH   7   8
ENDBRANCH   1   7
BRANCH   6  13
ATOM     13  N   LIG d   1       1.943  82.330 110.653  0.00  0.00    -0.311 N 
ATOM     14  C   LIG d   1       3.267  82.224 110.751  0.00  0.00     0.210 C 
ATOM     15  C   LIG d   1       4.053  82.854 109.597  0.00  0.00     0.109 C 
ATOM     16  O   LIG d   1       3.864  81.639 111.667  0.00  0.00    -0.276 OA
ATOM     17  H   LIG d   1       1.542  82.792 109.860  0.00  0.00     0.149 HD
ENDBRANCH   6  13
BRANCH   5  18
ATOM     18  N   LIG d   1       0.699  79.540 110.605  0.00  0.00     0.381 N 
ATOM     19  H   LIG d   1       0.420  78.754 111.158  0.00  0.00    -0.090 HD
ATOM     20  H   LIG d   1       1.692  79.658 110.704  0.00  0.00    -0.090 HD
ATOM     21  H   LIG d   1       0.469  79.382 109.649  0.00  0.00    -0.090 HD
ENDBRANCH   5  18
BRANCH   3  22
ATOM     22  C   LIG d   1      -2.859  81.240 113.323  0.00  0.00     0.382 C 
ATOM     23  O   LIG d   1      -3.251  80.094 113.648  0.00  0.00    -0.241 OA
ATOM     24  O   LIG d   1      -3.642  82.205 113.414  0.00  0.00    -0.241 OA
ENDBRANCH   3  22
TORSDOF 7
ENDMDL
MODEL 4
REMARK VINA RESULT:      -4.8      1.404      1.884
REMARK  7 active torsions:
REMARK  status: ('A' for Active; 'I' for Inactive)
REMARK    1  A    between atoms: C_2  and  C_3 
REMARK    2  A    between atoms: C_3  and  O_6 
REMARK    3  A    between atoms: C_3  and  C_4 
REMARK    4  A    between atoms: C_7  and  O_6 
REMARK    5  A    between atoms: C_9  and  C_10 
REMARK    6  A    between atoms: N_15  and  C_14 
REMARK    7  A    between atoms: N_20  and  C_19 
REMARK       I    between atoms: C_22  and  N_20 
ROOT
ATOM      1  C   LIG d   1       0.493  81.305 113.072  0.00  0.00     0.161 C 
ATOM      2  C   LIG d   1       1.454  82.268 112.722  0.00  0.00     0.016 C 
ATOM      3  C   LIG d   1       1.832  82.540 111.387  0.00  0.00     0.038 C 
ATOM      4  C   LIG d   1       1.161  81.969 110.295  0.00  0.00     0.028 C 
ATOM      5  C   LIG d   1       0.530  80.618 110.612  0.00  0.00    -0.047 C 
ATOM      6  C   LIG d   1      -0.329  80.752 111.890  0.00  0.00     0.091 C 
ENDROOT
BRANCH   1   7
ATOM      7  O   LIG d   1      -0.383  81.835 114.087  0.00  0.00    -0.368 OA
BRANCH   7   8
ATOM      8  C   LIG d   1       0.213  82.063 115.388  0.00  0.00     0.119 C 
BRANCH   8   9
ATOM      9  C   LIG d   1       0.279  80.704 116.111  0.00  0.00     0.028 C 
ATOM     10  C   LIG d   1      -1.098  80.026 116.213  0.00  0.00     0.006 C 
ENDBRANCH   8   9
BRANCH   8  11
ATOM     11  C   LIG d   1      -0.682  82.945 116.263  0.00  0.00     0.028 C 
ATOM     12  C   LIG d   1      -0.165  84.388 116.381  0.00  0.00     0.006 C 
ENDBRANCH   8  11
ENDBRANCH   7   8
ENDBRANCH   1   7
BRANCH   6  13
ATOM     13  N   LIG d   1      -0.916  79.455 112.317  0.00  0.00    -0.311 N 
ATOM     14  C   LIG d   1      -2.181  79.316 112.711  0.00  0.00     0.210 C 
ATOM     15  C   LIG d   1      -2.576  77.897 113.129  0.00  0.00     0.109 C 
ATOM     16  O   LIG d   1      -3.021  80.228 112.724  0.00  0.00    -0.276 OA
ATOM     17  H   LIG d   1      -0.312  78.656 112.308  0.00  0.00     0.149 HD
ENDBRANCH   6  13
BRANCH   5  18
ATOM     18  N   LIG d   1      -0.251  80.203 109.431  0.00  0.00     0.381 N 
ATOM     19  H   LIG d   1       0.306  80.299 108.605  0.00  0.00    -0.090 HD
ATOM     20  H   LIG d   1      -1.051  80.805 109.342  0.00  0.00    -0.090 HD
ATOM     21  H   LIG d   1      -0.547  79.257 109.532  0.00  0.00    -0.090 HD
ENDBRANCH   5  18
BRANCH   3  22
ATOM     22  C   LIG d   1       2.920  83.362 111.135  0.00  0.00     0.382 C 
ATOM     23  O   LIG d   1       3.993  83.191 111.763  0.00  0.00    -0.241 OA
ATOM     24  O   LIG d   1       2.828  84.299 110.320  0.00  0.00    -0.241 OA
ENDBRANCH   3  22
TORSDOF 7
ENDMDL
MODEL 5
REMARK VINA RESULT:      -4.7      2.560      5.876
REMARK  7 active torsions:
REMARK  status: ('A' for Active; 'I' for Inactive)
REMARK    1  A    between atoms: C_2  and  C_3 
REMARK    2  A    between atoms: C_3  and  O_6 
REMARK    3  A    between atoms: C_3  and  C_4 
REMARK    4  A    between atoms: C_7  and  O_6 
REMARK    5  A    between atoms: C_9  and  C_10 
REMARK    6  A    between atoms: N_15  and  C_14 
REMARK    7  A    between atoms: N_20  and  C_19 
REMARK       I    between atoms: C_22  and  N_20 
ROOT
ATOM      1  C   LIG d   1      -2.592  80.660 114.487  0.00  0.00     0.161 C 
ATOM      2  C   LIG d   1      -3.017  79.371 114.848  0.00  0.00     0.016 C 
ATOM      3  C   LIG d   1      -2.734  78.215 114.084  0.00  0.00     0.038 C 
ATOM      4  C   LIG d   1      -1.870  78.251 112.979  0.00  0.00     0.028 C 
ATOM      5  C   LIG d   1      -1.828  79.609 112.287  0.00  0.00    -0.047 C 
ATOM      6  C   LIG d   1      -1.556  80.703 113.345  0.00  0.00     0.091 C 
ENDROOT
BRANCH   1   7
ATOM      7  O   LIG d   1      -2.088  81.351 115.647  0.00  0.00    -0.368 OA
BRANCH   7   8
ATOM      8  C   LIG d   1      -2.936  82.394 116.186  0.00  0.00     0.119 C 
BRANCH   8   9
ATOM      9  C   LIG d   1      -2.379  83.744 115.693  0.00  0.00     0.028 C 
ATOM     10  C   LIG d   1      -0.918  83.967 116.119  0.00  0.00     0.006 C 
ENDBRANCH   8   9
BRANCH   8  11
ATOM     11  C   LIG d   1      -2.845  82.452 117.714  0.00  0.00     0.028 C 
ATOM     12  C   LIG d   1      -3.272  81.138 118.387  0.00  0.00     0.006 C 
ENDBRANCH   8  11
ENDBRANCH   7   8
ENDBRANCH   1   7
BRANCH   6  13
ATOM     13  N   LIG d   1      -1.582  82.071 112.765  0.00  0.00    -0.311 N 
ATOM     14  C   LIG d   1      -0.489  82.717 112.360  0.00  0.00     0.210 C 
ATOM     15  C   LIG d   1      -0.737  84.126 111.812  0.00  0.00     0.109 C 
ATOM     16  O   LIG d   1       0.657  82.244 112.373  0.00  0.00    -0.276 OA
ATOM     17  H   LIG d   1      -2.475  82.517 112.689  0.00  0.00     0.149 HD
ENDBRANCH   6  13
BRANCH   5  18
ATOM     18  N   LIG d   1      -0.789  79.544 111.241  0.00  0.00     0.381 N 
ATOM     19  H   LIG d   1      -0.310  80.421 111.186  0.00  0.00    -0.090 HD
ATOM     20  H   LIG d   1      -1.230  79.369 110.356  0.00  0.00    -0.090 HD
ATOM     21  H   LIG d   1      -0.142  78.816 111.448  0.00  0.00    -0.090 HD
ENDBRANCH   5  18
BRANCH   3  22
ATOM     22  C   LIG d   1      -3.349  77.014 114.401  0.00  0.00     0.382 C 
ATOM     23  O   LIG d   1      -3.050  76.417 115.463  0.00  0.00    -0.241 OA
ATOM     24  O   LIG d   1      -4.167  76.497 113.617  0.00  0.00    -0.241 OA
ENDBRANCH   3  22
TORSDOF 7
ENDMDL
MODEL 6
REMARK VINA RESULT:      -4.6      3.359      5.111
REMARK  7 active torsions:
REMARK  status: ('A' for Active; 'I' for Inactive)
REMARK    1  A    between atoms: C_2  and  C_3 
REMARK    2  A    between atoms: C_3  and  O_6 
REMARK    3  A    between atoms: C_3  and  C_4 
REMARK    4  A    between atoms: C_7  and  O_6 
REMARK    5  A    between atoms: C_9  and  C_10 
REMARK    6  A    between atoms: N_15  and  C_14 
REMARK    7  A    between atoms: N_20  and  C_19 
REMARK       I    between atoms: C_22  and  N_20 
ROOT
ATOM      1  C   LIG d   1      -2.885  80.441 115.024  0.00  0.00     0.161 C 
ATOM      2  C   LIG d   1      -2.516  81.693 114.506  0.00  0.00     0.016 C 
ATOM      3  C   LIG d   1      -1.840  81.858 113.275  0.00  0.00     0.038 C 
ATOM      4  C   LIG d   1      -1.621  80.784 112.400  0.00  0.00     0.028 C 
ATOM      5  C   LIG d   1      -1.526  79.436 113.108  0.00  0.00    -0.047 C 
ATOM      6  C   LIG d   1      -2.754  79.267 114.031  0.00  0.00     0.091 C 
ENDROOT
BRANCH   1   7
ATOM      7  O   LIG d   1      -4.226  80.505 115.549  0.00  0.00    -0.368 OA
BRANCH   7   8
ATOM      8  C   LIG d   1      -4.346  80.522 116.992  0.00  0.00     0.119 C 
BRANCH   8   9
ATOM      9  C   LIG d   1      -4.439  81.995 117.432  0.00  0.00     0.028 C 
ATOM     10  C   LIG d   1      -3.534  82.307 118.636  0.00  0.00     0.006 C 
ENDBRANCH   8   9
BRANCH   8  11
ATOM     11  C   LIG d   1      -3.080  79.978 117.662  0.00  0.00     0.028 C 
ATOM     12  C   LIG d   1      -3.291  78.596 118.300  0.00  0.00     0.006 C 
ENDBRANCH   8  11
ENDBRANCH   7   8
ENDBRANCH   1   7
BRANCH   6  13
ATOM     13  N   LIG d   1      -2.697  78.011 114.825  0.00  0.00    -0.311 N 
ATOM     14  C   LIG d   1      -3.310  76.886 114.462  0.00  0.00     0.210 C 
ATOM     15  C   LIG d   1      -3.139  75.714 115.433  0.00  0.00     0.109 C 
ATOM     16  O   LIG d   1      -3.951  76.738 113.411  0.00  0.00    -0.276 OA
ATOM     17  H   LIG d   1      -2.171  78.034 115.677  0.00  0.00     0.149 HD
ENDBRANCH   6  13
BRANCH   5  18
ATOM     18  N   LIG d   1      -1.436  78.393 112.069  0.00  0.00     0.381 N 
ATOM     19  H   LIG d   1      -1.340  78.819 111.169  0.00  0.00    -0.090 HD
ATOM     20  H   LIG d   1      -2.284  77.854 112.074  0.00  0.00    -0.090 HD
ATOM     21  H   LIG d   1      -0.655  77.800 112.248  0.00  0.00    -0.090 HD
ENDBRANCH   5  18
BRANCH   3  22
ATOM     22  C   LIG d   1      -1.341  83.104 112.927  0.00  0.00     0.382 C 
ATOM     23  O   LIG d   1      -1.013  83.920 113.821  0.00  0.00    -0.241 OA
ATOM     24  O   LIG d   1      -1.255  83.438 111.730  0.00  0.00    -0.241 OA
ENDBRANCH   3  22
TORSDOF 7
ENDMDL
MODEL 7
REMARK VINA RESULT:      -4.1      2.524      3.288
REMARK  7 active torsions:
REMARK  status: ('A' for Active; 'I' for Inactive)
REMARK    1  A    between atoms: C_2  and  C_3 
REMARK    2  A    between atoms: C_3  and  O_6 
REMARK    3  A    between atoms: C_3  and  C_4 
REMARK    4  A    between atoms: C_7  and  O_6 
REMARK    5  A    between atoms: C_9  and  C_10 
REMARK    6  A    between atoms: N_15  and  C_14 
REMARK    7  A    between atoms: N_20  and  C_19 
REMARK       I    between atoms: C_22  and  N_20 
ROOT
ATOM      1  C   LIG d   1       1.346  81.739 113.587  0.00  0.00     0.161 C 
ATOM      2  C   LIG d   1       2.530  81.799 112.832  0.00  0.00     0.016 C 
ATOM      3  C   LIG d   1       2.602  82.371 111.541  0.00  0.00     0.038 C 
ATOM      4  C   LIG d   1       1.520  83.062 110.975  0.00  0.00     0.028 C 
ATOM      5  C   LIG d   1       0.164  82.587 111.486  0.00  0.00    -0.047 C 
ATOM      6  C   LIG d   1       0.182  82.587 113.032  0.00  0.00     0.091 C 
ENDROOT
BRANCH   1   7
ATOM      7  O   LIG d   1       1.621  82.099 114.955  0.00  0.00    -0.368 OA
BRANCH   7   8
ATOM      8  C   LIG d   1       1.655  81.008 115.907  0.00  0.00     0.119 C 
BRANCH   8   9
ATOM      9  C   LIG d   1       0.561  81.275 116.958  0.00  0.00     0.028 C 
ATOM     10  C   LIG d   1      -0.607  80.279 116.855  0.00  0.00     0.006 C 
ENDBRANCH   8   9
BRANCH   8  11
ATOM     11  C   LIG d   1       2.973  80.991 116.688  0.00  0.00     0.028 C 
ATOM     12  C   LIG d   1       4.028  80.069 116.058  0.00  0.00     0.006 C 
ENDBRANCH   8  11
ENDBRANCH   7   8
ENDBRANCH   1   7
BRANCH   6  13
ATOM     13  N   LIG d   1      -1.078  82.056 113.614  0.00  0.00    -0.311 N 
ATOM     14  C   LIG d   1      -1.972  82.816 114.244  0.00  0.00     0.210 C 
ATOM     15  C   LIG d   1      -3.192  82.065 114.785  0.00  0.00     0.109 C 
ATOM     16  O   LIG d   1      -1.886  84.046 114.377  0.00  0.00    -0.276 OA
ATOM     17  H   LIG d   1      -1.243  81.073 113.523  0.00  0.00     0.149 HD
ENDBRANCH   6  13
BRANCH   5  18
ATOM     18  N   LIG d   1      -0.863  83.482 110.921  0.00  0.00     0.381 N 
ATOM     19  H   LIG d   1      -0.841  83.435 109.921  0.00  0.00    -0.090 HD
ATOM     20  H   LIG d   1      -0.659  84.427 111.196  0.00  0.00    -0.090 HD
ATOM     21  H   LIG d   1      -1.765  83.219 111.253  0.00  0.00    -0.090 HD
ENDBRANCH   5  18
BRANCH   3  22
ATOM     22  C   LIG d   1       3.754  82.219 110.786  0.00  0.00     0.382 C 
ATOM     23  O   LIG d   1       3.908  81.197 110.074  0.00  0.00    -0.241 OA
ATOM     24  O   LIG d   1       4.663  83.070 110.841  0.00  0.00    -0.241 OA
ENDBRANCH   3  22
TORSDOF 7
ENDMDL
MODEL 8
REMARK VINA RESULT:      -4.0      4.020      5.426
REMARK  7 active torsions:
REMARK  status: ('A' for Active; 'I' for Inactive)
REMARK    1  A    between atoms: C_2  and  C_3 
REMARK    2  A    between atoms: C_3  and  O_6 
REMARK    3  A    between atoms: C_3  and  C_4 
REMARK    4  A    between atoms: C_7  and  O_6 
REMARK    5  A    between atoms: C_9  and  C_10 
REMARK    6  A    between atoms: N_15  and  C_14 
REMARK    7  A    between atoms: N_20  and  C_19 
REMARK       I    between atoms: C_22  and  N_20 
ROOT
ATOM      1  C   LIG d   1      -1.354  79.528 115.732  0.00  0.00     0.161 C 
ATOM      2  C   LIG d   1      -1.664  80.825 115.291  0.00  0.00     0.016 C 
ATOM      3  C   LIG d   1      -2.082  81.119 113.973  0.00  0.00     0.038 C 
ATOM      4  C   LIG d   1      -2.366  80.109 113.042  0.00  0.00     0.028 C 
ATOM      5  C   LIG d   1      -1.586  78.822 113.287  0.00  0.00    -0.047 C 
ATOM      6  C   LIG d   1      -1.766  78.400 114.763  0.00  0.00     0.091 C 
ENDROOT
BRANCH   1   7
ATOM      7  O   LIG d   1      -1.931  79.305 117.035  0.00  0.00    -0.368 OA
BRANCH   7   8
ATOM      8  C   LIG d   1      -1.001  79.267 118.145  0.00  0.00     0.119 C 
BRANCH   8   9
ATOM      9  C   LIG d   1      -1.180  80.573 118.943  0.00  0.00     0.028 C 
ATOM     10  C   LIG d   1      -2.628  81.088 118.909  0.00  0.00     0.006 C 
ENDBRANCH   8   9
BRANCH   8  11
ATOM     11  C   LIG d   1       0.451  79.285 117.657  0.00  0.00     0.028 C 
ATOM     12  C   LIG d   1       1.264  80.447 118.249  0.00  0.00     0.006 C 
ENDBRANCH   8  11
ENDBRANCH   7   8
ENDBRANCH   1   7
BRANCH   6  13
ATOM     13  N   LIG d   1      -0.967  77.195 115.110  0.00  0.00    -0.311 N 
ATOM     14  C   LIG d   1      -1.451  75.956 115.062  0.00  0.00     0.210 C 
ATOM     15  C   LIG d   1      -0.465  74.860 115.479  0.00  0.00     0.109 C 
ATOM     16  O   LIG d   1      -2.594  75.657 114.684  0.00  0.00    -0.276 OA
ATOM     17  H   LIG d   1      -0.019  77.344 115.398  0.00  0.00     0.149 HD
ENDBRANCH   6  13
BRANCH   5  18
ATOM     18  N   LIG d   1      -2.080  77.812 112.332  0.00  0.00     0.381 N 
ATOM     19  H   LIG d   1      -1.391  77.650 111.625  0.00  0.00    -0.090 HD
ATOM     20  H   LIG d   1      -2.910  78.163 111.889  0.00  0.00    -0.090 HD
ATOM     21  H   LIG d   1      -2.283  76.962 112.810  0.00  0.00    -0.090 HD
ENDBRANCH   5  18
BRANCH   3  22
ATOM     22  C   LIG d   1      -2.181  82.440 113.562  0.00  0.00     0.382 C 
ATOM     23  O   LIG d   1      -2.474  83.334 114.392  0.00  0.00    -0.241 OA
ATOM     24  O   LIG d   1      -2.024  82.743 112.364  0.00  0.00    -0.241 OA
ENDBRANCH   3  22
TORSDOF 7
ENDMDL
MODEL 9
REMARK VINA RESULT:      -4.0      2.249      4.276
REMARK  7 active torsions:
REMARK  status: ('A' for Active; 'I' for Inactive)
REMARK    1  A    between atoms: C_2  and  C_3 
REMARK    2  A    between atoms: C_3  and  O_6 
REMARK    3  A    between atoms: C_3  and  C_4 
REMARK    4  A    between atoms: C_7  and  O_6 
REMARK    5  A    between atoms: C_9  and  C_10 
REMARK    6  A    between atoms: N_15  and  C_14 
REMARK    7  A    between atoms: N_20  and  C_19 
REMARK       I    between atoms: C_22  and  N_20 
ROOT
ATOM      1  C   LIG d   1      -0.245  81.099 112.637  0.00  0.00     0.161 C 
ATOM      2  C   LIG d   1       0.442  80.542 111.545  0.00  0.00     0.016 C 
ATOM      3  C   LIG d   1       1.763  80.901 111.192  0.00  0.00     0.038 C 
ATOM      4  C   LIG d   1       2.546  81.737 112.003  0.00  0.00     0.028 C 
ATOM      5  C   LIG d   1       1.725  82.714 112.837  0.00  0.00    -0.047 C 
ATOM      6  C   LIG d   1       0.632  81.929 113.598  0.00  0.00     0.091 C 
ENDROOT
BRANCH   1   7
ATOM      7  O   LIG d   1      -0.936  80.062 113.360  0.00  0.00    -0.368 OA
BRANCH   7   8
ATOM      8  C   LIG d   1      -2.382  80.072 113.263  0.00  0.00     0.119 C 
BRANCH   8   9
ATOM      9  C   LIG d   1      -2.943  79.928 114.691  0.00  0.00     0.028 C 
ATOM     10  C   LIG d   1      -1.833  79.866 115.754  0.00  0.00     0.006 C 
ENDBRANCH   8   9
BRANCH   8  11
ATOM     11  C   LIG d   1      -2.898  78.849 112.499  0.00  0.00     0.028 C 
ATOM     12  C   LIG d   1      -2.190  77.548 112.909  0.00  0.00     0.006 C 
ENDBRANCH   8  11
ENDBRANCH   7   8
ENDBRANCH   1   7
BRANCH   6  13
ATOM     13  N   LIG d   1      -0.270  82.820 114.373  0.00  0.00    -0.311 N 
ATOM     14  C   LIG d   1      -0.101  83.089 115.667  0.00  0.00     0.210 C 
ATOM     15  C   LIG d   1      -1.156  84.016 116.278  0.00  0.00     0.109 C 
ATOM     16  O   LIG d   1       0.842  82.673 116.358  0.00  0.00    -0.276 OA
ATOM     17  H   LIG d   1      -1.043  83.226 113.882  0.00  0.00     0.149 HD
ENDBRANCH   6  13
BRANCH   5  18
ATOM     18  N   LIG d   1       2.655  83.426 113.734  0.00  0.00     0.381 N 
ATOM     19  H   LIG d   1       3.599  83.261 113.443  0.00  0.00    -0.090 HD
ATOM     20  H   LIG d   1       2.545  83.068 114.666  0.00  0.00    -0.090 HD
ATOM     21  H   LIG d   1       2.462  84.403 113.720  0.00  0.00    -0.090 HD
ENDBRANCH   5  18
BRANCH   3  22
ATOM     22  C   LIG d   1       2.300  80.454 109.995  0.00  0.00     0.382 C 
ATOM     23  O   LIG d   1       1.904  79.374 109.495  0.00  0.00    -0.241 OA
ATOM     24  O   LIG d   1       3.207  81.095 109.431  0.00  0.00    -0.241 OA
ENDBRANCH   3  22
TORSDOF 7
ENDMDL
