MODEL 1
REMARK VINA RESULT:      -4.6      0.000      0.000
REMARK  7 active torsions:
REMARK  status: ('A' for Active; 'I' for Inactive)
REMARK    1  A    between atoms: C_2  and  C_3 
REMARK    2  A    between atoms: C_3  and  O_6 
REMARK    3  A    between atoms: C_3  and  C_4 
REMARK    4  A    between atoms: C_7  and  O_6 
REMARK    5  A    between atoms: C_9  and  C_10 
REMARK    6  A    between atoms: N_15  and  C_14 
REMARK    7  A    between atoms: N_20  and  C_19 
REMARK       I    between atoms: C_22  and  N_20 
ROOT
ATOM      1  C   LIG d   1      -2.528  78.403 115.424  0.00  0.00     0.161 C 
ATOM      2  C   LIG d   1      -2.779  79.581 114.700  0.00  0.00     0.016 C 
ATOM      3  C   LIG d   1      -2.393  79.763 113.352  0.00  0.00     0.038 C 
ATOM      4  C   LIG d   1      -1.862  78.716 112.585  0.00  0.00     0.028 C 
ATOM      5  C   LIG d   1      -1.129  77.668 113.416  0.00  0.00    -0.047 C 
ATOM      6  C   LIG d   1      -2.049  77.210 114.571  0.00  0.00     0.091 C 
ENDROOT
BRANCH   1   7
ATOM      7  O   LIG d   1      -3.697  78.039 116.184  0.00  0.00    -0.368 OA
BRANCH   7   8
ATOM      8  C   LIG d   1      -3.727  78.486 117.561  0.00  0.00     0.119 C 
BRANCH   8   9
ATOM      9  C   LIG d   1      -2.278  78.807 117.975  0.00  0.00     0.028 C 
ATOM     10  C   LIG d   1      -2.142  80.207 118.598  0.00  0.00     0.006 C 
ENDBRANCH   8   9
BRANCH   8  11
ATOM     11  C   LIG d   1      -4.178  77.365 118.502  0.00  0.00     0.028 C 
ATOM     12  C   LIG d   1      -3.021  76.453 118.940  0.00  0.00     0.006 C 
ENDBRANCH   8  11
ENDBRANCH   7   8
ENDBRANCH   1   7
BRANCH   6  13
ATOM     13  N   LIG d   1      -1.378  76.246 115.482  0.00  0.00    -0.311 N 
ATOM     14  C   LIG d   1      -1.808  75.001 115.677  0.00  0.00     0.210 C 
ATOM     15  C   LIG d   1      -0.982  74.181 116.673  0.00  0.00     0.109 C 
ATOM     16  O   LIG d   1      -2.776  74.488 115.097  0.00  0.00    -0.276 OA
ATOM     17  H   LIG d   1      -0.566  76.570 115.970  0.00  0.00     0.149 HD
ENDBRANCH   6  13
BRANCH   5  18
ATOM     18  N   LIG d   1      -0.747  76.568 112.510  0.00  0.00     0.381 N 
ATOM     19  H   LIG d   1      -1.456  76.440 111.815  0.00  0.00    -0.090 HD
ATOM     20  H   LIG d   1      -0.672  75.719 113.043  0.00  0.00    -0.090 HD
ATOM     21  H   LIG d   1       0.124  76.773 112.073  0.00  0.00    -0.090 HD
ENDBRANCH   5  18
BRANCH   3  22
ATOM     22  C   LIG d   1      -2.502  81.017 112.769  0.00  0.00     0.382 C 
ATOM     23  O   LIG d   1      -1.490  81.566 112.271  0.00  0.00    -0.241 OA
ATOM     24  O   LIG d   1      -3.590  81.623 112.775  0.00  0.00    -0.241 OA
ENDBRANCH   3  22
TORSDOF 7
ENDMDL
MODEL 2
REMARK VINA RESULT:      -4.6      3.674      5.890
REMARK  7 active torsions:
REMARK  status: ('A' for Active; 'I' for Inactive)
REMARK    1  A    between atoms: C_2  and  C_3 
REMARK    2  A    between atoms: C_3  and  O_6 
REMARK    3  A    between atoms: C_3  and  C_4 
REMARK    4  A    between atoms: C_7  and  O_6 
REMARK    5  A    between atoms: C_9  and  C_10 
REMARK    6  A    between atoms: N_15  and  C_14 
REMARK    7  A    between atoms: N_20  and  C_19 
REMARK       I    between atoms: C_22  and  N_20 
ROOT
ATOM      1  C   LIG d   1      -0.557  80.281 112.910  0.00  0.00     0.161 C 
ATOM      2  C   LIG d   1      -1.039  79.063 112.404  0.00  0.00     0.016 C 
ATOM      3  C   LIG d   1      -0.779  78.609 111.091  0.00  0.00     0.038 C 
ATOM      4  C   LIG d   1       0.113  79.276 110.238  0.00  0.00     0.028 C 
ATOM      5  C   LIG d   1       0.223  80.770 110.527  0.00  0.00    -0.047 C 
ATOM      6  C   LIG d   1       0.509  80.970 112.032  0.00  0.00     0.091 C 
ENDROOT
BRANCH   1   7
ATOM      7  O   LIG d   1      -0.057  80.091 114.249  0.00  0.00    -0.368 OA
BRANCH   7   8
ATOM      8  C   LIG d   1      -0.654  79.009 115.004  0.00  0.00     0.119 C 
BRANCH   8   9
ATOM      9  C   LIG d   1      -2.040  79.487 115.480  0.00  0.00     0.028 C 
ATOM     10  C   LIG d   1      -3.060  78.339 115.562  0.00  0.00     0.006 C 
ENDBRANCH   8   9
BRANCH   8  11
ATOM     11  C   LIG d   1       0.136  78.720 116.284  0.00  0.00     0.028 C 
ATOM     12  C   LIG d   1       0.979  79.918 116.747  0.00  0.00     0.006 C 
ENDBRANCH   8  11
ENDBRANCH   7   8
ENDBRANCH   1   7
BRANCH   6  13
ATOM     13  N   LIG d   1       0.548  82.405 112.416  0.00  0.00    -0.311 N 
ATOM     14  C   LIG d   1       1.667  83.129 112.435  0.00  0.00     0.210 C 
ATOM     15  C   LIG d   1       1.488  84.584 112.879  0.00  0.00     0.109 C 
ATOM     16  O   LIG d   1       2.784  82.712 112.095  0.00  0.00    -0.276 OA
ATOM     17  H   LIG d   1      -0.319  82.832 112.676  0.00  0.00     0.149 HD
ENDBRANCH   6  13
BRANCH   5  18
ATOM     18  N   LIG d   1       1.285  81.314 109.659  0.00  0.00     0.381 N 
ATOM     19  H   LIG d   1       2.058  81.615 110.218  0.00  0.00    -0.090 HD
ATOM     20  H   LIG d   1       0.924  82.111 109.164  0.00  0.00    -0.090 HD
ATOM     21  H   LIG d   1       1.585  80.620 109.011  0.00  0.00    -0.090 HD
ENDBRANCH   5  18
BRANCH   3  22
ATOM     22  C   LIG d   1      -1.446  77.495 110.604  0.00  0.00     0.382 C 
ATOM     23  O   LIG d   1      -2.634  77.596 110.213  0.00  0.00    -0.241 OA
ATOM     24  O   LIG d   1      -0.889  76.380 110.592  0.00  0.00    -0.241 OA
ENDBRANCH   3  22
TORSDOF 7
ENDMDL
MODEL 3
REMARK VINA RESULT:      -4.6      2.756      4.915
REMARK  7 active torsions:
REMARK  status: ('A' for Active; 'I' for Inactive)
REMARK    1  A    between atoms: C_2  and  C_3 
REMARK    2  A    between atoms: C_3  and  O_6 
REMARK    3  A    between atoms: C_3  and  C_4 
REMARK    4  A    between atoms: C_7  and  O_6 
REMARK    5  A    between atoms: C_9  and  C_10 
REMARK    6  A    between atoms: N_15  and  C_14 
REMARK    7  A    between atoms: N_20  and  C_19 
REMARK       I    between atoms: C_22  and  N_20 
ROOT
ATOM      1  C   LIG d   1      -1.266  79.586 114.240  0.00  0.00     0.161 C 
ATOM      2  C   LIG d   1      -2.020  78.441 114.543  0.00  0.00     0.016 C 
ATOM      3  C   LIG d   1      -2.414  77.489 113.575  0.00  0.00     0.038 C 
ATOM      4  C   LIG d   1      -1.949  77.541 112.253  0.00  0.00     0.028 C 
ATOM      5  C   LIG d   1      -1.601  78.951 111.788  0.00  0.00    -0.047 C 
ATOM      6  C   LIG d   1      -0.655  79.601 112.823  0.00  0.00     0.091 C 
ENDROOT
BRANCH   1   7
ATOM      7  O   LIG d   1      -0.236  79.770 115.232  0.00  0.00    -0.368 OA
BRANCH   7   8
ATOM      8  C   LIG d   1      -0.478  79.159 116.523  0.00  0.00     0.119 C 
BRANCH   8   9
ATOM      9  C   LIG d   1      -0.648  80.296 117.549  0.00  0.00     0.028 C 
ATOM     10  C   LIG d   1      -1.927  80.141 118.389  0.00  0.00     0.006 C 
ENDBRANCH   8   9
BRANCH   8  11
ATOM     11  C   LIG d   1       0.740  78.361 116.999  0.00  0.00     0.028 C 
ATOM     12  C   LIG d   1       0.696  76.889 116.561  0.00  0.00     0.006 C 
ENDBRANCH   8  11
ENDBRANCH   7   8
ENDBRANCH   1   7
BRANCH   6  13
ATOM     13  N   LIG d   1      -0.332  81.013 112.488  0.00  0.00    -0.311 N 
ATOM     14  C   LIG d   1       0.728  81.370 111.765  0.00  0.00     0.210 C 
ATOM     15  C   LIG d   1       0.886  82.879 111.552  0.00  0.00     0.109 C 
ATOM     16  O   LIG d   1       1.534  80.579 111.252  0.00  0.00    -0.276 OA
ATOM     17  H   LIG d   1      -0.951  81.718 112.837  0.00  0.00     0.149 HD
ENDBRANCH   6  13
BRANCH   5  18
ATOM     18  N   LIG d   1      -1.000  78.842 110.445  0.00  0.00     0.381 N 
ATOM     19  H   LIG d   1      -0.554  79.704 110.202  0.00  0.00    -0.090 HD
ATOM     20  H   LIG d   1      -1.729  78.665 109.776  0.00  0.00    -0.090 HD
ATOM     21  H   LIG d   1      -0.336  78.099 110.427  0.00  0.00    -0.090 HD
ENDBRANCH   5  18
BRANCH   3  22
ATOM     22  C   LIG d   1      -3.316  76.493 113.917  0.00  0.00     0.382 C 
ATOM     23  O   LIG d   1      -3.007  75.637 114.780  0.00  0.00    -0.241 OA
ATOM     24  O   LIG d   1      -4.418  76.414 113.341  0.00  0.00    -0.241 OA
ENDBRANCH   3  22
TORSDOF 7
ENDMDL
MODEL 4
REMARK VINA RESULT:      -4.3      2.716      4.237
REMARK  7 active torsions:
REMARK  status: ('A' for Active; 'I' for Inactive)
REMARK    1  A    between atoms: C_2  and  C_3 
REMARK    2  A    between atoms: C_3  and  O_6 
REMARK    3  A    between atoms: C_3  and  C_4 
REMARK    4  A    between atoms: C_7  and  O_6 
REMARK    5  A    between atoms: C_9  and  C_10 
REMARK    6  A    between atoms: N_15  and  C_14 
REMARK    7  A    between atoms: N_20  and  C_19 
REMARK       I    between atoms: C_22  and  N_20 
ROOT
ATOM      1  C   LIG d   1      -1.839  77.515 115.957  0.00  0.00     0.161 C 
ATOM      2  C   LIG d   1      -2.344  77.406 114.650  0.00  0.00     0.016 C 
ATOM      3  C   LIG d   1      -1.856  78.164 113.561  0.00  0.00     0.038 C 
ATOM      4  C   LIG d   1      -0.720  78.980 113.676  0.00  0.00     0.028 C 
ATOM      5  C   LIG d   1      -0.492  79.506 115.089  0.00  0.00    -0.047 C 
ATOM      6  C   LIG d   1      -0.527  78.318 116.078  0.00  0.00     0.091 C 
ENDROOT
BRANCH   1   7
ATOM      7  O   LIG d   1      -1.678  76.203 116.530  0.00  0.00    -0.368 OA
BRANCH   7   8
ATOM      8  C   LIG d   1      -1.908  75.085 115.637  0.00  0.00     0.119 C 
BRANCH   8   9
ATOM      9  C   LIG d   1      -2.970  74.180 116.292  0.00  0.00     0.028 C 
ATOM     10  C   LIG d   1      -4.404  74.604 115.932  0.00  0.00     0.006 C 
ENDBRANCH   8   9
BRANCH   8  11
ATOM     11  C   LIG d   1      -0.657  74.211 115.505  0.00  0.00     0.028 C 
ATOM     12  C   LIG d   1       0.474  74.904 114.729  0.00  0.00     0.006 C 
ENDBRANCH   8  11
ENDBRANCH   7   8
ENDBRANCH   1   7
BRANCH   6  13
ATOM     13  N   LIG d   1      -0.396  78.754 117.493  0.00  0.00    -0.311 N 
ATOM     14  C   LIG d   1       0.766  78.798 118.142  0.00  0.00     0.210 C 
ATOM     15  C   LIG d   1       0.675  79.258 119.600  0.00  0.00     0.109 C 
ATOM     16  O   LIG d   1       1.868  78.531 117.638  0.00  0.00    -0.276 OA
ATOM     17  H   LIG d   1      -1.237  79.019 117.968  0.00  0.00     0.149 HD
ENDBRANCH   6  13
BRANCH   5  18
ATOM     18  N   LIG d   1       0.796  80.225 115.095  0.00  0.00     0.381 N 
ATOM     19  H   LIG d   1       1.367  79.902 114.340  0.00  0.00    -0.090 HD
ATOM     20  H   LIG d   1       1.273  80.030 115.957  0.00  0.00    -0.090 HD
ATOM     21  H   LIG d   1       0.639  81.205 115.008  0.00  0.00    -0.090 HD
ENDBRANCH   5  18
BRANCH   3  22
ATOM     22  C   LIG d   1      -2.531  78.141 112.350  0.00  0.00     0.382 C 
ATOM     23  O   LIG d   1      -2.051  78.733 111.354  0.00  0.00    -0.241 OA
ATOM     24  O   LIG d   1      -3.635  77.573 112.253  0.00  0.00    -0.241 OA
ENDBRANCH   3  22
TORSDOF 7
ENDMDL
MODEL 5
REMARK VINA RESULT:      -4.2      2.349      3.923
REMARK  7 active torsions:
REMARK  status: ('A' for Active; 'I' for Inactive)
REMARK    1  A    between atoms: C_2  and  C_3 
REMARK    2  A    between atoms: C_3  and  O_6 
REMARK    3  A    between atoms: C_3  and  C_4 
REMARK    4  A    between atoms: C_7  and  O_6 
REMARK    5  A    between atoms: C_9  and  C_10 
REMARK    6  A    between atoms: N_15  and  C_14 
REMARK    7  A    between atoms: N_20  and  C_19 
REMARK       I    between atoms: C_22  and  N_20 
ROOT
ATOM      1  C   LIG d   1      -2.485  77.037 115.207  0.00  0.00     0.161 C 
ATOM      2  C   LIG d   1      -2.491  77.181 113.810  0.00  0.00     0.016 C 
ATOM      3  C   LIG d   1      -1.678  78.111 113.121  0.00  0.00     0.038 C 
ATOM      4  C   LIG d   1      -0.688  78.859 113.775  0.00  0.00     0.028 C 
ATOM      5  C   LIG d   1      -0.994  79.112 115.247  0.00  0.00    -0.047 C 
ATOM      6  C   LIG d   1      -1.332  77.766 115.928  0.00  0.00     0.091 C 
ENDROOT
BRANCH   1   7
ATOM      7  O   LIG d   1      -2.487  75.638 115.554  0.00  0.00    -0.368 OA
BRANCH   7   8
ATOM      8  C   LIG d   1      -1.229  75.095 116.024  0.00  0.00     0.119 C 
BRANCH   8   9
ATOM      9  C   LIG d   1      -0.675  74.182 114.913  0.00  0.00     0.028 C 
ATOM     10  C   LIG d   1       0.666  74.686 114.353  0.00  0.00     0.006 C 
ENDBRANCH   8   9
BRANCH   8  11
ATOM     11  C   LIG d   1      -1.434  74.181 117.235  0.00  0.00     0.028 C 
ATOM     12  C   LIG d   1      -0.278  74.262 118.245  0.00  0.00     0.006 C 
ENDBRANCH   8  11
ENDBRANCH   7   8
ENDBRANCH   1   7
BRANCH   6  13
ATOM     13  N   LIG d   1      -1.725  77.933 117.352  0.00  0.00    -0.311 N 
ATOM     14  C   LIG d   1      -0.858  77.893 118.362  0.00  0.00     0.210 C 
ATOM     15  C   LIG d   1      -1.477  78.069 119.752  0.00  0.00     0.109 C 
ATOM     16  O   LIG d   1       0.368  77.761 118.236  0.00  0.00    -0.276 OA
ATOM     17  H   LIG d   1      -2.698  78.076 117.542  0.00  0.00     0.149 HD
ENDBRANCH   6  13
BRANCH   5  18
ATOM     18  N   LIG d   1       0.181  79.780 115.838  0.00  0.00     0.381 N 
ATOM     19  H   LIG d   1      -0.101  80.633 116.278  0.00  0.00    -0.090 HD
ATOM     20  H   LIG d   1       0.831  80.003 115.105  0.00  0.00    -0.090 HD
ATOM     21  H   LIG d   1       0.614  79.181 116.506  0.00  0.00    -0.090 HD
ENDBRANCH   5  18
BRANCH   3  22
ATOM     22  C   LIG d   1      -1.880  78.328 111.766  0.00  0.00     0.382 C 
ATOM     23  O   LIG d   1      -1.374  79.333 111.210  0.00  0.00    -0.241 OA
ATOM     24  O   LIG d   1      -2.599  77.557 111.103  0.00  0.00    -0.241 OA
ENDBRANCH   3  22
TORSDOF 7
ENDMDL
MODEL 6
REMARK VINA RESULT:      -4.1      2.886      4.527
REMARK  7 active torsions:
REMARK  status: ('A' for Active; 'I' for Inactive)
REMARK    1  A    between atoms: C_2  and  C_3 
REMARK    2  A    between atoms: C_3  and  O_6 
REMARK    3  A    between atoms: C_3  and  C_4 
REMARK    4  A    between atoms: C_7  and  O_6 
REMARK    5  A    between atoms: C_9  and  C_10 
REMARK    6  A    between atoms: N_15  and  C_14 
REMARK    7  A    between atoms: N_20  and  C_19 
REMARK       I    between atoms: C_22  and  N_20 
ROOT
ATOM      1  C   LIG d   1      -0.610  77.572 115.189  0.00  0.00     0.161 C 
ATOM      2  C   LIG d   1      -1.908  77.244 114.764  0.00  0.00     0.016 C 
ATOM      3  C   LIG d   1      -2.524  76.000 115.033  0.00  0.00     0.038 C 
ATOM      4  C   LIG d   1      -1.935  75.050 115.881  0.00  0.00     0.028 C 
ATOM      5  C   LIG d   1      -0.413  75.131 115.919  0.00  0.00    -0.047 C 
ATOM      6  C   LIG d   1       0.004  76.591 116.209  0.00  0.00     0.091 C 
ENDROOT
BRANCH   1   7
ATOM      7  O   LIG d   1      -0.592  78.915 115.712  0.00  0.00    -0.368 OA
BRANCH   7   8
ATOM      8  C   LIG d   1      -0.777  79.045 117.143  0.00  0.00     0.119 C 
BRANCH   8   9
ATOM      9  C   LIG d   1      -2.171  79.659 117.375  0.00  0.00     0.028 C 
ATOM     10  C   LIG d   1      -3.179  78.637 117.926  0.00  0.00     0.006 C 
ENDBRANCH   8   9
BRANCH   8  11
ATOM     11  C   LIG d   1       0.213  80.046 117.745  0.00  0.00     0.028 C 
ATOM     12  C   LIG d   1       1.372  80.383 116.793  0.00  0.00     0.006 C 
ENDBRANCH   8  11
ENDBRANCH   7   8
ENDBRANCH   1   7
BRANCH   6  13
ATOM     13  N   LIG d   1       1.479  76.776 116.180  0.00  0.00    -0.311 N 
ATOM     14  C   LIG d   1       2.245  76.728 117.268  0.00  0.00     0.210 C 
ATOM     15  C   LIG d   1       3.738  76.964 117.018  0.00  0.00     0.109 C 
ATOM     16  O   LIG d   1       1.835  76.480 118.412  0.00  0.00    -0.276 OA
ATOM     17  H   LIG d   1       1.899  76.950 115.288  0.00  0.00     0.149 HD
ENDBRANCH   6  13
BRANCH   5  18
ATOM     18  N   LIG d   1       0.059  74.180 116.943  0.00  0.00     0.381 N 
ATOM     19  H   LIG d   1      -0.364  73.285 116.795  0.00  0.00    -0.090 HD
ATOM     20  H   LIG d   1      -0.218  74.514 117.849  0.00  0.00    -0.090 HD
ATOM     21  H   LIG d   1       1.051  74.098 116.900  0.00  0.00    -0.090 HD
ENDBRANCH   5  18
BRANCH   3  22
ATOM     22  C   LIG d   1      -3.725  75.680 114.419  0.00  0.00     0.382 C 
ATOM     23  O   LIG d   1      -4.309  74.607 114.703  0.00  0.00    -0.241 OA
ATOM     24  O   LIG d   1      -4.209  76.430 113.550  0.00  0.00    -0.241 OA
ENDBRANCH   3  22
TORSDOF 7
ENDMDL
MODEL 7
REMARK VINA RESULT:      -4.1      2.606      5.833
REMARK  7 active torsions:
REMARK  status: ('A' for Active; 'I' for Inactive)
REMARK    1  A    between atoms: C_2  and  C_3 
REMARK    2  A    between atoms: C_3  and  O_6 
REMARK    3  A    between atoms: C_3  and  C_4 
REMARK    4  A    between atoms: C_7  and  O_6 
REMARK    5  A    between atoms: C_9  and  C_10 
REMARK    6  A    between atoms: N_15  and  C_14 
REMARK    7  A    between atoms: N_20  and  C_19 
REMARK       I    between atoms: C_22  and  N_20 
ROOT
ATOM      1  C   LIG d   1      -0.844  77.125 114.626  0.00  0.00     0.161 C 
ATOM      2  C   LIG d   1      -1.885  76.190 114.505  0.00  0.00     0.016 C 
ATOM      3  C   LIG d   1      -2.826  75.937 115.530  0.00  0.00     0.038 C 
ATOM      4  C   LIG d   1      -2.881  76.715 116.696  0.00  0.00     0.028 C 
ATOM      5  C   LIG d   1      -1.538  77.329 117.077  0.00  0.00    -0.047 C 
ATOM      6  C   LIG d   1      -0.954  78.062 115.848  0.00  0.00     0.091 C 
ENDROOT
BRANCH   1   7
ATOM      7  O   LIG d   1      -0.735  77.895 113.413  0.00  0.00    -0.368 OA
BRANCH   7   8
ATOM      8  C   LIG d   1      -1.878  78.718 113.075  0.00  0.00     0.119 C 
BRANCH   8   9
ATOM      9  C   LIG d   1      -2.447  78.196 111.741  0.00  0.00     0.028 C 
ATOM     10  C   LIG d   1      -1.366  77.556 110.853  0.00  0.00     0.006 C 
ENDBRANCH   8   9
BRANCH   8  11
ATOM     11  C   LIG d   1      -1.460  80.165 112.799  0.00  0.00     0.028 C 
ATOM     12  C   LIG d   1       0.041  80.306 112.504  0.00  0.00     0.006 C 
ENDBRANCH   8  11
ENDBRANCH   7   8
ENDBRANCH   1   7
BRANCH   6  13
ATOM     13  N   LIG d   1       0.398  78.620 116.110  0.00  0.00    -0.311 N 
ATOM     14  C   LIG d   1       0.604  79.847 116.586  0.00  0.00     0.210 C 
ATOM     15  C   LIG d   1       2.077  80.232 116.764  0.00  0.00     0.109 C 
ATOM     16  O   LIG d   1      -0.292  80.641 116.908  0.00  0.00    -0.276 OA
ATOM     17  H   LIG d   1       1.182  78.032 115.906  0.00  0.00     0.149 HD
ENDBRANCH   6  13
BRANCH   5  18
ATOM     18  N   LIG d   1      -1.768  78.223 118.228  0.00  0.00     0.381 N 
ATOM     19  H   LIG d   1      -2.318  77.752 118.918  0.00  0.00    -0.090 HD
ATOM     20  H   LIG d   1      -2.278  79.031 117.915  0.00  0.00    -0.090 HD
ATOM     21  H   LIG d   1      -0.897  78.503 118.622  0.00  0.00    -0.090 HD
ENDBRANCH   5  18
BRANCH   3  22
ATOM     22  C   LIG d   1      -3.702  74.868 115.410  0.00  0.00     0.382 C 
ATOM     23  O   LIG d   1      -4.235  74.616 114.302  0.00  0.00    -0.241 OA
ATOM     24  O   LIG d   1      -3.999  74.180 116.404  0.00  0.00    -0.241 OA
ENDBRANCH   3  22
TORSDOF 7
ENDMDL
MODEL 8
REMARK VINA RESULT:      -4.0      2.668      3.919
REMARK  7 active torsions:
REMARK  status: ('A' for Active; 'I' for Inactive)
REMARK    1  A    between atoms: C_2  and  C_3 
REMARK    2  A    between atoms: C_3  and  O_6 
REMARK    3  A    between atoms: C_3  and  C_4 
REMARK    4  A    between atoms: C_7  and  O_6 
REMARK    5  A    between atoms: C_9  and  C_10 
REMARK    6  A    between atoms: N_15  and  C_14 
REMARK    7  A    between atoms: N_20  and  C_19 
REMARK       I    between atoms: C_22  and  N_20 
ROOT
ATOM      1  C   LIG d   1      -1.719  78.309 114.126  0.00  0.00     0.161 C 
ATOM      2  C   LIG d   1      -1.927  77.969 112.779  0.00  0.00     0.016 C 
ATOM      3  C   LIG d   1      -1.222  78.564 111.708  0.00  0.00     0.038 C 
ATOM      4  C   LIG d   1      -0.145  79.438 111.924  0.00  0.00     0.028 C 
ATOM      5  C   LIG d   1      -0.234  80.193 113.246  0.00  0.00    -0.047 C 
ATOM      6  C   LIG d   1      -0.471  79.179 114.388  0.00  0.00     0.091 C 
ENDROOT
BRANCH   1   7
ATOM      7  O   LIG d   1      -1.674  77.114 114.930  0.00  0.00    -0.368 OA
BRANCH   7   8
ATOM      8  C   LIG d   1      -2.736  76.961 115.904  0.00  0.00     0.119 C 
BRANCH   8   9
ATOM      9  C   LIG d   1      -3.576  75.739 115.485  0.00  0.00     0.028 C 
ATOM     10  C   LIG d   1      -3.022  74.422 116.054  0.00  0.00     0.006 C 
ENDBRANCH   8   9
BRANCH   8  11
ATOM     11  C   LIG d   1      -3.701  78.149 115.867  0.00  0.00     0.028 C 
ATOM     12  C   LIG d   1      -3.824  78.859 117.225  0.00  0.00     0.006 C 
ENDBRANCH   8  11
ENDBRANCH   7   8
ENDBRANCH   1   7
BRANCH   6  13
ATOM     13  N   LIG d   1      -0.654  79.842 115.706  0.00  0.00    -0.311 N 
ATOM     14  C   LIG d   1      -0.006  79.471 116.809  0.00  0.00     0.210 C 
ATOM     15  C   LIG d   1      -0.356  80.275 118.065  0.00  0.00     0.109 C 
ATOM     16  O   LIG d   1       0.849  78.575 116.859  0.00  0.00    -0.276 OA
ATOM     17  H   LIG d   1      -1.306  80.600 115.748  0.00  0.00     0.149 HD
ENDBRANCH   6  13
BRANCH   5  18
ATOM     18  N   LIG d   1       1.016  80.961 113.405  0.00  0.00     0.381 N 
ATOM     19  H   LIG d   1       1.399  80.800 114.315  0.00  0.00    -0.090 HD
ATOM     20  H   LIG d   1       0.809  81.940 113.318  0.00  0.00    -0.090 HD
ATOM     21  H   LIG d   1       1.674  80.690 112.707  0.00  0.00    -0.090 HD
ENDBRANCH   5  18
BRANCH   3  22
ATOM     22  C   LIG d   1      -1.618  78.317 110.403  0.00  0.00     0.382 C 
ATOM     23  O   LIG d   1      -1.045  78.902 109.452  0.00  0.00    -0.241 OA
ATOM     24  O   LIG d   1      -2.571  77.551 110.166  0.00  0.00    -0.241 OA
ENDBRANCH   3  22
TORSDOF 7
ENDMDL
MODEL 9
REMARK VINA RESULT:      -4.0      1.995      2.585
REMARK  7 active torsions:
REMARK  status: ('A' for Active; 'I' for Inactive)
REMARK    1  A    between atoms: C_2  and  C_3 
REMARK    2  A    between atoms: C_3  and  O_6 
REMARK    3  A    between atoms: C_3  and  C_4 
REMARK    4  A    between atoms: C_7  and  O_6 
REMARK    5  A    between atoms: C_9  and  C_10 
REMARK    6  A    between atoms: N_15  and  C_14 
REMARK    7  A    between atoms: N_20  and  C_19 
REMARK       I    between atoms: C_22  and  N_20 
ROOT
ATOM      1  C   LIG d   1      -0.512  78.109 115.795  0.00  0.00     0.161 C 
ATOM      2  C   LIG d   1      -0.869  79.076 114.842  0.00  0.00     0.016 C 
ATOM      3  C   LIG d   1      -1.992  78.953 113.991  0.00  0.00     0.038 C 
ATOM      4  C   LIG d   1      -2.926  77.917 114.141  0.00  0.00     0.028 C 
ATOM      5  C   LIG d   1      -2.333  76.651 114.753  0.00  0.00    -0.047 C 
ATOM      6  C   LIG d   1      -1.581  77.026 116.050  0.00  0.00     0.091 C 
ENDROOT
BRANCH   1   7
ATOM      7  O   LIG d   1      -0.146  78.753 117.032  0.00  0.00    -0.368 OA
BRANCH   7   8
ATOM      8  C   LIG d   1      -0.901  79.940 117.379  0.00  0.00     0.119 C 
BRANCH   8   9
ATOM      9  C   LIG d   1       0.070  80.922 118.063  0.00  0.00     0.028 C 
ATOM     10  C   LIG d   1      -0.664  82.046 118.813  0.00  0.00     0.006 C 
ENDBRANCH   8   9
BRANCH   8  11
ATOM     11  C   LIG d   1      -1.973  79.632 118.428  0.00  0.00     0.028 C 
ATOM     12  C   LIG d   1      -3.399  79.697 117.859  0.00  0.00     0.006 C 
ENDBRANCH   8  11
ENDBRANCH   7   8
ENDBRANCH   1   7
BRANCH   6  13
ATOM     13  N   LIG d   1      -0.899  75.858 116.667  0.00  0.00    -0.311 N 
ATOM     14  C   LIG d   1      -1.212  75.378 117.870  0.00  0.00     0.210 C 
ATOM     15  C   LIG d   1      -0.373  74.180 118.326  0.00  0.00     0.109 C 
ATOM     16  O   LIG d   1      -2.126  75.810 118.588  0.00  0.00    -0.276 OA
ATOM     17  H   LIG d   1      -0.166  75.426 116.140  0.00  0.00     0.149 HD
ENDBRANCH   6  13
BRANCH   5  18
ATOM     18  N   LIG d   1      -3.442  75.705 114.980  0.00  0.00     0.381 N 
ATOM     19  H   LIG d   1      -3.567  75.559 115.962  0.00  0.00    -0.090 HD
ATOM     20  H   LIG d   1      -3.208  74.823 114.557  0.00  0.00    -0.090 HD
ATOM     21  H   LIG d   1      -4.282  76.061 114.580  0.00  0.00    -0.090 HD
ENDBRANCH   5  18
BRANCH   3  22
ATOM     22  C   LIG d   1      -2.167  79.851 112.950  0.00  0.00     0.382 C 
ATOM     23  O   LIG d   1      -2.884  80.868 113.113  0.00  0.00    -0.241 OA
ATOM     24  O   LIG d   1      -1.654  79.635 111.835  0.00  0.00    -0.241 OA
ENDBRANCH   3  22
TORSDOF 7
ENDMDL
