MODEL 1
REMARK VINA RESULT:      -5.3      0.000      0.000
REMARK  7 active torsions:
REMARK  status: ('A' for Active; 'I' for Inactive)
REMARK    1  A    between atoms: C_2  and  C_3 
REMARK    2  A    between atoms: C_3  and  O_6 
REMARK    3  A    between atoms: C_3  and  C_4 
REMARK    4  A    between atoms: C_7  and  O_6 
REMARK    5  A    between atoms: C_9  and  C_10 
REMARK    6  A    between atoms: N_15  and  C_14 
REMARK    7  A    between atoms: N_20  and  C_19 
REMARK       I    between atoms: C_22  and  N_20 
ROOT
ATOM      1  C   LIG d   1      -0.748  80.633 111.385  0.00  0.00     0.161 C 
ATOM      2  C   LIG d   1      -1.464  79.429 111.284  0.00  0.00     0.016 C 
ATOM      3  C   LIG d   1      -2.452  79.031 112.214  0.00  0.00     0.038 C 
ATOM      4  C   LIG d   1      -2.901  79.886 113.231  0.00  0.00     0.028 C 
ATOM      5  C   LIG d   1      -1.854  80.904 113.672  0.00  0.00    -0.047 C 
ATOM      6  C   LIG d   1      -1.302  81.630 112.424  0.00  0.00     0.091 C 
ENDROOT
BRANCH   1   7
ATOM      7  O   LIG d   1      -0.659  81.259 110.089  0.00  0.00    -0.368 OA
BRANCH   7   8
ATOM      8  C   LIG d   1       0.631  81.186 109.434  0.00  0.00     0.119 C 
BRANCH   8   9
ATOM      9  C   LIG d   1       1.511  80.219 110.249  0.00  0.00     0.028 C 
ATOM     10  C   LIG d   1       1.948  78.992 109.431  0.00  0.00     0.006 C 
ENDBRANCH   8   9
BRANCH   8  11
ATOM     11  C   LIG d   1       1.357  82.534 109.482  0.00  0.00     0.028 C 
ATOM     12  C   LIG d   1       2.650  82.485 110.311  0.00  0.00     0.006 C 
ENDBRANCH   8  11
ENDBRANCH   7   8
ENDBRANCH   1   7
BRANCH   6  13
ATOM     13  N   LIG d   1      -0.212  82.584 112.759  0.00  0.00    -0.311 N 
ATOM     14  C   LIG d   1      -0.247  83.877 112.442  0.00  0.00     0.210 C 
ATOM     15  C   LIG d   1       0.989  84.679 112.863  0.00  0.00     0.109 C 
ATOM     16  O   LIG d   1      -1.198  84.442 111.881  0.00  0.00    -0.276 OA
ATOM     17  H   LIG d   1       0.584  82.215 113.242  0.00  0.00     0.149 HD
ENDBRANCH   6  13
BRANCH   5  18
ATOM     18  N   LIG d   1      -2.499  81.817 114.635  0.00  0.00     0.381 N 
ATOM     19  H   LIG d   1      -2.270  82.764 114.408  0.00  0.00    -0.090 HD
ATOM     20  H   LIG d   1      -2.148  81.619 115.555  0.00  0.00    -0.090 HD
ATOM     21  H   LIG d   1      -3.487  81.692 114.614  0.00  0.00    -0.090 HD
ENDBRANCH   5  18
BRANCH   3  22
ATOM     22  C   LIG d   1      -2.973  77.747 112.155  0.00  0.00     0.382 C 
ATOM     23  O   LIG d   1      -4.081  77.545 111.602  0.00  0.00    -0.241 OA
ATOM     24  O   LIG d   1      -2.371  76.796 112.688  0.00  0.00    -0.241 OA
ENDBRANCH   3  22
TORSDOF 7
ENDMDL
MODEL 2
REMARK VINA RESULT:      -5.2      2.534      4.719
REMARK  7 active torsions:
REMARK  status: ('A' for Active; 'I' for Inactive)
REMARK    1  A    between atoms: C_2  and  C_3 
REMARK    2  A    between atoms: C_3  and  O_6 
REMARK    3  A    between atoms: C_3  and  C_4 
REMARK    4  A    between atoms: C_7  and  O_6 
REMARK    5  A    between atoms: C_9  and  C_10 
REMARK    6  A    between atoms: N_15  and  C_14 
REMARK    7  A    between atoms: N_20  and  C_19 
REMARK       I    between atoms: C_22  and  N_20 
ROOT
ATOM      1  C   LIG d   1      -0.157  83.000 112.008  0.00  0.00     0.161 C 
ATOM      2  C   LIG d   1      -1.392  82.505 112.460  0.00  0.00     0.016 C 
ATOM      3  C   LIG d   1      -1.848  81.194 112.195  0.00  0.00     0.038 C 
ATOM      4  C   LIG d   1      -1.029  80.233 111.584  0.00  0.00     0.028 C 
ATOM      5  C   LIG d   1       0.029  80.834 110.665  0.00  0.00    -0.047 C 
ATOM      6  C   LIG d   1       0.798  81.931 111.436  0.00  0.00     0.091 C 
ENDROOT
BRANCH   1   7
ATOM      7  O   LIG d   1       0.491  83.736 113.064  0.00  0.00    -0.368 OA
BRANCH   7   8
ATOM      8  C   LIG d   1       0.170  83.326 114.416  0.00  0.00     0.119 C 
BRANCH   8   9
ATOM      9  C   LIG d   1      -0.102  84.602 115.235  0.00  0.00     0.028 C 
ATOM     10  C   LIG d   1       0.301  84.449 116.712  0.00  0.00     0.006 C 
ENDBRANCH   8   9
BRANCH   8  11
ATOM     11  C   LIG d   1       1.369  82.657 115.095  0.00  0.00     0.028 C 
ATOM     12  C   LIG d   1       1.276  81.123 115.092  0.00  0.00     0.006 C 
ENDBRANCH   8  11
ENDBRANCH   7   8
ENDBRANCH   1   7
BRANCH   6  13
ATOM     13  N   LIG d   1       1.796  82.629 110.584  0.00  0.00    -0.311 N 
ATOM     14  C   LIG d   1       3.003  82.135 110.314  0.00  0.00     0.210 C 
ATOM     15  C   LIG d   1       3.883  83.025 109.431  0.00  0.00     0.109 C 
ATOM     16  O   LIG d   1       3.416  81.030 110.695  0.00  0.00    -0.276 OA
ATOM     17  H   LIG d   1       1.531  83.518 110.207  0.00  0.00     0.149 HD
ENDBRANCH   6  13
BRANCH   5  18
ATOM     18  N   LIG d   1       0.897  79.734 110.205  0.00  0.00     0.381 N 
ATOM     19  H   LIG d   1       0.745  78.923 110.771  0.00  0.00    -0.090 HD
ATOM     20  H   LIG d   1       1.857  80.013 110.307  0.00  0.00    -0.090 HD
ATOM     21  H   LIG d   1       0.704  79.523 109.251  0.00  0.00    -0.090 HD
ENDBRANCH   5  18
BRANCH   3  22
ATOM     22  C   LIG d   1      -3.153  80.845 112.507  0.00  0.00     0.382 C 
ATOM     23  O   LIG d   1      -3.437  79.651 112.769  0.00  0.00    -0.241 OA
ATOM     24  O   LIG d   1      -4.059  81.700 112.486  0.00  0.00    -0.241 OA
ENDBRANCH   3  22
TORSDOF 7
ENDMDL
MODEL 3
REMARK VINA RESULT:      -5.1      2.539      6.054
REMARK  7 active torsions:
REMARK  status: ('A' for Active; 'I' for Inactive)
REMARK    1  A    between atoms: C_2  and  C_3 
REMARK    2  A    between atoms: C_3  and  O_6 
REMARK    3  A    between atoms: C_3  and  C_4 
REMARK    4  A    between atoms: C_7  and  O_6 
REMARK    5  A    between atoms: C_9  and  C_10 
REMARK    6  A    between atoms: N_15  and  C_14 
REMARK    7  A    between atoms: N_20  and  C_19 
REMARK       I    between atoms: C_22  and  N_20 
ROOT
ATOM      1  C   LIG d   1       0.224  81.129 113.319  0.00  0.00     0.161 C 
ATOM      2  C   LIG d   1       1.066  82.115 112.779  0.00  0.00     0.016 C 
ATOM      3  C   LIG d   1       1.252  82.304 111.390  0.00  0.00     0.038 C 
ATOM      4  C   LIG d   1       0.486  81.614 110.438  0.00  0.00     0.028 C 
ATOM      5  C   LIG d   1      -0.008  80.257 110.928  0.00  0.00    -0.047 C 
ATOM      6  C   LIG d   1      -0.704  80.440 112.296  0.00  0.00     0.091 C 
ENDROOT
BRANCH   1   7
ATOM      7  O   LIG d   1      -0.548  81.685 114.401  0.00  0.00    -0.368 OA
BRANCH   7   8
ATOM      8  C   LIG d   1      -1.655  82.540 114.021  0.00  0.00     0.119 C 
BRANCH   8   9
ATOM      9  C   LIG d   1      -1.435  83.909 114.694  0.00  0.00     0.028 C 
ATOM     10  C   LIG d   1      -0.469  83.827 115.888  0.00  0.00     0.006 C 
ENDBRANCH   8   9
BRANCH   8  11
ATOM     11  C   LIG d   1      -2.980  82.019 114.584  0.00  0.00     0.028 C 
ATOM     12  C   LIG d   1      -2.787  80.935 115.655  0.00  0.00     0.006 C 
ENDBRANCH   8  11
ENDBRANCH   7   8
ENDBRANCH   1   7
BRANCH   6  13
ATOM     13  N   LIG d   1      -1.143  79.149 112.886  0.00  0.00    -0.311 N 
ATOM     14  C   LIG d   1      -2.385  78.680 112.782  0.00  0.00     0.210 C 
ATOM     15  C   LIG d   1      -2.631  77.339 113.481  0.00  0.00     0.109 C 
ATOM     16  O   LIG d   1      -3.299  79.232 112.151  0.00  0.00    -0.276 OA
ATOM     17  H   LIG d   1      -0.457  78.620 113.389  0.00  0.00     0.149 HD
ENDBRANCH   6  13
BRANCH   5  18
ATOM     18  N   LIG d   1      -0.904  79.709 109.892  0.00  0.00     0.381 N 
ATOM     19  H   LIG d   1      -1.667  80.337 109.737  0.00  0.00    -0.090 HD
ATOM     20  H   LIG d   1      -1.277  78.834 110.215  0.00  0.00    -0.090 HD
ATOM     21  H   LIG d   1      -0.400  79.571 109.044  0.00  0.00    -0.090 HD
ENDBRANCH   5  18
BRANCH   3  22
ATOM     22  C   LIG d   1       2.242  83.165 110.940  0.00  0.00     0.382 C 
ATOM     23  O   LIG d   1       1.959  84.072 110.120  0.00  0.00    -0.241 OA
ATOM     24  O   LIG d   1       3.422  83.018 111.309  0.00  0.00    -0.241 OA
ENDBRANCH   3  22
TORSDOF 7
ENDMDL
MODEL 4
REMARK VINA RESULT:      -5.0      2.458      6.363
REMARK  7 active torsions:
REMARK  status: ('A' for Active; 'I' for Inactive)
REMARK    1  A    between atoms: C_2  and  C_3 
REMARK    2  A    between atoms: C_3  and  O_6 
REMARK    3  A    between atoms: C_3  and  C_4 
REMARK    4  A    between atoms: C_7  and  O_6 
REMARK    5  A    between atoms: C_9  and  C_10 
REMARK    6  A    between atoms: N_15  and  C_14 
REMARK    7  A    between atoms: N_20  and  C_19 
REMARK       I    between atoms: C_22  and  N_20 
ROOT
ATOM      1  C   LIG d   1      -1.866  81.066 113.609  0.00  0.00     0.161 C 
ATOM      2  C   LIG d   1      -1.669  82.373 113.132  0.00  0.00     0.016 C 
ATOM      3  C   LIG d   1      -1.035  82.665 111.902  0.00  0.00     0.038 C 
ATOM      4  C   LIG d   1      -0.688  81.658 110.989  0.00  0.00     0.028 C 
ATOM      5  C   LIG d   1      -0.410  80.312 111.649  0.00  0.00    -0.047 C 
ATOM      6  C   LIG d   1      -1.595  79.953 112.576  0.00  0.00     0.091 C 
ENDROOT
BRANCH   1   7
ATOM      7  O   LIG d   1      -3.198  80.938 114.145  0.00  0.00    -0.368 OA
BRANCH   7   8
ATOM      8  C   LIG d   1      -3.294  80.789 115.583  0.00  0.00     0.119 C 
BRANCH   8   9
ATOM      9  C   LIG d   1      -3.676  82.164 116.166  0.00  0.00     0.028 C 
ATOM     10  C   LIG d   1      -2.475  82.886 116.801  0.00  0.00     0.006 C 
ENDBRANCH   8   9
BRANCH   8  11
ATOM     11  C   LIG d   1      -1.934  80.450 116.200  0.00  0.00     0.028 C 
ATOM     12  C   LIG d   1      -1.961  79.153 117.024  0.00  0.00     0.006 C 
ENDBRANCH   8  11
ENDBRANCH   7   8
ENDBRANCH   1   7
BRANCH   6  13
ATOM     13  N   LIG d   1      -1.366  78.690 113.325  0.00  0.00    -0.311 N 
ATOM     14  C   LIG d   1      -2.291  77.743 113.465  0.00  0.00     0.210 C 
ATOM     15  C   LIG d   1      -1.855  76.530 114.292  0.00  0.00     0.109 C 
ATOM     16  O   LIG d   1      -3.421  77.777 112.955  0.00  0.00    -0.276 OA
ATOM     17  H   LIG d   1      -0.466  78.566 113.745  0.00  0.00     0.149 HD
ENDBRANCH   6  13
BRANCH   5  18
ATOM     18  N   LIG d   1      -0.197  79.324 110.574  0.00  0.00     0.381 N 
ATOM     19  H   LIG d   1      -0.168  78.402 110.962  0.00  0.00    -0.090 HD
ATOM     20  H   LIG d   1       0.687  79.509 110.134  0.00  0.00    -0.090 HD
ATOM     21  H   LIG d   1      -0.931  79.386 109.903  0.00  0.00    -0.090 HD
ENDBRANCH   5  18
BRANCH   3  22
ATOM     22  C   LIG d   1      -0.705  83.976 111.593  0.00  0.00     0.382 C 
ATOM     23  O   LIG d   1      -1.075  84.475 110.503  0.00  0.00    -0.241 OA
ATOM     24  O   LIG d   1      -0.005  84.652 112.371  0.00  0.00    -0.241 OA
ENDBRANCH   3  22
TORSDOF 7
ENDMDL
MODEL 5
REMARK VINA RESULT:      -4.9      2.433      4.612
REMARK  7 active torsions:
REMARK  status: ('A' for Active; 'I' for Inactive)
REMARK    1  A    between atoms: C_2  and  C_3 
REMARK    2  A    between atoms: C_3  and  O_6 
REMARK    3  A    between atoms: C_3  and  C_4 
REMARK    4  A    between atoms: C_7  and  O_6 
REMARK    5  A    between atoms: C_9  and  C_10 
REMARK    6  A    between atoms: N_15  and  C_14 
REMARK    7  A    between atoms: N_20  and  C_19 
REMARK       I    between atoms: C_22  and  N_20 
ROOT
ATOM      1  C   LIG d   1      -2.456  81.052 113.613  0.00  0.00     0.161 C 
ATOM      2  C   LIG d   1      -2.920  79.822 114.109  0.00  0.00     0.016 C 
ATOM      3  C   LIG d   1      -2.767  78.598 113.419  0.00  0.00     0.038 C 
ATOM      4  C   LIG d   1      -1.999  78.497 112.249  0.00  0.00     0.028 C 
ATOM      5  C   LIG d   1      -1.940  79.794 111.450  0.00  0.00    -0.047 C 
ATOM      6  C   LIG d   1      -1.519  80.945 112.392  0.00  0.00     0.091 C 
ENDROOT
BRANCH   1   7
ATOM      7  O   LIG d   1      -1.817  81.795 114.671  0.00  0.00    -0.368 OA
BRANCH   7   8
ATOM      8  C   LIG d   1      -2.620  82.824 115.301  0.00  0.00     0.119 C 
BRANCH   8   9
ATOM      9  C   LIG d   1      -1.717  84.057 115.501  0.00  0.00     0.028 C 
ATOM     10  C   LIG d   1      -0.407  83.961 114.702  0.00  0.00     0.006 C 
ENDBRANCH   8   9
BRANCH   8  11
ATOM     11  C   LIG d   1      -3.055  82.407 116.709  0.00  0.00     0.028 C 
ATOM     12  C   LIG d   1      -2.006  82.744 117.781  0.00  0.00     0.006 C 
ENDBRANCH   8  11
ENDBRANCH   7   8
ENDBRANCH   1   7
BRANCH   6  13
ATOM     13  N   LIG d   1      -1.517  82.265 111.709  0.00  0.00    -0.311 N 
ATOM     14  C   LIG d   1      -0.434  82.798 111.147  0.00  0.00     0.210 C 
ATOM     15  C   LIG d   1      -0.646  84.177 110.514  0.00  0.00     0.109 C 
ATOM     16  O   LIG d   1       0.675  82.246 111.084  0.00  0.00    -0.276 OA
ATOM     17  H   LIG d   1      -2.383  82.767 111.686  0.00  0.00     0.149 HD
ENDBRANCH   6  13
BRANCH   5  18
ATOM     18  N   LIG d   1      -0.998  79.587 110.333  0.00  0.00     0.381 N 
ATOM     19  H   LIG d   1      -1.355  80.019 109.505  0.00  0.00    -0.090 HD
ATOM     20  H   LIG d   1      -0.910  78.601 110.161  0.00  0.00    -0.090 HD
ATOM     21  H   LIG d   1      -0.108  79.972 110.562  0.00  0.00    -0.090 HD
ENDBRANCH   5  18
BRANCH   3  22
ATOM     22  C   LIG d   1      -3.419  77.464 113.879  0.00  0.00     0.382 C 
ATOM     23  O   LIG d   1      -3.448  76.427 113.172  0.00  0.00    -0.241 OA
ATOM     24  O   LIG d   1      -4.017  77.478 114.971  0.00  0.00    -0.241 OA
ENDBRANCH   3  22
TORSDOF 7
ENDMDL
MODEL 6
REMARK VINA RESULT:      -4.8      2.488      5.421
REMARK  7 active torsions:
REMARK  status: ('A' for Active; 'I' for Inactive)
REMARK    1  A    between atoms: C_2  and  C_3 
REMARK    2  A    between atoms: C_3  and  O_6 
REMARK    3  A    between atoms: C_3  and  C_4 
REMARK    4  A    between atoms: C_7  and  O_6 
REMARK    5  A    between atoms: C_9  and  C_10 
REMARK    6  A    between atoms: N_15  and  C_14 
REMARK    7  A    between atoms: N_20  and  C_19 
REMARK       I    between atoms: C_22  and  N_20 
ROOT
ATOM      1  C   LIG d   1       0.502  81.106 113.480  0.00  0.00     0.161 C 
ATOM      2  C   LIG d   1       1.500  81.386 112.531  0.00  0.00     0.016 C 
ATOM      3  C   LIG d   1       1.391  81.043 111.163  0.00  0.00     0.038 C 
ATOM      4  C   LIG d   1       0.203  80.530 110.620  0.00  0.00     0.028 C 
ATOM      5  C   LIG d   1      -0.645  79.766 111.631  0.00  0.00    -0.047 C 
ATOM      6  C   LIG d   1      -0.846  80.647 112.885  0.00  0.00     0.091 C 
ENDROOT
BRANCH   1   7
ATOM      7  O   LIG d   1       0.309  82.249 114.336  0.00  0.00    -0.368 OA
BRANCH   7   8
ATOM      8  C   LIG d   1      -0.834  83.087 114.033  0.00  0.00     0.119 C 
BRANCH   8   9
ATOM      9  C   LIG d   1      -0.316  84.312 113.255  0.00  0.00     0.028 C 
ATOM     10  C   LIG d   1      -0.710  84.273 111.769  0.00  0.00     0.006 C 
ENDBRANCH   8   9
BRANCH   8  11
ATOM     11  C   LIG d   1      -1.463  83.653 115.309  0.00  0.00     0.028 C 
ATOM     12  C   LIG d   1      -2.941  83.260 115.470  0.00  0.00     0.006 C 
ENDBRANCH   8  11
ENDBRANCH   7   8
ENDBRANCH   1   7
BRANCH   6  13
ATOM     13  N   LIG d   1      -1.594  79.943 113.959  0.00  0.00    -0.311 N 
ATOM     14  C   LIG d   1      -2.920  79.985 114.076  0.00  0.00     0.210 C 
ATOM     15  C   LIG d   1      -3.489  79.205 115.266  0.00  0.00     0.109 C 
ATOM     16  O   LIG d   1      -3.682  80.566 113.289  0.00  0.00    -0.276 OA
ATOM     17  H   LIG d   1      -1.056  79.421 114.623  0.00  0.00     0.149 HD
ENDBRANCH   6  13
BRANCH   5  18
ATOM     18  N   LIG d   1      -1.913  79.407 110.968  0.00  0.00     0.381 N 
ATOM     19  H   LIG d   1      -2.678  79.561 111.594  0.00  0.00    -0.090 HD
ATOM     20  H   LIG d   1      -1.890  78.431 110.732  0.00  0.00    -0.090 HD
ATOM     21  H   LIG d   1      -2.033  79.953 110.144  0.00  0.00    -0.090 HD
ENDBRANCH   5  18
BRANCH   3  22
ATOM     22  C   LIG d   1       2.492  81.177 110.331  0.00  0.00     0.382 C 
ATOM     23  O   LIG d   1       3.254  82.166 110.454  0.00  0.00    -0.241 OA
ATOM     24  O   LIG d   1       2.707  80.345 109.430  0.00  0.00    -0.241 OA
ENDBRANCH   3  22
TORSDOF 7
ENDMDL
MODEL 7
REMARK VINA RESULT:      -4.8      2.424      5.196
REMARK  7 active torsions:
REMARK  status: ('A' for Active; 'I' for Inactive)
REMARK    1  A    between atoms: C_2  and  C_3 
REMARK    2  A    between atoms: C_3  and  O_6 
REMARK    3  A    between atoms: C_3  and  C_4 
REMARK    4  A    between atoms: C_7  and  O_6 
REMARK    5  A    between atoms: C_9  and  C_10 
REMARK    6  A    between atoms: N_15  and  C_14 
REMARK    7  A    between atoms: N_20  and  C_19 
REMARK       I    between atoms: C_22  and  N_20 
ROOT
ATOM      1  C   LIG d   1      -0.553  82.920 111.678  0.00  0.00     0.161 C 
ATOM      2  C   LIG d   1       0.633  83.151 110.961  0.00  0.00     0.016 C 
ATOM      3  C   LIG d   1       1.866  83.467 111.577  0.00  0.00     0.038 C 
ATOM      4  C   LIG d   1       2.031  83.424 112.969  0.00  0.00     0.028 C 
ATOM      5  C   LIG d   1       0.743  83.691 113.741  0.00  0.00    -0.047 C 
ATOM      6  C   LIG d   1      -0.367  82.760 113.201  0.00  0.00     0.091 C 
ENDROOT
BRANCH   1   7
ATOM      7  O   LIG d   1      -1.238  81.775 111.134  0.00  0.00    -0.368 OA
BRANCH   7   8
ATOM      8  C   LIG d   1      -0.597  80.492 111.339  0.00  0.00     0.119 C 
BRANCH   8   9
ATOM      9  C   LIG d   1      -0.309  79.890 109.950  0.00  0.00     0.028 C 
ATOM     10  C   LIG d   1       1.193  79.669 109.706  0.00  0.00     0.006 C 
ENDBRANCH   8   9
BRANCH   8  11
ATOM     11  C   LIG d   1      -1.543  79.500 112.023  0.00  0.00     0.028 C 
ATOM     12  C   LIG d   1      -2.967  80.052 112.189  0.00  0.00     0.006 C 
ENDBRANCH   8  11
ENDBRANCH   7   8
ENDBRANCH   1   7
BRANCH   6  13
ATOM     13  N   LIG d   1      -1.683  83.015 113.844  0.00  0.00    -0.311 N 
ATOM     14  C   LIG d   1      -2.120  82.346 114.909  0.00  0.00     0.210 C 
ATOM     15  C   LIG d   1      -3.513  82.752 115.401  0.00  0.00     0.109 C 
ATOM     16  O   LIG d   1      -1.474  81.476 115.512  0.00  0.00    -0.276 OA
ATOM     17  H   LIG d   1      -2.259  83.726 113.438  0.00  0.00     0.149 HD
ENDBRANCH   6  13
BRANCH   5  18
ATOM     18  N   LIG d   1       1.029  83.480 115.172  0.00  0.00     0.381 N 
ATOM     19  H   LIG d   1       1.519  84.271 115.540  0.00  0.00    -0.090 HD
ATOM     20  H   LIG d   1       1.617  82.671 115.271  0.00  0.00    -0.090 HD
ATOM     21  H   LIG d   1       0.179  83.345 115.674  0.00  0.00    -0.090 HD
ENDBRANCH   5  18
BRANCH   3  22
ATOM     22  C   LIG d   1       2.940  83.868 110.798  0.00  0.00     0.382 C 
ATOM     23  O   LIG d   1       2.750  84.601 109.798  0.00  0.00    -0.241 OA
ATOM     24  O   LIG d   1       4.092  83.471 111.057  0.00  0.00    -0.241 OA
ENDBRANCH   3  22
TORSDOF 7
ENDMDL
MODEL 8
REMARK VINA RESULT:      -4.6      2.549      5.144
REMARK  7 active torsions:
REMARK  status: ('A' for Active; 'I' for Inactive)
REMARK    1  A    between atoms: C_2  and  C_3 
REMARK    2  A    between atoms: C_3  and  O_6 
REMARK    3  A    between atoms: C_3  and  C_4 
REMARK    4  A    between atoms: C_7  and  O_6 
REMARK    5  A    between atoms: C_9  and  C_10 
REMARK    6  A    between atoms: N_15  and  C_14 
REMARK    7  A    between atoms: N_20  and  C_19 
REMARK       I    between atoms: C_22  and  N_20 
ROOT
ATOM      1  C   LIG d   1       0.450  81.516 113.102  0.00  0.00     0.161 C 
ATOM      2  C   LIG d   1       1.472  81.414 112.144  0.00  0.00     0.016 C 
ATOM      3  C   LIG d   1       1.336  80.692 110.936  0.00  0.00     0.038 C 
ATOM      4  C   LIG d   1       0.109  80.146 110.532  0.00  0.00     0.028 C 
ATOM      5  C   LIG d   1      -0.809  79.793 111.698  0.00  0.00    -0.047 C 
ATOM      6  C   LIG d   1      -0.932  81.020 112.629  0.00  0.00     0.091 C 
ENDROOT
BRANCH   1   7
ATOM      7  O   LIG d   1       0.359  82.874 113.577  0.00  0.00    -0.368 OA
BRANCH   7   8
ATOM      8  C   LIG d   1       0.721  83.091 114.963  0.00  0.00     0.119 C 
BRANCH   8   9
ATOM      9  C   LIG d   1       0.017  84.380 115.429  0.00  0.00     0.028 C 
ATOM     10  C   LIG d   1      -1.386  84.536 114.819  0.00  0.00     0.006 C 
ENDBRANCH   8   9
BRANCH   8  11
ATOM     11  C   LIG d   1       2.219  83.370 115.111  0.00  0.00     0.028 C 
ATOM     12  C   LIG d   1       2.713  84.485 114.176  0.00  0.00     0.006 C 
ENDBRANCH   8  11
ENDBRANCH   7   8
ENDBRANCH   1   7
BRANCH   6  13
ATOM     13  N   LIG d   1      -1.746  80.734 113.840  0.00  0.00    -0.311 N 
ATOM     14  C   LIG d   1      -2.933  81.290 114.074  0.00  0.00     0.210 C 
ATOM     15  C   LIG d   1      -3.594  80.873 115.391  0.00  0.00     0.109 C 
ATOM     16  O   LIG d   1      -3.515  82.065 113.301  0.00  0.00    -0.276 OA
ATOM     17  H   LIG d   1      -1.362  80.092 114.506  0.00  0.00     0.149 HD
ENDBRANCH   6  13
BRANCH   5  18
ATOM     18  N   LIG d   1      -2.102  79.364 111.133  0.00  0.00     0.381 N 
ATOM     19  H   LIG d   1      -1.964  78.578 110.529  0.00  0.00    -0.090 HD
ATOM     20  H   LIG d   1      -2.485  80.116 110.588  0.00  0.00    -0.090 HD
ATOM     21  H   LIG d   1      -2.732  79.122 111.866  0.00  0.00    -0.090 HD
ENDBRANCH   5  18
BRANCH   3  22
ATOM     22  C   LIG d   1       2.448  80.477 110.135  0.00  0.00     0.382 C 
ATOM     23  O   LIG d   1       2.522  79.442 109.430  0.00  0.00    -0.241 OA
ATOM     24  O   LIG d   1       3.397  81.284 110.142  0.00  0.00    -0.241 OA
ENDBRANCH   3  22
TORSDOF 7
ENDMDL
MODEL 9
REMARK VINA RESULT:      -4.3      4.041      6.795
REMARK  7 active torsions:
REMARK  status: ('A' for Active; 'I' for Inactive)
REMARK    1  A    between atoms: C_2  and  C_3 
REMARK    2  A    between atoms: C_3  and  O_6 
REMARK    3  A    between atoms: C_3  and  C_4 
REMARK    4  A    between atoms: C_7  and  O_6 
REMARK    5  A    between atoms: C_9  and  C_10 
REMARK    6  A    between atoms: N_15  and  C_14 
REMARK    7  A    between atoms: N_20  and  C_19 
REMARK       I    between atoms: C_22  and  N_20 
ROOT
ATOM      1  C   LIG d   1      -1.011  80.198 115.576  0.00  0.00     0.161 C 
ATOM      2  C   LIG d   1      -1.641  81.019 114.627  0.00  0.00     0.016 C 
ATOM      3  C   LIG d   1      -2.420  80.517 113.559  0.00  0.00     0.038 C 
ATOM      4  C   LIG d   1      -2.747  79.157 113.455  0.00  0.00     0.028 C 
ATOM      5  C   LIG d   1      -1.718  78.235 114.101  0.00  0.00    -0.047 C 
ATOM      6  C   LIG d   1      -1.448  78.719 115.545  0.00  0.00     0.091 C 
ENDROOT
BRANCH   1   7
ATOM      7  O   LIG d   1      -1.196  80.747 116.896  0.00  0.00    -0.368 OA
BRANCH   7   8
ATOM      8  C   LIG d   1      -2.238  81.744 117.032  0.00  0.00     0.119 C 
BRANCH   8   9
ATOM      9  C   LIG d   1      -1.670  82.894 117.886  0.00  0.00     0.028 C 
ATOM     10  C   LIG d   1      -0.375  83.478 117.298  0.00  0.00     0.006 C 
ENDBRANCH   8   9
BRANCH   8  11
ATOM     11  C   LIG d   1      -3.430  81.200 117.825  0.00  0.00     0.028 C 
ATOM     12  C   LIG d   1      -3.900  82.161 118.928  0.00  0.00     0.006 C 
ENDBRANCH   8  11
ENDBRANCH   7   8
ENDBRANCH   1   7
BRANCH   6  13
ATOM     13  N   LIG d   1      -0.390  77.923 116.220  0.00  0.00    -0.311 N 
ATOM     14  C   LIG d   1      -0.645  76.855 116.974  0.00  0.00     0.210 C 
ATOM     15  C   LIG d   1       0.588  76.192 117.595  0.00  0.00     0.109 C 
ATOM     16  O   LIG d   1      -1.773  76.375 117.162  0.00  0.00    -0.276 OA
ATOM     17  H   LIG d   1       0.557  78.224 116.096  0.00  0.00     0.149 HD
ENDBRANCH   6  13
BRANCH   5  18
ATOM     18  N   LIG d   1      -2.251  76.861 114.042  0.00  0.00     0.381 N 
ATOM     19  H   LIG d   1      -2.544  76.651 113.109  0.00  0.00    -0.090 HD
ATOM     20  H   LIG d   1      -3.051  76.796 114.647  0.00  0.00    -0.090 HD
ATOM     21  H   LIG d   1      -1.553  76.212 114.332  0.00  0.00    -0.090 HD
ENDBRANCH   5  18
BRANCH   3  22
ATOM     22  C   LIG d   1      -2.847  81.375 112.557  0.00  0.00     0.382 C 
ATOM     23  O   LIG d   1      -4.053  81.713 112.493  0.00  0.00    -0.241 OA
ATOM     24  O   LIG d   1      -2.050  81.780 111.689  0.00  0.00    -0.241 OA
ENDBRANCH   3  22
TORSDOF 7
ENDMDL
