MODEL 1
REMARK VINA RESULT:      -4.9      0.000      0.000
REMARK  7 active torsions:
REMARK  status: ('A' for Active; 'I' for Inactive)
REMARK    1  A    between atoms: C_2  and  C_3 
REMARK    2  A    between atoms: C_3  and  O_6 
REMARK    3  A    between atoms: C_3  and  C_4 
REMARK    4  A    between atoms: C_7  and  O_6 
REMARK    5  A    between atoms: C_9  and  C_10 
REMARK    6  A    between atoms: N_15  and  C_14 
REMARK    7  A    between atoms: N_20  and  C_19 
REMARK       I    between atoms: C_22  and  N_20 
ROOT
ATOM      1  C   LIG d   1       1.888  81.273 112.603  0.00  0.00     0.161 C 
ATOM      2  C   LIG d   1       2.849  82.039 111.922  0.00  0.00     0.016 C 
ATOM      3  C   LIG d   1       2.794  82.302 110.534  0.00  0.00     0.038 C 
ATOM      4  C   LIG d   1       1.685  81.939 109.754  0.00  0.00     0.028 C 
ATOM      5  C   LIG d   1       0.934  80.727 110.296  0.00  0.00    -0.047 C 
ATOM      6  C   LIG d   1       0.614  80.963 111.790  0.00  0.00     0.091 C 
ENDROOT
BRANCH   1   7
ATOM      7  O   LIG d   1       1.545  81.913 113.848  0.00  0.00    -0.368 OA
BRANCH   7   8
ATOM      8  C   LIG d   1       2.656  82.304 114.691  0.00  0.00     0.119 C 
BRANCH   8   9
ATOM      9  C   LIG d   1       2.653  81.375 115.921  0.00  0.00     0.028 C 
ATOM     10  C   LIG d   1       3.849  80.409 115.929  0.00  0.00     0.006 C 
ENDBRANCH   8   9
BRANCH   8  11
ATOM     11  C   LIG d   1       2.461  83.717 115.251  0.00  0.00     0.028 C 
ATOM     12  C   LIG d   1       1.823  84.677 114.235  0.00  0.00     0.006 C 
ENDBRANCH   8  11
ENDBRANCH   7   8
ENDBRANCH   1   7
BRANCH   6  13
ATOM     13  N   LIG d   1      -0.047  79.790 112.420  0.00  0.00    -0.311 N 
ATOM     14  C   LIG d   1      -1.369  79.636 112.477  0.00  0.00     0.210 C 
ATOM     15  C   LIG d   1      -1.841  78.364 113.188  0.00  0.00     0.109 C 
ATOM     16  O   LIG d   1      -2.194  80.416 111.978  0.00  0.00    -0.276 OA
ATOM     17  H   LIG d   1       0.549  79.092 112.822  0.00  0.00     0.149 HD
ENDBRANCH   6  13
BRANCH   5  18
ATOM     18  N   LIG d   1      -0.273  80.544 109.468  0.00  0.00     0.381 N 
ATOM     19  H   LIG d   1      -0.965  80.040 109.985  0.00  0.00    -0.090 HD
ATOM     20  H   LIG d   1      -0.031  80.005 108.655  0.00  0.00    -0.090 HD
ATOM     21  H   LIG d   1      -0.635  81.431 109.192  0.00  0.00    -0.090 HD
ENDBRANCH   5  18
BRANCH   3  22
ATOM     22  C   LIG d   1       3.875  82.899 109.904  0.00  0.00     0.382 C 
ATOM     23  O   LIG d   1       3.911  84.146 109.769  0.00  0.00    -0.241 OA
ATOM     24  O   LIG d   1       4.793  82.204 109.430  0.00  0.00    -0.241 OA
ENDBRANCH   3  22
TORSDOF 7
ENDMDL
MODEL 2
REMARK VINA RESULT:      -4.7      4.842      7.245
REMARK  7 active torsions:
REMARK  status: ('A' for Active; 'I' for Inactive)
REMARK    1  A    between atoms: C_2  and  C_3 
REMARK    2  A    between atoms: C_3  and  O_6 
REMARK    3  A    between atoms: C_3  and  C_4 
REMARK    4  A    between atoms: C_7  and  O_6 
REMARK    5  A    between atoms: C_9  and  C_10 
REMARK    6  A    between atoms: N_15  and  C_14 
REMARK    7  A    between atoms: N_20  and  C_19 
REMARK       I    between atoms: C_22  and  N_20 
ROOT
ATOM      1  C   LIG d   1      -2.207  78.235 115.119  0.00  0.00     0.161 C 
ATOM      2  C   LIG d   1      -2.844  77.742 113.968  0.00  0.00     0.016 C 
ATOM      3  C   LIG d   1      -2.419  78.045 112.654  0.00  0.00     0.038 C 
ATOM      4  C   LIG d   1      -1.229  78.743 112.401  0.00  0.00     0.028 C 
ATOM      5  C   LIG d   1      -0.830  79.688 113.530  0.00  0.00    -0.047 C 
ATOM      6  C   LIG d   1      -0.841  78.908 114.865  0.00  0.00     0.091 C 
ENDROOT
BRANCH   1   7
ATOM      7  O   LIG d   1      -2.072  77.181 116.093  0.00  0.00    -0.368 OA
BRANCH   7   8
ATOM      8  C   LIG d   1      -2.092  75.829 115.574  0.00  0.00     0.119 C 
BRANCH   8   9
ATOM      9  C   LIG d   1      -2.957  74.980 116.526  0.00  0.00     0.028 C 
ATOM     10  C   LIG d   1      -4.432  74.933 116.094  0.00  0.00     0.006 C 
ENDBRANCH   8   9
BRANCH   8  11
ATOM     11  C   LIG d   1      -0.698  75.194 115.619  0.00  0.00     0.028 C 
ATOM     12  C   LIG d   1       0.038  75.278 114.273  0.00  0.00     0.006 C 
ENDBRANCH   8  11
ENDBRANCH   7   8
ENDBRANCH   1   7
BRANCH   6  13
ATOM     13  N   LIG d   1      -0.544  79.778 116.032  0.00  0.00    -0.311 N 
ATOM     14  C   LIG d   1       0.313  79.445 116.996  0.00  0.00     0.210 C 
ATOM     15  C   LIG d   1       0.457  80.477 118.118  0.00  0.00     0.109 C 
ATOM     16  O   LIG d   1       0.991  78.407 117.011  0.00  0.00    -0.276 OA
ATOM     17  H   LIG d   1      -1.028  80.654 116.083  0.00  0.00     0.149 HD
ENDBRANCH   6  13
BRANCH   5  18
ATOM     18  N   LIG d   1       0.495  80.245 113.197  0.00  0.00     0.381 N 
ATOM     19  H   LIG d   1       0.429  80.802 112.369  0.00  0.00    -0.090 HD
ATOM     20  H   LIG d   1       1.131  79.488 113.019  0.00  0.00    -0.090 HD
ATOM     21  H   LIG d   1       0.831  80.800 113.953  0.00  0.00    -0.090 HD
ENDBRANCH   5  18
BRANCH   3  22
ATOM     22  C   LIG d   1      -3.210  77.680 111.575  0.00  0.00     0.382 C 
ATOM     23  O   LIG d   1      -2.695  77.535 110.440  0.00  0.00    -0.241 OA
ATOM     24  O   LIG d   1      -4.440  77.538 111.713  0.00  0.00    -0.241 OA
ENDBRANCH   3  22
TORSDOF 7
ENDMDL
MODEL 3
REMARK VINA RESULT:      -4.6      3.804      6.467
REMARK  7 active torsions:
REMARK  status: ('A' for Active; 'I' for Inactive)
REMARK    1  A    between atoms: C_2  and  C_3 
REMARK    2  A    between atoms: C_3  and  O_6 
REMARK    3  A    between atoms: C_3  and  C_4 
REMARK    4  A    between atoms: C_7  and  O_6 
REMARK    5  A    between atoms: C_9  and  C_10 
REMARK    6  A    between atoms: N_15  and  C_14 
REMARK    7  A    between atoms: N_20  and  C_19 
REMARK       I    between atoms: C_22  and  N_20 
ROOT
ATOM      1  C   LIG d   1      -1.387  79.555 114.223  0.00  0.00     0.161 C 
ATOM      2  C   LIG d   1      -2.289  78.544 114.593  0.00  0.00     0.016 C 
ATOM      3  C   LIG d   1      -2.837  77.617 113.676  0.00  0.00     0.038 C 
ATOM      4  C   LIG d   1      -2.399  77.543 112.346  0.00  0.00     0.028 C 
ATOM      5  C   LIG d   1      -1.865  78.867 111.809  0.00  0.00    -0.047 C 
ATOM      6  C   LIG d   1      -0.813  79.421 112.797  0.00  0.00     0.091 C 
ENDROOT
BRANCH   1   7
ATOM      7  O   LIG d   1      -0.319  79.634 115.188  0.00  0.00    -0.368 OA
BRANCH   7   8
ATOM      8  C   LIG d   1      -0.558  78.978 116.458  0.00  0.00     0.119 C 
BRANCH   8   9
ATOM      9  C   LIG d   1      -0.523  80.062 117.552  0.00  0.00     0.028 C 
ATOM     10  C   LIG d   1      -1.869  80.200 118.284  0.00  0.00     0.006 C 
ENDBRANCH   8   9
BRANCH   8  11
ATOM     11  C   LIG d   1       0.578  78.012 116.808  0.00  0.00     0.028 C 
ATOM     12  C   LIG d   1       0.151  76.537 116.728  0.00  0.00     0.006 C 
ENDBRANCH   8  11
ENDBRANCH   7   8
ENDBRANCH   1   7
BRANCH   6  13
ATOM     13  N   LIG d   1      -0.301  80.755 112.391  0.00  0.00    -0.311 N 
ATOM     14  C   LIG d   1      -1.092  81.769 112.042  0.00  0.00     0.210 C 
ATOM     15  C   LIG d   1      -0.358  83.052 111.638  0.00  0.00     0.109 C 
ATOM     16  O   LIG d   1      -2.331  81.737 112.060  0.00  0.00    -0.276 OA
ATOM     17  H   LIG d   1       0.692  80.878 112.378  0.00  0.00     0.149 HD
ENDBRANCH   6  13
BRANCH   5  18
ATOM     18  N   LIG d   1      -1.318  78.614 110.463  0.00  0.00     0.381 N 
ATOM     19  H   LIG d   1      -0.348  78.376 110.531  0.00  0.00    -0.090 HD
ATOM     20  H   LIG d   1      -1.399  79.453 109.916  0.00  0.00    -0.090 HD
ATOM     21  H   LIG d   1      -1.819  77.873 110.025  0.00  0.00    -0.090 HD
ENDBRANCH   5  18
BRANCH   3  22
ATOM     22  C   LIG d   1      -3.863  76.776 114.080  0.00  0.00     0.382 C 
ATOM     23  O   LIG d   1      -4.440  76.043 113.241  0.00  0.00    -0.241 OA
ATOM     24  O   LIG d   1      -4.249  76.773 115.264  0.00  0.00    -0.241 OA
ENDBRANCH   3  22
TORSDOF 7
ENDMDL
MODEL 4
REMARK VINA RESULT:      -4.6      5.079      6.239
REMARK  7 active torsions:
REMARK  status: ('A' for Active; 'I' for Inactive)
REMARK    1  A    between atoms: C_2  and  C_3 
REMARK    2  A    between atoms: C_3  and  O_6 
REMARK    3  A    between atoms: C_3  and  C_4 
REMARK    4  A    between atoms: C_7  and  O_6 
REMARK    5  A    between atoms: C_9  and  C_10 
REMARK    6  A    between atoms: N_15  and  C_14 
REMARK    7  A    between atoms: N_20  and  C_19 
REMARK       I    between atoms: C_22  and  N_20 
ROOT
ATOM      1  C   LIG d   1      -2.126  78.490 114.805  0.00  0.00     0.161 C 
ATOM      2  C   LIG d   1      -2.584  79.694 114.245  0.00  0.00     0.016 C 
ATOM      3  C   LIG d   1      -2.577  79.959 112.857  0.00  0.00     0.038 C 
ATOM      4  C   LIG d   1      -2.249  78.973 111.915  0.00  0.00     0.028 C 
ATOM      5  C   LIG d   1      -1.300  77.909 112.458  0.00  0.00    -0.047 C 
ATOM      6  C   LIG d   1      -1.868  77.360 113.786  0.00  0.00     0.091 C 
ENDROOT
BRANCH   1   7
ATOM      7  O   LIG d   1      -3.042  78.046 115.825  0.00  0.00    -0.368 OA
BRANCH   7   8
ATOM      8  C   LIG d   1      -2.587  78.183 117.194  0.00  0.00     0.119 C 
BRANCH   8   9
ATOM      9  C   LIG d   1      -3.344  79.372 117.816  0.00  0.00     0.028 C 
ATOM     10  C   LIG d   1      -2.398  80.396 118.465  0.00  0.00     0.006 C 
ENDBRANCH   8   9
BRANCH   8  11
ATOM     11  C   LIG d   1      -1.106  78.570 117.253  0.00  0.00     0.028 C 
ATOM     12  C   LIG d   1      -0.235  77.491 117.915  0.00  0.00     0.006 C 
ENDBRANCH   8  11
ENDBRANCH   7   8
ENDBRANCH   1   7
BRANCH   6  13
ATOM     13  N   LIG d   1      -0.959  76.375 114.427  0.00  0.00    -0.311 N 
ATOM     14  C   LIG d   1      -1.391  75.313 115.106  0.00  0.00     0.210 C 
ATOM     15  C   LIG d   1      -0.286  74.436 115.704  0.00  0.00     0.109 C 
ATOM     16  O   LIG d   1      -2.582  74.997 115.243  0.00  0.00    -0.276 OA
ATOM     17  H   LIG d   1       0.025  76.537 114.339  0.00  0.00     0.149 HD
ENDBRANCH   6  13
BRANCH   5  18
ATOM     18  N   LIG d   1      -1.152  76.872 111.419  0.00  0.00     0.381 N 
ATOM     19  H   LIG d   1      -1.991  76.814 110.877  0.00  0.00    -0.090 HD
ATOM     20  H   LIG d   1      -1.003  75.984 111.866  0.00  0.00    -0.090 HD
ATOM     21  H   LIG d   1      -0.380  77.089 110.828  0.00  0.00    -0.090 HD
ENDBRANCH   5  18
BRANCH   3  22
ATOM     22  C   LIG d   1      -2.862  81.237 112.399  0.00  0.00     0.382 C 
ATOM     23  O   LIG d   1      -4.049  81.567 112.161  0.00  0.00    -0.241 OA
ATOM     24  O   LIG d   1      -1.944  82.049 112.180  0.00  0.00    -0.241 OA
ENDBRANCH   3  22
TORSDOF 7
ENDMDL
MODEL 5
REMARK VINA RESULT:      -4.3      5.863      7.630
REMARK  7 active torsions:
REMARK  status: ('A' for Active; 'I' for Inactive)
REMARK    1  A    between atoms: C_2  and  C_3 
REMARK    2  A    between atoms: C_3  and  O_6 
REMARK    3  A    between atoms: C_3  and  C_4 
REMARK    4  A    between atoms: C_7  and  O_6 
REMARK    5  A    between atoms: C_9  and  C_10 
REMARK    6  A    between atoms: N_15  and  C_14 
REMARK    7  A    between atoms: N_20  and  C_19 
REMARK       I    between atoms: C_22  and  N_20 
ROOT
ATOM      1  C   LIG d   1      -1.112  78.665 115.391  0.00  0.00     0.161 C 
ATOM      2  C   LIG d   1      -2.272  78.218 114.736  0.00  0.00     0.016 C 
ATOM      3  C   LIG d   1      -2.561  76.853 114.510  0.00  0.00     0.038 C 
ATOM      4  C   LIG d   1      -1.777  75.828 115.061  0.00  0.00     0.028 C 
ATOM      5  C   LIG d   1      -0.327  76.235 115.297  0.00  0.00    -0.047 C 
ATOM      6  C   LIG d   1      -0.301  77.558 116.096  0.00  0.00     0.091 C 
ENDROOT
BRANCH   1   7
ATOM      7  O   LIG d   1      -1.450  79.711 116.324  0.00  0.00    -0.368 OA
BRANCH   7   8
ATOM      8  C   LIG d   1      -1.826  79.280 117.655  0.00  0.00     0.119 C 
BRANCH   8   9
ATOM      9  C   LIG d   1      -3.311  79.638 117.855  0.00  0.00     0.028 C 
ATOM     10  C   LIG d   1      -4.220  78.397 117.848  0.00  0.00     0.006 C 
ENDBRANCH   8   9
BRANCH   8  11
ATOM     11  C   LIG d   1      -1.070  80.068 118.729  0.00  0.00     0.028 C 
ATOM     12  C   LIG d   1      -0.053  81.057 118.138  0.00  0.00     0.006 C 
ENDBRANCH   8  11
ENDBRANCH   7   8
ENDBRANCH   1   7
BRANCH   6  13
ATOM     13  N   LIG d   1       1.079  78.071 116.298  0.00  0.00    -0.311 N 
ATOM     14  C   LIG d   1       1.789  77.850 117.403  0.00  0.00     0.210 C 
ATOM     15  C   LIG d   1       3.183  78.487 117.414  0.00  0.00     0.109 C 
ATOM     16  O   LIG d   1       1.410  77.161 118.362  0.00  0.00    -0.276 OA
ATOM     17  H   LIG d   1       1.477  78.615 115.557  0.00  0.00     0.149 HD
ENDBRANCH   6  13
BRANCH   5  18
ATOM     18  N   LIG d   1       0.340  75.122 115.999  0.00  0.00     0.381 N 
ATOM     19  H   LIG d   1      -0.321  74.395 116.186  0.00  0.00    -0.090 HD
ATOM     20  H   LIG d   1       0.695  75.458 116.877  0.00  0.00    -0.090 HD
ATOM     21  H   LIG d   1       1.087  74.767 115.444  0.00  0.00    -0.090 HD
ENDBRANCH   5  18
BRANCH   3  22
ATOM     22  C   LIG d   1      -3.623  76.502 113.691  0.00  0.00     0.382 C 
ATOM     23  O   LIG d   1      -4.165  75.377 113.814  0.00  0.00    -0.241 OA
ATOM     24  O   LIG d   1      -4.018  77.278 112.801  0.00  0.00    -0.241 OA
ENDBRANCH   3  22
TORSDOF 7
ENDMDL
MODEL 6
REMARK VINA RESULT:      -4.3      5.397      7.103
REMARK  7 active torsions:
REMARK  status: ('A' for Active; 'I' for Inactive)
REMARK    1  A    between atoms: C_2  and  C_3 
REMARK    2  A    between atoms: C_3  and  O_6 
REMARK    3  A    between atoms: C_3  and  C_4 
REMARK    4  A    between atoms: C_7  and  O_6 
REMARK    5  A    between atoms: C_9  and  C_10 
REMARK    6  A    between atoms: N_15  and  C_14 
REMARK    7  A    between atoms: N_20  and  C_19 
REMARK       I    between atoms: C_22  and  N_20 
ROOT
ATOM      1  C   LIG d   1      -2.362  78.787 116.028  0.00  0.00     0.161 C 
ATOM      2  C   LIG d   1      -2.732  79.501 114.876  0.00  0.00     0.016 C 
ATOM      3  C   LIG d   1      -2.322  79.139 113.572  0.00  0.00     0.038 C 
ATOM      4  C   LIG d   1      -1.634  77.944 113.315  0.00  0.00     0.028 C 
ATOM      5  C   LIG d   1      -0.807  77.456 114.499  0.00  0.00    -0.047 C 
ATOM      6  C   LIG d   1      -1.704  77.418 115.757  0.00  0.00     0.091 C 
ENDROOT
BRANCH   1   7
ATOM      7  O   LIG d   1      -3.504  78.631 116.894  0.00  0.00    -0.368 OA
BRANCH   7   8
ATOM      8  C   LIG d   1      -3.728  79.696 117.850  0.00  0.00     0.119 C 
BRANCH   8   9
ATOM      9  C   LIG d   1      -2.348  80.181 118.336  0.00  0.00     0.028 C 
ATOM     10  C   LIG d   1      -2.434  81.492 119.135  0.00  0.00     0.006 C 
ENDBRANCH   8   9
BRANCH   8  11
ATOM     11  C   LIG d   1      -4.440  79.179 119.104  0.00  0.00     0.028 C 
ATOM     12  C   LIG d   1      -3.690  78.019 119.779  0.00  0.00     0.006 C 
ENDBRANCH   8  11
ENDBRANCH   7   8
ENDBRANCH   1   7
BRANCH   6  13
ATOM     13  N   LIG d   1      -0.952  77.031 116.979  0.00  0.00    -0.311 N 
ATOM     14  C   LIG d   1      -1.254  75.966 117.719  0.00  0.00     0.210 C 
ATOM     15  C   LIG d   1      -0.363  75.759 118.949  0.00  0.00     0.109 C 
ATOM     16  O   LIG d   1      -2.154  75.154 117.457  0.00  0.00    -0.276 OA
ATOM     17  H   LIG d   1      -0.186  77.617 117.248  0.00  0.00     0.149 HD
ENDBRANCH   6  13
BRANCH   5  18
ATOM     18  N   LIG d   1      -0.255  76.135 114.143  0.00  0.00     0.381 N 
ATOM     19  H   LIG d   1       0.720  76.104 114.365  0.00  0.00    -0.090 HD
ATOM     20  H   LIG d   1      -0.357  75.996 113.153  0.00  0.00    -0.090 HD
ATOM     21  H   LIG d   1      -0.738  75.419 114.638  0.00  0.00    -0.090 HD
ENDBRANCH   5  18
BRANCH   3  22
ATOM     22  C   LIG d   1      -2.567  79.999 112.512  0.00  0.00     0.382 C 
ATOM     23  O   LIG d   1      -1.855  79.941 111.480  0.00  0.00    -0.241 OA
ATOM     24  O   LIG d   1      -3.461  80.862 112.592  0.00  0.00    -0.241 OA
ENDBRANCH   3  22
TORSDOF 7
ENDMDL
MODEL 7
REMARK VINA RESULT:      -4.3      5.135      7.684
REMARK  7 active torsions:
REMARK  status: ('A' for Active; 'I' for Inactive)
REMARK    1  A    between atoms: C_2  and  C_3 
REMARK    2  A    between atoms: C_3  and  O_6 
REMARK    3  A    between atoms: C_3  and  C_4 
REMARK    4  A    between atoms: C_7  and  O_6 
REMARK    5  A    between atoms: C_9  and  C_10 
REMARK    6  A    between atoms: N_15  and  C_14 
REMARK    7  A    between atoms: N_20  and  C_19 
REMARK       I    between atoms: C_22  and  N_20 
ROOT
ATOM      1  C   LIG d   1      -2.393  78.128 116.673  0.00  0.00     0.161 C 
ATOM      2  C   LIG d   1      -3.113  77.315 115.783  0.00  0.00     0.016 C 
ATOM      3  C   LIG d   1      -2.865  77.274 114.391  0.00  0.00     0.038 C 
ATOM      4  C   LIG d   1      -1.772  77.936 113.813  0.00  0.00     0.028 C 
ATOM      5  C   LIG d   1      -1.326  79.167 114.596  0.00  0.00    -0.047 C 
ATOM      6  C   LIG d   1      -1.124  78.773 116.077  0.00  0.00     0.091 C 
ENDROOT
BRANCH   1   7
ATOM      7  O   LIG d   1      -2.065  77.382 117.861  0.00  0.00    -0.368 OA
BRANCH   7   8
ATOM      8  C   LIG d   1      -0.834  76.619 117.815  0.00  0.00     0.119 C 
BRANCH   8   9
ATOM      9  C   LIG d   1      -1.214  75.126 117.784  0.00  0.00     0.028 C 
ATOM     10  C   LIG d   1      -0.799  74.443 116.470  0.00  0.00     0.006 C 
ENDBRANCH   8   9
BRANCH   8  11
ATOM     11  C   LIG d   1      -0.017  76.803 119.097  0.00  0.00     0.028 C 
ATOM     12  C   LIG d   1      -0.468  78.018 119.923  0.00  0.00     0.006 C 
ENDBRANCH   8  11
ENDBRANCH   7   8
ENDBRANCH   1   7
BRANCH   6  13
ATOM     13  N   LIG d   1      -0.769  79.938 116.929  0.00  0.00    -0.311 N 
ATOM     14  C   LIG d   1       0.482  80.245 117.267  0.00  0.00     0.210 C 
ATOM     15  C   LIG d   1       0.625  81.475 118.169  0.00  0.00     0.109 C 
ATOM     16  O   LIG d   1       1.490  79.635 116.878  0.00  0.00    -0.276 OA
ATOM     17  H   LIG d   1      -1.523  80.506 117.263  0.00  0.00     0.149 HD
ENDBRANCH   6  13
BRANCH   5  18
ATOM     18  N   LIG d   1      -0.097  79.678 113.961  0.00  0.00     0.381 N 
ATOM     19  H   LIG d   1      -0.196  80.655 113.770  0.00  0.00    -0.090 HD
ATOM     20  H   LIG d   1       0.042  79.199 113.088  0.00  0.00    -0.090 HD
ATOM     21  H   LIG d   1       0.685  79.526 114.559  0.00  0.00    -0.090 HD
ENDBRANCH   5  18
BRANCH   3  22
ATOM     22  C   LIG d   1      -3.741  76.596 113.557  0.00  0.00     0.382 C 
ATOM     23  O   LIG d   1      -4.210  77.167 112.543  0.00  0.00    -0.241 OA
ATOM     24  O   LIG d   1      -4.102  75.435 113.829  0.00  0.00    -0.241 OA
ENDBRANCH   3  22
TORSDOF 7
ENDMDL
MODEL 8
REMARK VINA RESULT:      -4.2      3.009      4.559
REMARK  7 active torsions:
REMARK  status: ('A' for Active; 'I' for Inactive)
REMARK    1  A    between atoms: C_2  and  C_3 
REMARK    2  A    between atoms: C_3  and  O_6 
REMARK    3  A    between atoms: C_3  and  C_4 
REMARK    4  A    between atoms: C_7  and  O_6 
REMARK    5  A    between atoms: C_9  and  C_10 
REMARK    6  A    between atoms: N_15  and  C_14 
REMARK    7  A    between atoms: N_20  and  C_19 
REMARK       I    between atoms: C_22  and  N_20 
ROOT
ATOM      1  C   LIG d   1      -0.907  79.151 114.041  0.00  0.00     0.161 C 
ATOM      2  C   LIG d   1      -0.138  80.159 113.436  0.00  0.00     0.016 C 
ATOM      3  C   LIG d   1      -0.088  80.365 112.038  0.00  0.00     0.038 C 
ATOM      4  C   LIG d   1      -0.926  79.669 111.155  0.00  0.00     0.028 C 
ATOM      5  C   LIG d   1      -1.346  78.297 111.673  0.00  0.00    -0.047 C 
ATOM      6  C   LIG d   1      -1.914  78.453 113.102  0.00  0.00     0.091 C 
ENDROOT
BRANCH   1   7
ATOM      7  O   LIG d   1      -1.585  79.681 115.197  0.00  0.00    -0.368 OA
BRANCH   7   8
ATOM      8  C   LIG d   1      -1.325  79.007 116.453  0.00  0.00     0.119 C 
BRANCH   8   9
ATOM      9  C   LIG d   1      -2.679  78.523 117.008  0.00  0.00     0.028 C 
ATOM     10  C   LIG d   1      -3.873  79.191 116.305  0.00  0.00     0.006 C 
ENDBRANCH   8   9
BRANCH   8  11
ATOM     11  C   LIG d   1      -0.781  79.979 117.505  0.00  0.00     0.028 C 
ATOM     12  C   LIG d   1       0.695  80.340 117.275  0.00  0.00     0.006 C 
ENDBRANCH   8  11
ENDBRANCH   7   8
ENDBRANCH   1   7
BRANCH   6  13
ATOM     13  N   LIG d   1      -2.271  77.148 113.716  0.00  0.00    -0.311 N 
ATOM     14  C   LIG d   1      -3.486  76.607 113.634  0.00  0.00     0.210 C 
ATOM     15  C   LIG d   1      -3.646  75.265 114.355  0.00  0.00     0.109 C 
ATOM     16  O   LIG d   1      -4.437  77.096 113.006  0.00  0.00    -0.276 OA
ATOM     17  H   LIG d   1      -1.550  76.667 114.218  0.00  0.00     0.149 HD
ENDBRANCH   6  13
BRANCH   5  18
ATOM     18  N   LIG d   1      -2.325  77.742 110.720  0.00  0.00     0.381 N 
ATOM     19  H   LIG d   1      -3.187  77.551 111.191  0.00  0.00    -0.090 HD
ATOM     20  H   LIG d   1      -1.968  76.876 110.354  0.00  0.00    -0.090 HD
ATOM     21  H   LIG d   1      -2.480  78.386 109.976  0.00  0.00    -0.090 HD
ENDBRANCH   5  18
BRANCH   3  22
ATOM     22  C   LIG d   1       0.839  81.250 111.507  0.00  0.00     0.382 C 
ATOM     23  O   LIG d   1       1.989  80.848 111.208  0.00  0.00    -0.241 OA
ATOM     24  O   LIG d   1       0.553  82.454 111.365  0.00  0.00    -0.241 OA
ENDBRANCH   3  22
TORSDOF 7
ENDMDL
MODEL 9
REMARK VINA RESULT:      -4.2      6.237      7.755
REMARK  7 active torsions:
REMARK  status: ('A' for Active; 'I' for Inactive)
REMARK    1  A    between atoms: C_2  and  C_3 
REMARK    2  A    between atoms: C_3  and  O_6 
REMARK    3  A    between atoms: C_3  and  C_4 
REMARK    4  A    between atoms: C_7  and  O_6 
REMARK    5  A    between atoms: C_9  and  C_10 
REMARK    6  A    between atoms: N_15  and  C_14 
REMARK    7  A    between atoms: N_20  and  C_19 
REMARK       I    between atoms: C_22  and  N_20 
ROOT
ATOM      1  C   LIG d   1      -0.161  78.026 115.802  0.00  0.00     0.161 C 
ATOM      2  C   LIG d   1      -1.356  78.161 115.076  0.00  0.00     0.016 C 
ATOM      3  C   LIG d   1      -2.035  77.070 114.486  0.00  0.00     0.038 C 
ATOM      4  C   LIG d   1      -1.643  75.742 114.713  0.00  0.00     0.028 C 
ATOM      5  C   LIG d   1      -0.157  75.594 115.020  0.00  0.00    -0.047 C 
ATOM      6  C   LIG d   1       0.222  76.573 116.154  0.00  0.00     0.091 C 
ENDROOT
BRANCH   1   7
ATOM      7  O   LIG d   1      -0.221  78.832 116.996  0.00  0.00    -0.368 OA
BRANCH   7   8
ATOM      8  C   LIG d   1      -1.546  79.099 117.518  0.00  0.00     0.119 C 
BRANCH   8   9
ATOM      9  C   LIG d   1      -1.501  80.473 118.214  0.00  0.00     0.028 C 
ATOM     10  C   LIG d   1      -2.846  80.849 118.858  0.00  0.00     0.006 C 
ENDBRANCH   8   9
BRANCH   8  11
ATOM     11  C   LIG d   1      -1.923  78.100 118.617  0.00  0.00     0.028 C 
ATOM     12  C   LIG d   1      -3.063  77.158 118.199  0.00  0.00     0.006 C 
ENDBRANCH   8  11
ENDBRANCH   7   8
ENDBRANCH   1   7
BRANCH   6  13
ATOM     13  N   LIG d   1       1.676  76.553 116.459  0.00  0.00    -0.311 N 
ATOM     14  C   LIG d   1       2.181  76.063 117.589  0.00  0.00     0.210 C 
ATOM     15  C   LIG d   1       3.706  76.157 117.711  0.00  0.00     0.109 C 
ATOM     16  O   LIG d   1       1.515  75.530 118.489  0.00  0.00    -0.276 OA
ATOM     17  H   LIG d   1       2.292  76.937 115.769  0.00  0.00     0.149 HD
ENDBRANCH   6  13
BRANCH   5  18
ATOM     18  N   LIG d   1       0.086  74.182 115.371  0.00  0.00     0.381 N 
ATOM     19  H   LIG d   1      -0.478  73.588 114.796  0.00  0.00    -0.090 HD
ATOM     20  H   LIG d   1      -0.176  74.035 116.329  0.00  0.00    -0.090 HD
ATOM     21  H   LIG d   1       1.050  73.960 115.245  0.00  0.00    -0.090 HD
ENDBRANCH   5  18
BRANCH   3  22
ATOM     22  C   LIG d   1      -3.098  77.306 113.627  0.00  0.00     0.382 C 
ATOM     23  O   LIG d   1      -3.883  76.373 113.330  0.00  0.00    -0.241 OA
ATOM     24  O   LIG d   1      -3.255  78.428 113.109  0.00  0.00    -0.241 OA
ENDBRANCH   3  22
TORSDOF 7
ENDMDL
