MODEL 1
REMARK VINA RESULT:      -6.3      0.000      0.000
REMARK  7 active torsions:
REMARK  status: ('A' for Active; 'I' for Inactive)
REMARK    1  A    between atoms: C_2  and  C_3 
REMARK    2  A    between atoms: C_3  and  O_6 
REMARK    3  A    between atoms: C_3  and  C_4 
REMARK    4  A    between atoms: C_7  and  O_6 
REMARK    5  A    between atoms: C_9  and  C_10 
REMARK    6  A    between atoms: N_15  and  C_14 
REMARK    7  A    between atoms: N_20  and  C_19 
REMARK       I    between atoms: C_22  and  N_20 
ROOT
ATOM      1  C   LIG d   1      -1.449  77.719 113.556  0.00  0.00     0.161 C 
ATOM      2  C   LIG d   1      -2.063  78.982 113.598  0.00  0.00     0.016 C 
ATOM      3  C   LIG d   1      -1.938  79.942 112.567  0.00  0.00     0.038 C 
ATOM      4  C   LIG d   1      -1.311  79.644 111.348  0.00  0.00     0.028 C 
ATOM      5  C   LIG d   1      -0.246  78.559 111.464  0.00  0.00    -0.047 C 
ATOM      6  C   LIG d   1      -0.853  77.334 112.186  0.00  0.00     0.091 C 
ENDROOT
BRANCH   1   7
ATOM      7  O   LIG d   1      -2.378  76.709 113.999  0.00  0.00    -0.368 OA
BRANCH   7   8
ATOM      8  C   LIG d   1      -2.532  76.571 115.433  0.00  0.00     0.119 C 
BRANCH   8   9
ATOM      9  C   LIG d   1      -2.298  75.088 115.783  0.00  0.00     0.028 C 
ATOM     10  C   LIG d   1      -1.771  74.899 117.215  0.00  0.00     0.006 C 
ENDBRANCH   8   9
BRANCH   8  11
ATOM     11  C   LIG d   1      -3.969  76.869 115.871  0.00  0.00     0.028 C 
ATOM     12  C   LIG d   1      -4.058  78.037 116.866  0.00  0.00     0.006 C 
ENDBRANCH   8  11
ENDBRANCH   7   8
ENDBRANCH   1   7
BRANCH   6  13
ATOM     13  N   LIG d   1       0.146  76.259 112.416  0.00  0.00    -0.311 N 
ATOM     14  C   LIG d   1       0.547  75.415 111.466  0.00  0.00     0.210 C 
ATOM     15  C   LIG d   1       1.569  74.368 111.920  0.00  0.00     0.109 C 
ATOM     16  O   LIG d   1       0.176  75.453 110.283  0.00  0.00    -0.276 OA
ATOM     17  H   LIG d   1       0.522  76.175 113.340  0.00  0.00     0.149 HD
ENDBRANCH   6  13
BRANCH   5  18
ATOM     18  N   LIG d   1       0.228  78.252 110.102  0.00  0.00     0.381 N 
ATOM     19  H   LIG d   1      -0.472  78.508 109.434  0.00  0.00    -0.090 HD
ATOM     20  H   LIG d   1       0.387  77.262 110.028  0.00  0.00    -0.090 HD
ATOM     21  H   LIG d   1       1.072  78.746 109.914  0.00  0.00    -0.090 HD
ENDBRANCH   5  18
BRANCH   3  22
ATOM     22  C   LIG d   1      -2.411  81.230 112.767  0.00  0.00     0.382 C 
ATOM     23  O   LIG d   1      -3.269  81.452 113.655  0.00  0.00    -0.241 OA
ATOM     24  O   LIG d   1      -2.022  82.165 112.042  0.00  0.00    -0.241 OA
ENDBRANCH   3  22
TORSDOF 7
ENDMDL
MODEL 2
REMARK VINA RESULT:      -5.6      3.300      6.499
REMARK  7 active torsions:
REMARK  status: ('A' for Active; 'I' for Inactive)
REMARK    1  A    between atoms: C_2  and  C_3 
REMARK    2  A    between atoms: C_3  and  O_6 
REMARK    3  A    between atoms: C_3  and  C_4 
REMARK    4  A    between atoms: C_7  and  O_6 
REMARK    5  A    between atoms: C_9  and  C_10 
REMARK    6  A    between atoms: N_15  and  C_14 
REMARK    7  A    between atoms: N_20  and  C_19 
REMARK       I    between atoms: C_22  and  N_20 
ROOT
ATOM      1  C   LIG d   1      -0.361  80.209 111.848  0.00  0.00     0.161 C 
ATOM      2  C   LIG d   1      -1.442  79.364 111.547  0.00  0.00     0.016 C 
ATOM      3  C   LIG d   1      -2.126  78.599 112.519  0.00  0.00     0.038 C 
ATOM      4  C   LIG d   1      -1.871  78.744 113.891  0.00  0.00     0.028 C 
ATOM      5  C   LIG d   1      -0.451  79.208 114.197  0.00  0.00    -0.047 C 
ATOM      6  C   LIG d   1      -0.141  80.466 113.354  0.00  0.00     0.091 C 
ENDROOT
BRANCH   1   7
ATOM      7  O   LIG d   1      -0.507  81.458 111.143  0.00  0.00    -0.368 OA
BRANCH   7   8
ATOM      8  C   LIG d   1       0.389  81.666 110.024  0.00  0.00     0.119 C 
BRANCH   8   9
ATOM      9  C   LIG d   1       1.511  80.615 110.127  0.00  0.00     0.028 C 
ATOM     10  C   LIG d   1       2.902  81.255 110.281  0.00  0.00     0.006 C 
ENDBRANCH   8   9
BRANCH   8  11
ATOM     11  C   LIG d   1       1.094  83.023 110.118  0.00  0.00     0.028 C 
ATOM     12  C   LIG d   1       0.113  84.192 110.299  0.00  0.00     0.006 C 
ENDBRANCH   8  11
ENDBRANCH   7   8
ENDBRANCH   1   7
BRANCH   6  13
ATOM     13  N   LIG d   1       1.258  80.936 113.530  0.00  0.00    -0.311 N 
ATOM     14  C   LIG d   1       1.586  82.217 113.686  0.00  0.00     0.210 C 
ATOM     15  C   LIG d   1       3.087  82.486 113.831  0.00  0.00     0.109 C 
ATOM     16  O   LIG d   1       0.775  83.153 113.749  0.00  0.00    -0.276 OA
ATOM     17  H   LIG d   1       1.977  80.240 113.522  0.00  0.00     0.149 HD
ENDBRANCH   6  13
BRANCH   5  18
ATOM     18  N   LIG d   1      -0.365  79.450 115.650  0.00  0.00     0.381 N 
ATOM     19  H   LIG d   1      -1.259  79.296 116.072  0.00  0.00    -0.090 HD
ATOM     20  H   LIG d   1      -0.105  80.408 115.805  0.00  0.00    -0.090 HD
ATOM     21  H   LIG d   1       0.312  78.844 116.057  0.00  0.00    -0.090 HD
ENDBRANCH   5  18
BRANCH   3  22
ATOM     22  C   LIG d   1      -3.051  77.646 112.118  0.00  0.00     0.382 C 
ATOM     23  O   LIG d   1      -3.093  77.279 110.919  0.00  0.00    -0.241 OA
ATOM     24  O   LIG d   1      -3.872  77.182 112.931  0.00  0.00    -0.241 OA
ENDBRANCH   3  22
TORSDOF 7
ENDMDL
MODEL 3
REMARK VINA RESULT:      -5.5      2.348      6.138
REMARK  7 active torsions:
REMARK  status: ('A' for Active; 'I' for Inactive)
REMARK    1  A    between atoms: C_2  and  C_3 
REMARK    2  A    between atoms: C_3  and  O_6 
REMARK    3  A    between atoms: C_3  and  C_4 
REMARK    4  A    between atoms: C_7  and  O_6 
REMARK    5  A    between atoms: C_9  and  C_10 
REMARK    6  A    between atoms: N_15  and  C_14 
REMARK    7  A    between atoms: N_20  and  C_19 
REMARK       I    between atoms: C_22  and  N_20 
ROOT
ATOM      1  C   LIG d   1      -1.081  77.400 113.901  0.00  0.00     0.161 C 
ATOM      2  C   LIG d   1      -1.148  76.307 114.781  0.00  0.00     0.016 C 
ATOM      3  C   LIG d   1      -1.791  76.359 116.039  0.00  0.00     0.038 C 
ATOM      4  C   LIG d   1      -2.547  77.471 116.439  0.00  0.00     0.028 C 
ATOM      5  C   LIG d   1      -2.086  78.778 115.803  0.00  0.00    -0.047 C 
ATOM      6  C   LIG d   1      -1.995  78.586 114.272  0.00  0.00     0.091 C 
ENDROOT
BRANCH   1   7
ATOM      7  O   LIG d   1      -1.352  76.961 112.555  0.00  0.00    -0.368 OA
BRANCH   7   8
ATOM      8  C   LIG d   1      -0.340  77.273 111.566  0.00  0.00     0.119 C 
BRANCH   8   9
ATOM      9  C   LIG d   1      -0.978  78.228 110.538  0.00  0.00     0.028 C 
ATOM     10  C   LIG d   1       0.021  79.271 110.008  0.00  0.00     0.006 C 
ENDBRANCH   8   9
BRANCH   8  11
ATOM     11  C   LIG d   1       0.063  76.030 110.769  0.00  0.00     0.028 C 
ATOM     12  C   LIG d   1       1.034  75.119 111.537  0.00  0.00     0.006 C 
ENDBRANCH   8  11
ENDBRANCH   7   8
ENDBRANCH   1   7
BRANCH   6  13
ATOM     13  N   LIG d   1      -1.470  79.792 113.580  0.00  0.00    -0.311 N 
ATOM     14  C   LIG d   1      -2.251  80.708 113.009  0.00  0.00     0.210 C 
ATOM     15  C   LIG d   1      -1.505  81.862 112.332  0.00  0.00     0.109 C 
ATOM     16  O   LIG d   1      -3.490  80.691 113.028  0.00  0.00    -0.276 OA
ATOM     17  H   LIG d   1      -0.475  79.902 113.545  0.00  0.00     0.149 HD
ENDBRANCH   6  13
BRANCH   5  18
ATOM     18  N   LIG d   1      -3.043  79.828 116.198  0.00  0.00     0.381 N 
ATOM     19  H   LIG d   1      -3.869  79.763 115.637  0.00  0.00    -0.090 HD
ATOM     20  H   LIG d   1      -2.624  80.727 116.038  0.00  0.00    -0.090 HD
ATOM     21  H   LIG d   1      -3.278  79.730 117.162  0.00  0.00    -0.090 HD
ENDBRANCH   5  18
BRANCH   3  22
ATOM     22  C   LIG d   1      -1.648  75.305 116.928  0.00  0.00     0.382 C 
ATOM     23  O   LIG d   1      -1.827  75.492 118.156  0.00  0.00    -0.241 OA
ATOM     24  O   LIG d   1      -1.299  74.180 116.523  0.00  0.00    -0.241 OA
ENDBRANCH   3  22
TORSDOF 7
ENDMDL
MODEL 4
REMARK VINA RESULT:      -5.3      3.020      4.280
REMARK  7 active torsions:
REMARK  status: ('A' for Active; 'I' for Inactive)
REMARK    1  A    between atoms: C_2  and  C_3 
REMARK    2  A    between atoms: C_3  and  O_6 
REMARK    3  A    between atoms: C_3  and  C_4 
REMARK    4  A    between atoms: C_7  and  O_6 
REMARK    5  A    between atoms: C_9  and  C_10 
REMARK    6  A    between atoms: N_15  and  C_14 
REMARK    7  A    between atoms: N_20  and  C_19 
REMARK       I    between atoms: C_22  and  N_20 
ROOT
ATOM      1  C   LIG d   1      -1.610  77.763 115.389  0.00  0.00     0.161 C 
ATOM      2  C   LIG d   1      -2.391  77.349 114.297  0.00  0.00     0.016 C 
ATOM      3  C   LIG d   1      -2.282  77.911 113.004  0.00  0.00     0.038 C 
ATOM      4  C   LIG d   1      -1.271  78.827 112.678  0.00  0.00     0.028 C 
ATOM      5  C   LIG d   1      -0.785  79.645 113.870  0.00  0.00    -0.047 C 
ATOM      6  C   LIG d   1      -0.426  78.682 115.025  0.00  0.00     0.091 C 
ENDROOT
BRANCH   1   7
ATOM      7  O   LIG d   1      -1.144  76.611 116.120  0.00  0.00    -0.368 OA
BRANCH   7   8
ATOM      8  C   LIG d   1      -1.970  76.185 117.231  0.00  0.00     0.119 C 
BRANCH   8   9
ATOM      9  C   LIG d   1      -1.353  76.768 118.517  0.00  0.00     0.028 C 
ATOM     10  C   LIG d   1      -2.141  77.977 119.050  0.00  0.00     0.006 C 
ENDBRANCH   8   9
BRANCH   8  11
ATOM     11  C   LIG d   1      -1.920  74.665 117.411  0.00  0.00     0.028 C 
ATOM     12  C   LIG d   1      -1.528  74.246 118.837  0.00  0.00     0.006 C 
ENDBRANCH   8  11
ENDBRANCH   7   8
ENDBRANCH   1   7
BRANCH   6  13
ATOM     13  N   LIG d   1      -0.022  79.405 116.259  0.00  0.00    -0.311 N 
ATOM     14  C   LIG d   1       1.069  79.103 116.962  0.00  0.00     0.210 C 
ATOM     15  C   LIG d   1       1.291  79.959 118.213  0.00  0.00     0.109 C 
ATOM     16  O   LIG d   1       1.892  78.228 116.650  0.00  0.00    -0.276 OA
ATOM     17  H   LIG d   1      -0.616  80.150 116.567  0.00  0.00     0.149 HD
ENDBRANCH   6  13
BRANCH   5  18
ATOM     18  N   LIG d   1       0.359  80.458 113.417  0.00  0.00     0.381 N 
ATOM     19  H   LIG d   1       0.371  81.329 113.908  0.00  0.00    -0.090 HD
ATOM     20  H   LIG d   1       0.254  80.649 112.436  0.00  0.00    -0.090 HD
ATOM     21  H   LIG d   1       1.211  79.966 113.577  0.00  0.00    -0.090 HD
ENDBRANCH   5  18
BRANCH   3  22
ATOM     22  C   LIG d   1      -3.216  77.587 112.032  0.00  0.00     0.382 C 
ATOM     23  O   LIG d   1      -4.440  77.606 112.308  0.00  0.00    -0.241 OA
ATOM     24  O   LIG d   1      -2.848  77.233 110.896  0.00  0.00    -0.241 OA
ENDBRANCH   3  22
TORSDOF 7
ENDMDL
MODEL 5
REMARK VINA RESULT:      -4.8      3.209      5.895
REMARK  7 active torsions:
REMARK  status: ('A' for Active; 'I' for Inactive)
REMARK    1  A    between atoms: C_2  and  C_3 
REMARK    2  A    between atoms: C_3  and  O_6 
REMARK    3  A    between atoms: C_3  and  C_4 
REMARK    4  A    between atoms: C_7  and  O_6 
REMARK    5  A    between atoms: C_9  and  C_10 
REMARK    6  A    between atoms: N_15  and  C_14 
REMARK    7  A    between atoms: N_20  and  C_19 
REMARK       I    between atoms: C_22  and  N_20 
ROOT
ATOM      1  C   LIG d   1      -0.272  78.688 114.328  0.00  0.00     0.161 C 
ATOM      2  C   LIG d   1      -1.449  78.067 113.878  0.00  0.00     0.016 C 
ATOM      3  C   LIG d   1      -2.382  77.449 114.741  0.00  0.00     0.038 C 
ATOM      4  C   LIG d   1      -2.276  77.542 116.137  0.00  0.00     0.028 C 
ATOM      5  C   LIG d   1      -0.842  77.722 116.624  0.00  0.00    -0.047 C 
ATOM      6  C   LIG d   1      -0.195  78.897 115.855  0.00  0.00     0.091 C 
ENDROOT
BRANCH   1   7
ATOM      7  O   LIG d   1      -0.087  79.942 113.641  0.00  0.00    -0.368 OA
BRANCH   7   8
ATOM      8  C   LIG d   1      -0.850  80.119 112.422  0.00  0.00     0.119 C 
BRANCH   8   9
ATOM      9  C   LIG d   1       0.155  80.243 111.261  0.00  0.00     0.028 C 
ATOM     10  C   LIG d   1      -0.142  79.254 110.121  0.00  0.00     0.006 C 
ENDBRANCH   8   9
BRANCH   8  11
ATOM     11  C   LIG d   1      -1.620  81.443 112.435  0.00  0.00     0.028 C 
ATOM     12  C   LIG d   1      -3.022  81.311 113.050  0.00  0.00     0.006 C 
ENDBRANCH   8  11
ENDBRANCH   7   8
ENDBRANCH   1   7
BRANCH   6  13
ATOM     13  N   LIG d   1       1.236  79.088 116.211  0.00  0.00    -0.311 N 
ATOM     14  C   LIG d   1       1.685  80.131 116.905  0.00  0.00     0.210 C 
ATOM     15  C   LIG d   1       3.198  80.144 117.146  0.00  0.00     0.109 C 
ATOM     16  O   LIG d   1       0.971  81.031 117.372  0.00  0.00    -0.276 OA
ATOM     17  H   LIG d   1       1.881  78.388 115.898  0.00  0.00     0.149 HD
ENDBRANCH   6  13
BRANCH   5  18
ATOM     18  N   LIG d   1      -0.891  77.943 118.082  0.00  0.00     0.381 N 
ATOM     19  H   LIG d   1       0.038  77.964 118.453  0.00  0.00    -0.090 HD
ATOM     20  H   LIG d   1      -1.385  77.180 118.510  0.00  0.00    -0.090 HD
ATOM     21  H   LIG d   1      -1.356  78.802 118.281  0.00  0.00    -0.090 HD
ENDBRANCH   5  18
BRANCH   3  22
ATOM     22  C   LIG d   1      -3.415  76.693 114.208  0.00  0.00     0.382 C 
ATOM     23  O   LIG d   1      -3.776  75.635 114.778  0.00  0.00    -0.241 OA
ATOM     24  O   LIG d   1      -3.962  77.033 113.142  0.00  0.00    -0.241 OA
ENDBRANCH   3  22
TORSDOF 7
ENDMDL
MODEL 6
REMARK VINA RESULT:      -4.8      3.633      6.609
REMARK  7 active torsions:
REMARK  status: ('A' for Active; 'I' for Inactive)
REMARK    1  A    between atoms: C_2  and  C_3 
REMARK    2  A    between atoms: C_3  and  O_6 
REMARK    3  A    between atoms: C_3  and  C_4 
REMARK    4  A    between atoms: C_7  and  O_6 
REMARK    5  A    between atoms: C_9  and  C_10 
REMARK    6  A    between atoms: N_15  and  C_14 
REMARK    7  A    between atoms: N_20  and  C_19 
REMARK       I    between atoms: C_22  and  N_20 
ROOT
ATOM      1  C   LIG d   1      -0.316  78.387 115.220  0.00  0.00     0.161 C 
ATOM      2  C   LIG d   1      -0.975  77.160 115.036  0.00  0.00     0.016 C 
ATOM      3  C   LIG d   1      -1.203  76.235 116.080  0.00  0.00     0.038 C 
ATOM      4  C   LIG d   1      -0.919  76.543 117.419  0.00  0.00     0.028 C 
ATOM      5  C   LIG d   1       0.206  77.561 117.581  0.00  0.00    -0.047 C 
ATOM      6  C   LIG d   1      -0.098  78.790 116.694  0.00  0.00     0.091 C 
ENDROOT
BRANCH   1   7
ATOM      7  O   LIG d   1      -1.019  79.430 114.515  0.00  0.00    -0.368 OA
BRANCH   7   8
ATOM      8  C   LIG d   1      -1.012  79.337 113.069  0.00  0.00     0.119 C 
BRANCH   8   9
ATOM      9  C   LIG d   1      -0.363  80.625 112.526  0.00  0.00     0.028 C 
ATOM     10  C   LIG d   1      -1.377  81.770 112.365  0.00  0.00     0.006 C 
ENDBRANCH   8   9
BRANCH   8  11
ATOM     11  C   LIG d   1      -2.436  79.331 112.505  0.00  0.00     0.028 C 
ATOM     12  C   LIG d   1      -2.784  78.021 111.780  0.00  0.00     0.006 C 
ENDBRANCH   8  11
ENDBRANCH   7   8
ENDBRANCH   1   7
BRANCH   6  13
ATOM     13  N   LIG d   1       0.993  79.797 116.728  0.00  0.00    -0.311 N 
ATOM     14  C   LIG d   1       1.095  80.736 117.668  0.00  0.00     0.210 C 
ATOM     15  C   LIG d   1       2.285  81.687 117.505  0.00  0.00     0.109 C 
ATOM     16  O   LIG d   1       0.331  80.851 118.638  0.00  0.00    -0.276 OA
ATOM     17  H   LIG d   1       1.675  79.757 115.996  0.00  0.00     0.149 HD
ENDBRANCH   6  13
BRANCH   5  18
ATOM     18  N   LIG d   1       0.303  77.893 119.015  0.00  0.00     0.381 N 
ATOM     19  H   LIG d   1       1.265  77.961 119.282  0.00  0.00    -0.090 HD
ATOM     20  H   LIG d   1      -0.121  77.155 119.549  0.00  0.00    -0.090 HD
ATOM     21  H   LIG d   1      -0.162  78.754 119.198  0.00  0.00    -0.090 HD
ENDBRANCH   5  18
BRANCH   3  22
ATOM     22  C   LIG d   1      -1.684  74.969 115.784  0.00  0.00     0.382 C 
ATOM     23  O   LIG d   1      -2.737  74.555 116.326  0.00  0.00    -0.241 OA
ATOM     24  O   LIG d   1      -1.054  74.218 115.015  0.00  0.00    -0.241 OA
ENDBRANCH   3  22
TORSDOF 7
ENDMDL
MODEL 7
REMARK VINA RESULT:      -4.7      3.731      5.470
REMARK  7 active torsions:
REMARK  status: ('A' for Active; 'I' for Inactive)
REMARK    1  A    between atoms: C_2  and  C_3 
REMARK    2  A    between atoms: C_3  and  O_6 
REMARK    3  A    between atoms: C_3  and  C_4 
REMARK    4  A    between atoms: C_7  and  O_6 
REMARK    5  A    between atoms: C_9  and  C_10 
REMARK    6  A    between atoms: N_15  and  C_14 
REMARK    7  A    between atoms: N_20  and  C_19 
REMARK       I    between atoms: C_22  and  N_20 
ROOT
ATOM      1  C   LIG d   1      -0.736  78.093 116.043  0.00  0.00     0.161 C 
ATOM      2  C   LIG d   1      -1.374  78.491 114.856  0.00  0.00     0.016 C 
ATOM      3  C   LIG d   1      -2.352  77.709 114.199  0.00  0.00     0.038 C 
ATOM      4  C   LIG d   1      -2.870  76.537 114.769  0.00  0.00     0.028 C 
ATOM      5  C   LIG d   1      -1.896  75.841 115.713  0.00  0.00    -0.047 C 
ATOM      6  C   LIG d   1      -1.368  76.870 116.738  0.00  0.00     0.091 C 
ENDROOT
BRANCH   1   7
ATOM      7  O   LIG d   1      -0.663  79.206 116.955  0.00  0.00    -0.368 OA
BRANCH   7   8
ATOM      8  C   LIG d   1       0.664  79.717 117.234  0.00  0.00     0.119 C 
BRANCH   8   9
ATOM      9  C   LIG d   1       1.678  78.704 116.668  0.00  0.00     0.028 C 
ATOM     10  C   LIG d   1       2.723  78.274 117.711  0.00  0.00     0.006 C 
ENDBRANCH   8   9
BRANCH   8  11
ATOM     11  C   LIG d   1       0.937  79.765 118.740  0.00  0.00     0.028 C 
ATOM     12  C   LIG d   1      -0.336  79.992 119.570  0.00  0.00     0.006 C 
ENDBRANCH   8  11
ENDBRANCH   7   8
ENDBRANCH   1   7
BRANCH   6  13
ATOM     13  N   LIG d   1      -0.345  76.291 117.648  0.00  0.00    -0.311 N 
ATOM     14  C   LIG d   1      -0.475  76.260 118.973  0.00  0.00     0.210 C 
ATOM     15  C   LIG d   1       0.705  75.636 119.724  0.00  0.00     0.109 C 
ATOM     16  O   LIG d   1      -1.470  76.660 119.595  0.00  0.00    -0.276 OA
ATOM     17  H   LIG d   1       0.481  75.915 117.224  0.00  0.00     0.149 HD
ENDBRANCH   6  13
BRANCH   5  18
ATOM     18  N   LIG d   1      -2.612  74.714 116.340  0.00  0.00     0.381 N 
ATOM     19  H   LIG d   1      -1.995  74.220 116.953  0.00  0.00    -0.090 HD
ATOM     20  H   LIG d   1      -2.916  74.081 115.621  0.00  0.00    -0.090 HD
ATOM     21  H   LIG d   1      -3.399  75.051 116.850  0.00  0.00    -0.090 HD
ENDBRANCH   5  18
BRANCH   3  22
ATOM     22  C   LIG d   1      -2.792  78.079 112.937  0.00  0.00     0.382 C 
ATOM     23  O   LIG d   1      -2.919  77.212 112.039  0.00  0.00    -0.241 OA
ATOM     24  O   LIG d   1      -3.022  79.274 112.673  0.00  0.00    -0.241 OA
ENDBRANCH   3  22
TORSDOF 7
ENDMDL
MODEL 8
REMARK VINA RESULT:      -4.7      2.832      3.969
REMARK  7 active torsions:
REMARK  status: ('A' for Active; 'I' for Inactive)
REMARK    1  A    between atoms: C_2  and  C_3 
REMARK    2  A    between atoms: C_3  and  O_6 
REMARK    3  A    between atoms: C_3  and  C_4 
REMARK    4  A    between atoms: C_7  and  O_6 
REMARK    5  A    between atoms: C_9  and  C_10 
REMARK    6  A    between atoms: N_15  and  C_14 
REMARK    7  A    between atoms: N_20  and  C_19 
REMARK       I    between atoms: C_22  and  N_20 
ROOT
ATOM      1  C   LIG d   1      -0.805  78.756 114.659  0.00  0.00     0.161 C 
ATOM      2  C   LIG d   1      -0.187  79.801 113.952  0.00  0.00     0.016 C 
ATOM      3  C   LIG d   1      -0.560  80.183 112.643  0.00  0.00     0.038 C 
ATOM      4  C   LIG d   1      -1.685  79.640 112.005  0.00  0.00     0.028 C 
ATOM      5  C   LIG d   1      -2.030  78.232 112.478  0.00  0.00    -0.047 C 
ATOM      6  C   LIG d   1      -2.108  78.227 114.022  0.00  0.00     0.091 C 
ENDROOT
BRANCH   1   7
ATOM      7  O   LIG d   1      -1.043  79.162 116.021  0.00  0.00    -0.368 OA
BRANCH   7   8
ATOM      8  C   LIG d   1      -0.213  78.531 117.028  0.00  0.00     0.119 C 
BRANCH   8   9
ATOM      9  C   LIG d   1      -1.140  77.710 117.945  0.00  0.00     0.028 C 
ATOM     10  C   LIG d   1      -0.736  76.228 118.012  0.00  0.00     0.006 C 
ENDBRANCH   8   9
BRANCH   8  11
ATOM     11  C   LIG d   1       0.443  79.571 117.941  0.00  0.00     0.028 C 
ATOM     12  C   LIG d   1       1.597  80.321 117.256  0.00  0.00     0.006 C 
ENDBRANCH   8  11
ENDBRANCH   7   8
ENDBRANCH   1   7
BRANCH   6  13
ATOM     13  N   LIG d   1      -2.358  76.869 114.572  0.00  0.00    -0.311 N 
ATOM     14  C   LIG d   1      -3.472  76.535 115.221  0.00  0.00     0.210 C 
ATOM     15  C   LIG d   1      -3.519  75.089 115.724  0.00  0.00     0.109 C 
ATOM     16  O   LIG d   1      -4.440  77.290 115.400  0.00  0.00    -0.276 OA
ATOM     17  H   LIG d   1      -1.638  76.186 114.445  0.00  0.00     0.149 HD
ENDBRANCH   6  13
BRANCH   5  18
ATOM     18  N   LIG d   1      -3.299  77.844 111.834  0.00  0.00     0.381 N 
ATOM     19  H   LIG d   1      -3.135  77.611 110.875  0.00  0.00    -0.090 HD
ATOM     20  H   LIG d   1      -3.931  78.624 111.865  0.00  0.00    -0.090 HD
ATOM     21  H   LIG d   1      -3.698  77.065 112.309  0.00  0.00    -0.090 HD
ENDBRANCH   5  18
BRANCH   3  22
ATOM     22  C   LIG d   1       0.222  81.089 111.942  0.00  0.00     0.382 C 
ATOM     23  O   LIG d   1      -0.207  81.594 110.876  0.00  0.00    -0.241 OA
ATOM     24  O   LIG d   1       1.367  81.375 112.340  0.00  0.00    -0.241 OA
ENDBRANCH   3  22
TORSDOF 7
ENDMDL
MODEL 9
REMARK VINA RESULT:      -4.5      3.067      4.724
REMARK  7 active torsions:
REMARK  status: ('A' for Active; 'I' for Inactive)
REMARK    1  A    between atoms: C_2  and  C_3 
REMARK    2  A    between atoms: C_3  and  O_6 
REMARK    3  A    between atoms: C_3  and  C_4 
REMARK    4  A    between atoms: C_7  and  O_6 
REMARK    5  A    between atoms: C_9  and  C_10 
REMARK    6  A    between atoms: N_15  and  C_14 
REMARK    7  A    between atoms: N_20  and  C_19 
REMARK       I    between atoms: C_22  and  N_20 
ROOT
ATOM      1  C   LIG d   1      -2.273  77.699 116.450  0.00  0.00     0.161 C 
ATOM      2  C   LIG d   1      -2.804  77.619 115.152  0.00  0.00     0.016 C 
ATOM      3  C   LIG d   1      -2.094  78.014 113.995  0.00  0.00     0.038 C 
ATOM      4  C   LIG d   1      -0.740  78.377 114.044  0.00  0.00     0.028 C 
ATOM      5  C   LIG d   1      -0.316  78.954 115.391  0.00  0.00    -0.047 C 
ATOM      6  C   LIG d   1      -0.759  77.988 116.513  0.00  0.00     0.091 C 
ENDROOT
BRANCH   1   7
ATOM      7  O   LIG d   1      -2.585  76.496 117.180  0.00  0.00    -0.368 OA
BRANCH   7   8
ATOM      8  C   LIG d   1      -1.580  75.453 117.148  0.00  0.00     0.119 C 
BRANCH   8   9
ATOM      9  C   LIG d   1      -1.884  74.554 115.935  0.00  0.00     0.028 C 
ATOM     10  C   LIG d   1      -0.756  74.576 114.890  0.00  0.00     0.006 C 
ENDBRANCH   8   9
BRANCH   8  11
ATOM     11  C   LIG d   1      -1.689  74.536 118.370  0.00  0.00     0.028 C 
ATOM     12  C   LIG d   1      -0.908  75.065 119.584  0.00  0.00     0.006 C 
ENDBRANCH   8  11
ENDBRANCH   7   8
ENDBRANCH   1   7
BRANCH   6  13
ATOM     13  N   LIG d   1      -0.458  78.517 117.868  0.00  0.00    -0.311 N 
ATOM     14  C   LIG d   1       0.656  78.226 118.538  0.00  0.00     0.210 C 
ATOM     15  C   LIG d   1       0.759  78.861 119.929  0.00  0.00     0.109 C 
ATOM     16  O   LIG d   1       1.583  77.528 118.100  0.00  0.00    -0.276 OA
ATOM     17  H   LIG d   1      -1.142  79.117 118.287  0.00  0.00     0.149 HD
ENDBRANCH   6  13
BRANCH   5  18
ATOM     18  N   LIG d   1       1.144  79.160 115.348  0.00  0.00     0.381 N 
ATOM     19  H   LIG d   1       1.373  80.047 115.749  0.00  0.00    -0.090 HD
ATOM     20  H   LIG d   1       1.444  79.161 114.388  0.00  0.00    -0.090 HD
ATOM     21  H   LIG d   1       1.606  78.432 115.847  0.00  0.00    -0.090 HD
ENDBRANCH   5  18
BRANCH   3  22
ATOM     22  C   LIG d   1      -2.752  78.087 112.777  0.00  0.00     0.382 C 
ATOM     23  O   LIG d   1      -3.433  79.102 112.491  0.00  0.00    -0.241 OA
ATOM     24  O   LIG d   1      -2.709  77.132 111.978  0.00  0.00    -0.241 OA
ENDBRANCH   3  22
TORSDOF 7
ENDMDL
