MODEL 1
REMARK VINA RESULT:      -4.8      0.000      0.000
REMARK  7 active torsions:
REMARK  status: ('A' for Active; 'I' for Inactive)
REMARK    1  A    between atoms: C_2  and  C_3 
REMARK    2  A    between atoms: C_3  and  O_6 
REMARK    3  A    between atoms: C_3  and  C_4 
REMARK    4  A    between atoms: C_7  and  O_6 
REMARK    5  A    between atoms: C_9  and  C_10 
REMARK    6  A    between atoms: N_15  and  C_14 
REMARK    7  A    between atoms: N_20  and  C_19 
REMARK       I    between atoms: C_22  and  N_20 
ROOT
ATOM      1  C   LIG d   1      -2.493  78.420 115.115  0.00  0.00     0.161 C 
ATOM      2  C   LIG d   1      -2.890  79.639 114.541  0.00  0.00     0.016 C 
ATOM      3  C   LIG d   1      -2.869  79.886 113.149  0.00  0.00     0.038 C 
ATOM      4  C   LIG d   1      -2.591  78.873 112.220  0.00  0.00     0.028 C 
ATOM      5  C   LIG d   1      -1.697  77.769 112.776  0.00  0.00    -0.047 C 
ATOM      6  C   LIG d   1      -2.293  77.266 114.110  0.00  0.00     0.091 C 
ENDROOT
BRANCH   1   7
ATOM      7  O   LIG d   1      -3.431  78.034 116.140  0.00  0.00    -0.368 OA
BRANCH   7   8
ATOM      8  C   LIG d   1      -2.900  77.930 117.484  0.00  0.00     0.119 C 
BRANCH   8   9
ATOM      9  C   LIG d   1      -3.799  78.778 118.404  0.00  0.00     0.028 C 
ATOM     10  C   LIG d   1      -3.099  80.059 118.890  0.00  0.00     0.006 C 
ENDBRANCH   8   9
BRANCH   8  11
ATOM     11  C   LIG d   1      -1.508  78.561 117.583  0.00  0.00     0.028 C 
ATOM     12  C   LIG d   1      -0.418  77.544 117.957  0.00  0.00     0.006 C 
ENDBRANCH   8  11
ENDBRANCH   7   8
ENDBRANCH   1   7
BRANCH   6  13
ATOM     13  N   LIG d   1      -1.435  76.244 114.764  0.00  0.00    -0.311 N 
ATOM     14  C   LIG d   1      -1.897  75.080 115.219  0.00  0.00     0.210 C 
ATOM     15  C   LIG d   1      -0.847  74.180 115.877  0.00  0.00     0.109 C 
ATOM     16  O   LIG d   1      -3.071  74.695 115.111  0.00  0.00    -0.276 OA
ATOM     17  H   LIG d   1      -0.463  76.461 114.865  0.00  0.00     0.149 HD
ENDBRANCH   6  13
BRANCH   5  18
ATOM     18  N   LIG d   1      -1.602  76.714 111.750  0.00  0.00     0.381 N 
ATOM     19  H   LIG d   1      -1.016  75.973 112.081  0.00  0.00    -0.090 HD
ATOM     20  H   LIG d   1      -1.184  77.101 110.923  0.00  0.00    -0.090 HD
ATOM     21  H   LIG d   1      -2.509  76.361 111.539  0.00  0.00    -0.090 HD
ENDBRANCH   5  18
BRANCH   3  22
ATOM     22  C   LIG d   1      -3.090  81.171 112.676  0.00  0.00     0.382 C 
ATOM     23  O   LIG d   1      -2.120  81.887 112.331  0.00  0.00    -0.241 OA
ATOM     24  O   LIG d   1      -4.244  81.638 112.631  0.00  0.00    -0.241 OA
ENDBRANCH   3  22
TORSDOF 7
ENDMDL
MODEL 2
REMARK VINA RESULT:      -4.3      1.318      1.879
REMARK  7 active torsions:
REMARK  status: ('A' for Active; 'I' for Inactive)
REMARK    1  A    between atoms: C_2  and  C_3 
REMARK    2  A    between atoms: C_3  and  O_6 
REMARK    3  A    between atoms: C_3  and  C_4 
REMARK    4  A    between atoms: C_7  and  O_6 
REMARK    5  A    between atoms: C_9  and  C_10 
REMARK    6  A    between atoms: N_15  and  C_14 
REMARK    7  A    between atoms: N_20  and  C_19 
REMARK       I    between atoms: C_22  and  N_20 
ROOT
ATOM      1  C   LIG d   1      -2.687  78.331 115.898  0.00  0.00     0.161 C 
ATOM      2  C   LIG d   1      -2.964  79.380 115.005  0.00  0.00     0.016 C 
ATOM      3  C   LIG d   1      -2.673  79.322 113.623  0.00  0.00     0.038 C 
ATOM      4  C   LIG d   1      -2.219  78.145 113.009  0.00  0.00     0.028 C 
ATOM      5  C   LIG d   1      -1.450  77.228 113.953  0.00  0.00    -0.047 C 
ATOM      6  C   LIG d   1      -2.294  76.998 115.228  0.00  0.00     0.091 C 
ENDROOT
BRANCH   1   7
ATOM      7  O   LIG d   1      -3.805  78.136 116.786  0.00  0.00    -0.368 OA
BRANCH   7   8
ATOM      8  C   LIG d   1      -3.590  78.498 118.172  0.00  0.00     0.119 C 
BRANCH   8   9
ATOM      9  C   LIG d   1      -4.107  77.334 119.040  0.00  0.00     0.028 C 
ATOM     10  C   LIG d   1      -3.004  76.726 119.922  0.00  0.00     0.006 C 
ENDBRANCH   8   9
BRANCH   8  11
ATOM     11  C   LIG d   1      -4.440  79.709 118.570  0.00  0.00     0.028 C 
ATOM     12  C   LIG d   1      -3.662  80.732 119.411  0.00  0.00     0.006 C 
ENDBRANCH   8  11
ENDBRANCH   7   8
ENDBRANCH   1   7
BRANCH   6  13
ATOM     13  N   LIG d   1      -1.579  76.179 116.241  0.00  0.00    -0.311 N 
ATOM     14  C   LIG d   1      -2.031  75.009 116.689  0.00  0.00     0.210 C 
ATOM     15  C   LIG d   1      -1.150  74.338 117.748  0.00  0.00     0.109 C 
ATOM     16  O   LIG d   1      -3.062  74.448 116.288  0.00  0.00    -0.276 OA
ATOM     17  H   LIG d   1      -0.718  76.544 116.598  0.00  0.00     0.149 HD
ENDBRANCH   6  13
BRANCH   5  18
ATOM     18  N   LIG d   1      -1.157  75.981 113.222  0.00  0.00     0.381 N 
ATOM     19  H   LIG d   1      -1.131  76.163 112.238  0.00  0.00    -0.090 HD
ATOM     20  H   LIG d   1      -1.891  75.318 113.401  0.00  0.00    -0.090 HD
ATOM     21  H   LIG d   1      -0.283  75.607 113.521  0.00  0.00    -0.090 HD
ENDBRANCH   5  18
BRANCH   3  22
ATOM     22  C   LIG d   1      -2.798  80.464 112.846  0.00  0.00     0.382 C 
ATOM     23  O   LIG d   1      -1.780  80.990 112.337  0.00  0.00    -0.241 OA
ATOM     24  O   LIG d   1      -3.911  81.000 112.685  0.00  0.00    -0.241 OA
ENDBRANCH   3  22
TORSDOF 7
ENDMDL
MODEL 3
REMARK VINA RESULT:      -4.1      2.441      4.532
REMARK  7 active torsions:
REMARK  status: ('A' for Active; 'I' for Inactive)
REMARK    1  A    between atoms: C_2  and  C_3 
REMARK    2  A    between atoms: C_3  and  O_6 
REMARK    3  A    between atoms: C_3  and  C_4 
REMARK    4  A    between atoms: C_7  and  O_6 
REMARK    5  A    between atoms: C_9  and  C_10 
REMARK    6  A    between atoms: N_15  and  C_14 
REMARK    7  A    between atoms: N_20  and  C_19 
REMARK       I    between atoms: C_22  and  N_20 
ROOT
ATOM      1  C   LIG d   1      -1.661  79.376 114.654  0.00  0.00     0.161 C 
ATOM      2  C   LIG d   1      -2.406  78.315 115.195  0.00  0.00     0.016 C 
ATOM      3  C   LIG d   1      -3.123  77.386 114.406  0.00  0.00     0.038 C 
ATOM      4  C   LIG d   1      -3.020  77.366 113.007  0.00  0.00     0.028 C 
ATOM      5  C   LIG d   1      -2.684  78.726 112.404  0.00  0.00    -0.047 C 
ATOM      6  C   LIG d   1      -1.446  79.303 113.128  0.00  0.00     0.091 C 
ENDROOT
BRANCH   1   7
ATOM      7  O   LIG d   1      -0.394  79.479 115.334  0.00  0.00    -0.368 OA
BRANCH   7   8
ATOM      8  C   LIG d   1      -0.378  79.056 116.719  0.00  0.00     0.119 C 
BRANCH   8   9
ATOM      9  C   LIG d   1      -0.153  80.311 117.584  0.00  0.00     0.028 C 
ATOM     10  C   LIG d   1      -1.313  80.568 118.560  0.00  0.00     0.006 C 
ENDBRANCH   8   9
BRANCH   8  11
ATOM     11  C   LIG d   1       0.818  78.144 117.010  0.00  0.00     0.028 C 
ATOM     12  C   LIG d   1       0.445  76.653 117.000  0.00  0.00     0.006 C 
ENDBRANCH   8  11
ENDBRANCH   7   8
ENDBRANCH   1   7
BRANCH   6  13
ATOM     13  N   LIG d   1      -1.100  80.670 112.657  0.00  0.00    -0.311 N 
ATOM     14  C   LIG d   1      -0.266  80.907 111.646  0.00  0.00     0.210 C 
ATOM     15  C   LIG d   1      -0.032  82.389 111.336  0.00  0.00     0.109 C 
ATOM     16  O   LIG d   1       0.277  80.032 110.956  0.00  0.00    -0.276 OA
ATOM     17  H   LIG d   1      -1.520  81.439 113.140  0.00  0.00     0.149 HD
ENDBRANCH   6  13
BRANCH   5  18
ATOM     18  N   LIG d   1      -2.471  78.532 110.958  0.00  0.00     0.381 N 
ATOM     19  H   LIG d   1      -1.807  79.201 110.621  0.00  0.00    -0.090 HD
ATOM     20  H   LIG d   1      -3.341  78.682 110.478  0.00  0.00    -0.090 HD
ATOM     21  H   LIG d   1      -2.141  77.609 110.782  0.00  0.00    -0.090 HD
ENDBRANCH   5  18
BRANCH   3  22
ATOM     22  C   LIG d   1      -3.987  76.489 115.015  0.00  0.00     0.382 C 
ATOM     23  O   LIG d   1      -4.353  75.457 114.404  0.00  0.00    -0.241 OA
ATOM     24  O   LIG d   1      -4.440  76.721 116.152  0.00  0.00    -0.241 OA
ENDBRANCH   3  22
TORSDOF 7
ENDMDL
MODEL 4
REMARK VINA RESULT:      -4.0      2.546      4.348
REMARK  7 active torsions:
REMARK  status: ('A' for Active; 'I' for Inactive)
REMARK    1  A    between atoms: C_2  and  C_3 
REMARK    2  A    between atoms: C_3  and  O_6 
REMARK    3  A    between atoms: C_3  and  C_4 
REMARK    4  A    between atoms: C_7  and  O_6 
REMARK    5  A    between atoms: C_9  and  C_10 
REMARK    6  A    between atoms: N_15  and  C_14 
REMARK    7  A    between atoms: N_20  and  C_19 
REMARK       I    between atoms: C_22  and  N_20 
ROOT
ATOM      1  C   LIG d   1      -2.563  76.995 116.601  0.00  0.00     0.161 C 
ATOM      2  C   LIG d   1      -3.228  76.916 115.366  0.00  0.00     0.016 C 
ATOM      3  C   LIG d   1      -2.880  77.702 114.244  0.00  0.00     0.038 C 
ATOM      4  C   LIG d   1      -1.739  78.517 114.234  0.00  0.00     0.028 C 
ATOM      5  C   LIG d   1      -1.333  79.009 115.619  0.00  0.00    -0.047 C 
ATOM      6  C   LIG d   1      -1.245  77.797 116.576  0.00  0.00     0.091 C 
ENDROOT
BRANCH   1   7
ATOM      7  O   LIG d   1      -2.332  75.669 117.117  0.00  0.00    -0.368 OA
BRANCH   7   8
ATOM      8  C   LIG d   1      -1.028  75.098 116.849  0.00  0.00     0.119 C 
BRANCH   8   9
ATOM      9  C   LIG d   1      -1.168  74.180 115.619  0.00  0.00     0.028 C 
ATOM     10  C   LIG d   1      -0.302  74.646 114.437  0.00  0.00     0.006 C 
ENDBRANCH   8   9
BRANCH   8  11
ATOM     11  C   LIG d   1      -0.574  74.183 117.989  0.00  0.00     0.028 C 
ATOM     12  C   LIG d   1      -0.645  74.864 119.365  0.00  0.00     0.006 C 
ENDBRANCH   8  11
ENDBRANCH   7   8
ENDBRANCH   1   7
BRANCH   6  13
ATOM     13  N   LIG d   1      -0.936  78.199 117.973  0.00  0.00    -0.311 N 
ATOM     14  C   LIG d   1       0.302  78.268 118.459  0.00  0.00     0.210 C 
ATOM     15  C   LIG d   1       0.397  78.684 119.930  0.00  0.00     0.109 C 
ATOM     16  O   LIG d   1       1.333  78.055 117.802  0.00  0.00    -0.276 OA
ATOM     17  H   LIG d   1      -1.711  78.420 118.566  0.00  0.00     0.149 HD
ENDBRANCH   6  13
BRANCH   5  18
ATOM     18  N   LIG d   1      -0.054  79.730 115.480  0.00  0.00     0.381 N 
ATOM     19  H   LIG d   1      -0.014  80.479 116.142  0.00  0.00    -0.090 HD
ATOM     20  H   LIG d   1      -0.001  80.122 114.556  0.00  0.00    -0.090 HD
ATOM     21  H   LIG d   1       0.707  79.105 115.628  0.00  0.00    -0.090 HD
ENDBRANCH   5  18
BRANCH   3  22
ATOM     22  C   LIG d   1      -3.703  77.707 113.127  0.00  0.00     0.382 C 
ATOM     23  O   LIG d   1      -4.437  76.719 112.885  0.00  0.00    -0.241 OA
ATOM     24  O   LIG d   1      -3.687  78.669 112.336  0.00  0.00    -0.241 OA
ENDBRANCH   3  22
TORSDOF 7
ENDMDL
MODEL 5
REMARK VINA RESULT:      -3.9      2.769      4.440
REMARK  7 active torsions:
REMARK  status: ('A' for Active; 'I' for Inactive)
REMARK    1  A    between atoms: C_2  and  C_3 
REMARK    2  A    between atoms: C_3  and  O_6 
REMARK    3  A    between atoms: C_3  and  C_4 
REMARK    4  A    between atoms: C_7  and  O_6 
REMARK    5  A    between atoms: C_9  and  C_10 
REMARK    6  A    between atoms: N_15  and  C_14 
REMARK    7  A    between atoms: N_20  and  C_19 
REMARK       I    between atoms: C_22  and  N_20 
ROOT
ATOM      1  C   LIG d   1      -1.724  77.910 116.820  0.00  0.00     0.161 C 
ATOM      2  C   LIG d   1      -2.598  77.017 116.180  0.00  0.00     0.016 C 
ATOM      3  C   LIG d   1      -2.837  77.026 114.786  0.00  0.00     0.038 C 
ATOM      4  C   LIG d   1      -2.098  77.837 113.912  0.00  0.00     0.028 C 
ATOM      5  C   LIG d   1      -1.568  79.108 114.568  0.00  0.00    -0.047 C 
ATOM      6  C   LIG d   1      -0.825  78.729 115.869  0.00  0.00     0.091 C 
ENDROOT
BRANCH   1   7
ATOM      7  O   LIG d   1      -0.920  77.201 117.783  0.00  0.00    -0.368 OA
BRANCH   7   8
ATOM      8  C   LIG d   1      -1.465  75.951 118.273  0.00  0.00     0.119 C 
BRANCH   8   9
ATOM      9  C   LIG d   1      -1.835  76.156 119.754  0.00  0.00     0.028 C 
ATOM     10  C   LIG d   1      -3.229  76.783 119.930  0.00  0.00     0.006 C 
ENDBRANCH   8   9
BRANCH   8  11
ATOM     11  C   LIG d   1      -0.409  74.843 118.268  0.00  0.00     0.028 C 
ATOM     12  C   LIG d   1      -0.126  74.294 116.861  0.00  0.00     0.006 C 
ENDBRANCH   8  11
ENDBRANCH   7   8
ENDBRANCH   1   7
BRANCH   6  13
ATOM     13  N   LIG d   1      -0.347  79.921 116.617  0.00  0.00    -0.311 N 
ATOM     14  C   LIG d   1       0.932  80.129 116.926  0.00  0.00     0.210 C 
ATOM     15  C   LIG d   1       1.205  81.411 117.718  0.00  0.00     0.109 C 
ATOM     16  O   LIG d   1       1.869  79.389 116.591  0.00  0.00    -0.276 OA
ATOM     17  H   LIG d   1      -1.038  80.588 116.901  0.00  0.00     0.149 HD
ENDBRANCH   6  13
BRANCH   5  18
ATOM     18  N   LIG d   1      -0.703  79.789 113.586  0.00  0.00     0.381 N 
ATOM     19  H   LIG d   1      -0.543  80.733 113.873  0.00  0.00    -0.090 HD
ATOM     20  H   LIG d   1      -1.171  79.804 112.697  0.00  0.00    -0.090 HD
ATOM     21  H   LIG d   1       0.165  79.307 113.504  0.00  0.00    -0.090 HD
ENDBRANCH   5  18
BRANCH   3  22
ATOM     22  C   LIG d   1      -3.854  76.245 114.258  0.00  0.00     0.382 C 
ATOM     23  O   LIG d   1      -4.159  75.158 114.806  0.00  0.00    -0.241 OA
ATOM     24  O   LIG d   1      -4.440  76.591 113.215  0.00  0.00    -0.241 OA
ENDBRANCH   3  22
TORSDOF 7
ENDMDL
MODEL 6
REMARK VINA RESULT:      -3.8      2.882      5.830
REMARK  7 active torsions:
REMARK  status: ('A' for Active; 'I' for Inactive)
REMARK    1  A    between atoms: C_2  and  C_3 
REMARK    2  A    between atoms: C_3  and  O_6 
REMARK    3  A    between atoms: C_3  and  C_4 
REMARK    4  A    between atoms: C_7  and  O_6 
REMARK    5  A    between atoms: C_9  and  C_10 
REMARK    6  A    between atoms: N_15  and  C_14 
REMARK    7  A    between atoms: N_20  and  C_19 
REMARK       I    between atoms: C_22  and  N_20 
ROOT
ATOM      1  C   LIG d   1      -0.901  76.865 115.892  0.00  0.00     0.161 C 
ATOM      2  C   LIG d   1      -0.154  76.212 116.886  0.00  0.00     0.016 C 
ATOM      3  C   LIG d   1       0.659  76.892 117.822  0.00  0.00     0.038 C 
ATOM      4  C   LIG d   1       0.662  78.291 117.922  0.00  0.00     0.028 C 
ATOM      5  C   LIG d   1       0.315  78.993 116.614  0.00  0.00    -0.047 C 
ATOM      6  C   LIG d   1      -0.998  78.396 116.057  0.00  0.00     0.091 C 
ENDROOT
BRANCH   1   7
ATOM      7  O   LIG d   1      -2.219  76.286 115.811  0.00  0.00    -0.368 OA
BRANCH   7   8
ATOM      8  C   LIG d   1      -2.604  75.423 116.910  0.00  0.00     0.119 C 
BRANCH   8   9
ATOM      9  C   LIG d   1      -3.286  74.180 116.305  0.00  0.00     0.028 C 
ATOM     10  C   LIG d   1      -4.431  74.547 115.346  0.00  0.00     0.006 C 
ENDBRANCH   8   9
BRANCH   8  11
ATOM     11  C   LIG d   1      -3.671  76.083 117.789  0.00  0.00     0.028 C 
ATOM     12  C   LIG d   1      -3.072  76.844 118.982  0.00  0.00     0.006 C 
ENDBRANCH   8  11
ENDBRANCH   7   8
ENDBRANCH   1   7
BRANCH   6  13
ATOM     13  N   LIG d   1      -1.365  78.968 114.736  0.00  0.00    -0.311 N 
ATOM     14  C   LIG d   1      -2.600  79.355 114.422  0.00  0.00     0.210 C 
ATOM     15  C   LIG d   1      -2.766  79.899 112.999  0.00  0.00     0.109 C 
ATOM     16  O   LIG d   1      -3.568  79.330 115.198  0.00  0.00    -0.276 OA
ATOM     17  H   LIG d   1      -0.634  79.054 114.056  0.00  0.00     0.149 HD
ENDBRANCH   6  13
BRANCH   5  18
ATOM     18  N   LIG d   1       0.219  80.438 116.895  0.00  0.00     0.381 N 
ATOM     19  H   LIG d   1      -0.195  80.908 116.115  0.00  0.00    -0.090 HD
ATOM     20  H   LIG d   1       1.145  80.805 117.029  0.00  0.00    -0.090 HD
ATOM     21  H   LIG d   1      -0.328  80.591 117.713  0.00  0.00    -0.090 HD
ENDBRANCH   5  18
BRANCH   3  22
ATOM     22  C   LIG d   1       1.512  76.171 118.643  0.00  0.00     0.382 C 
ATOM     23  O   LIG d   1       1.090  75.158 119.251  0.00  0.00    -0.241 OA
ATOM     24  O   LIG d   1       2.687  76.546 118.819  0.00  0.00    -0.241 OA
ENDBRANCH   3  22
TORSDOF 7
ENDMDL
MODEL 7
REMARK VINA RESULT:      -3.7      2.144      2.950
REMARK  7 active torsions:
REMARK  status: ('A' for Active; 'I' for Inactive)
REMARK    1  A    between atoms: C_2  and  C_3 
REMARK    2  A    between atoms: C_3  and  O_6 
REMARK    3  A    between atoms: C_3  and  C_4 
REMARK    4  A    between atoms: C_7  and  O_6 
REMARK    5  A    between atoms: C_9  and  C_10 
REMARK    6  A    between atoms: N_15  and  C_14 
REMARK    7  A    between atoms: N_20  and  C_19 
REMARK       I    between atoms: C_22  and  N_20 
ROOT
ATOM      1  C   LIG d   1      -0.900  78.031 116.525  0.00  0.00     0.161 C 
ATOM      2  C   LIG d   1      -1.274  78.979 115.559  0.00  0.00     0.016 C 
ATOM      3  C   LIG d   1      -2.279  78.750 114.591  0.00  0.00     0.038 C 
ATOM      4  C   LIG d   1      -3.088  77.604 114.620  0.00  0.00     0.028 C 
ATOM      5  C   LIG d   1      -2.410  76.400 115.265  0.00  0.00    -0.047 C 
ATOM      6  C   LIG d   1      -1.847  76.818 116.642  0.00  0.00     0.091 C 
ENDROOT
BRANCH   1   7
ATOM      7  O   LIG d   1      -0.747  78.672 117.807  0.00  0.00    -0.368 OA
BRANCH   7   8
ATOM      8  C   LIG d   1      -1.447  79.929 117.978  0.00  0.00     0.119 C 
BRANCH   8   9
ATOM      9  C   LIG d   1      -0.467  80.919 118.637  0.00  0.00     0.028 C 
ATOM     10  C   LIG d   1      -1.190  82.074 119.350  0.00  0.00     0.006 C 
ENDBRANCH   8   9
BRANCH   8  11
ATOM     11  C   LIG d   1      -2.609  79.790 118.966  0.00  0.00     0.028 C 
ATOM     12  C   LIG d   1      -3.948  79.497 118.273  0.00  0.00     0.006 C 
ENDBRANCH   8  11
ENDBRANCH   7   8
ENDBRANCH   1   7
BRANCH   6  13
ATOM     13  N   LIG d   1      -1.094  75.721 117.304  0.00  0.00    -0.311 N 
ATOM     14  C   LIG d   1      -1.318  75.331 118.557  0.00  0.00     0.210 C 
ATOM     15  C   LIG d   1      -0.416  74.195 119.052  0.00  0.00     0.109 C 
ATOM     16  O   LIG d   1      -2.200  75.795 119.296  0.00  0.00    -0.276 OA
ATOM     17  H   LIG d   1      -0.381  75.269 116.766  0.00  0.00     0.149 HD
ENDBRANCH   6  13
BRANCH   5  18
ATOM     18  N   LIG d   1      -3.410  75.319 115.353  0.00  0.00     0.381 N 
ATOM     19  H   LIG d   1      -2.972  74.478 115.671  0.00  0.00    -0.090 HD
ATOM     20  H   LIG d   1      -3.788  75.151 114.437  0.00  0.00    -0.090 HD
ATOM     21  H   LIG d   1      -4.140  75.580 115.978  0.00  0.00    -0.090 HD
ENDBRANCH   5  18
BRANCH   3  22
ATOM     22  C   LIG d   1      -2.456  79.655 113.556  0.00  0.00     0.382 C 
ATOM     23  O   LIG d   1      -1.470  80.033 112.878  0.00  0.00    -0.241 OA
ATOM     24  O   LIG d   1      -3.582  80.133 113.321  0.00  0.00    -0.241 OA
ENDBRANCH   3  22
TORSDOF 7
ENDMDL
MODEL 8
REMARK VINA RESULT:      -3.7      2.986      3.921
REMARK  7 active torsions:
REMARK  status: ('A' for Active; 'I' for Inactive)
REMARK    1  A    between atoms: C_2  and  C_3 
REMARK    2  A    between atoms: C_3  and  O_6 
REMARK    3  A    between atoms: C_3  and  C_4 
REMARK    4  A    between atoms: C_7  and  O_6 
REMARK    5  A    between atoms: C_9  and  C_10 
REMARK    6  A    between atoms: N_15  and  C_14 
REMARK    7  A    between atoms: N_20  and  C_19 
REMARK       I    between atoms: C_22  and  N_20 
ROOT
ATOM      1  C   LIG d   1      -1.315  77.042 115.997  0.00  0.00     0.161 C 
ATOM      2  C   LIG d   1      -1.793  77.555 114.780  0.00  0.00     0.016 C 
ATOM      3  C   LIG d   1      -2.952  77.068 114.132  0.00  0.00     0.038 C 
ATOM      4  C   LIG d   1      -3.801  76.131 114.738  0.00  0.00     0.028 C 
ATOM      5  C   LIG d   1      -3.089  75.221 115.733  0.00  0.00    -0.047 C 
ATOM      6  C   LIG d   1      -2.290  76.095 116.728  0.00  0.00     0.091 C 
ENDROOT
BRANCH   1   7
ATOM      7  O   LIG d   1      -0.924  78.125 116.864  0.00  0.00    -0.368 OA
BRANCH   7   8
ATOM      8  C   LIG d   1       0.489  78.440 116.893  0.00  0.00     0.119 C 
BRANCH   8   9
ATOM      9  C   LIG d   1       1.061  77.883 118.211  0.00  0.00     0.028 C 
ATOM     10  C   LIG d   1       1.934  76.636 117.992  0.00  0.00     0.006 C 
ENDBRANCH   8   9
BRANCH   8  11
ATOM     11  C   LIG d   1       0.722  79.953 116.958  0.00  0.00     0.028 C 
ATOM     12  C   LIG d   1       1.940  80.404 116.137  0.00  0.00     0.006 C 
ENDBRANCH   8  11
ENDBRANCH   7   8
ENDBRANCH   1   7
BRANCH   6  13
ATOM     13  N   LIG d   1      -1.495  75.282 117.685  0.00  0.00    -0.311 N 
ATOM     14  C   LIG d   1      -1.562  75.432 119.006  0.00  0.00     0.210 C 
ATOM     15  C   LIG d   1      -0.644  74.505 119.810  0.00  0.00     0.109 C 
ATOM     16  O   LIG d   1      -2.318  76.223 119.591  0.00  0.00    -0.276 OA
ATOM     17  H   LIG d   1      -0.879  74.594 117.297  0.00  0.00     0.149 HD
ENDBRANCH   6  13
BRANCH   5  18
ATOM     18  N   LIG d   1      -4.114  74.388 116.389  0.00  0.00     0.381 N 
ATOM     19  H   LIG d   1      -5.021  74.780 116.230  0.00  0.00    -0.090 HD
ATOM     20  H   LIG d   1      -3.943  74.382 117.379  0.00  0.00    -0.090 HD
ATOM     21  H   LIG d   1      -4.078  73.459 116.032  0.00  0.00    -0.090 HD
ENDBRANCH   5  18
BRANCH   3  22
ATOM     22  C   LIG d   1      -3.249  77.492 112.846  0.00  0.00     0.382 C 
ATOM     23  O   LIG d   1      -2.379  78.087 112.165  0.00  0.00    -0.241 OA
ATOM     24  O   LIG d   1      -4.389  77.326 112.374  0.00  0.00    -0.241 OA
ENDBRANCH   3  22
TORSDOF 7
ENDMDL
MODEL 9
REMARK VINA RESULT:      -3.6      2.456      3.503
REMARK  7 active torsions:
REMARK  status: ('A' for Active; 'I' for Inactive)
REMARK    1  A    between atoms: C_2  and  C_3 
REMARK    2  A    between atoms: C_3  and  O_6 
REMARK    3  A    between atoms: C_3  and  C_4 
REMARK    4  A    between atoms: C_7  and  O_6 
REMARK    5  A    between atoms: C_9  and  C_10 
REMARK    6  A    between atoms: N_15  and  C_14 
REMARK    7  A    between atoms: N_20  and  C_19 
REMARK       I    between atoms: C_22  and  N_20 
ROOT
ATOM      1  C   LIG d   1      -1.010  77.682 116.590  0.00  0.00     0.161 C 
ATOM      2  C   LIG d   1      -1.801  77.916 115.454  0.00  0.00     0.016 C 
ATOM      3  C   LIG d   1      -1.928  76.994 114.390  0.00  0.00     0.038 C 
ATOM      4  C   LIG d   1      -1.387  75.701 114.461  0.00  0.00     0.028 C 
ATOM      5  C   LIG d   1      -0.163  75.606 115.365  0.00  0.00    -0.047 C 
ATOM      6  C   LIG d   1      -0.502  76.232 116.737  0.00  0.00     0.091 C 
ENDROOT
BRANCH   1   7
ATOM      7  O   LIG d   1      -1.725  78.085 117.775  0.00  0.00    -0.368 OA
BRANCH   7   8
ATOM      8  C   LIG d   1      -3.170  78.111 117.669  0.00  0.00     0.119 C 
BRANCH   8   9
ATOM      9  C   LIG d   1      -3.663  79.389 118.375  0.00  0.00     0.028 C 
ATOM     10  C   LIG d   1      -2.505  80.243 118.918  0.00  0.00     0.006 C 
ENDBRANCH   8   9
BRANCH   8  11
ATOM     11  C   LIG d   1      -3.806  76.951 118.440  0.00  0.00     0.028 C 
ATOM     12  C   LIG d   1      -3.026  76.582 119.713  0.00  0.00     0.006 C 
ENDBRANCH   8  11
ENDBRANCH   7   8
ENDBRANCH   1   7
BRANCH   6  13
ATOM     13  N   LIG d   1       0.668  76.256 117.654  0.00  0.00    -0.311 N 
ATOM     14  C   LIG d   1       0.762  75.494 118.742  0.00  0.00     0.210 C 
ATOM     15  C   LIG d   1       2.043  75.689 119.560  0.00  0.00     0.109 C 
ATOM     16  O   LIG d   1      -0.079  74.651 119.090  0.00  0.00    -0.276 OA
ATOM     17  H   LIG d   1       1.411  76.889 117.430  0.00  0.00     0.149 HD
ENDBRANCH   6  13
BRANCH   5  18
ATOM     18  N   LIG d   1       0.214  74.182 115.457  0.00  0.00     0.381 N 
ATOM     19  H   LIG d   1       1.147  74.056 115.120  0.00  0.00    -0.090 HD
ATOM     20  H   LIG d   1      -0.406  73.644 114.878  0.00  0.00    -0.090 HD
ATOM     21  H   LIG d   1       0.150  73.873 116.402  0.00  0.00    -0.090 HD
ENDBRANCH   5  18
BRANCH   3  22
ATOM     22  C   LIG d   1      -2.568  77.376 113.221  0.00  0.00     0.382 C 
ATOM     23  O   LIG d   1      -2.204  76.896 112.121  0.00  0.00    -0.241 OA
ATOM     24  O   LIG d   1      -3.476  78.228 113.248  0.00  0.00    -0.241 OA
ENDBRANCH   3  22
TORSDOF 7
ENDMDL
