MODEL 1
REMARK VINA RESULT:      -4.6      0.000      0.000
REMARK  7 active torsions:
REMARK  status: ('A' for Active; 'I' for Inactive)
REMARK    1  A    between atoms: C_2  and  C_3 
REMARK    2  A    between atoms: C_3  and  O_6 
REMARK    3  A    between atoms: C_3  and  C_4 
REMARK    4  A    between atoms: C_7  and  O_6 
REMARK    5  A    between atoms: C_9  and  C_10 
REMARK    6  A    between atoms: N_15  and  C_14 
REMARK    7  A    between atoms: N_20  and  C_19 
REMARK       I    between atoms: C_22  and  N_20 
ROOT
ATOM      1  C   LIG d   1      -0.858  78.414 115.453  0.00  0.00     0.161 C 
ATOM      2  C   LIG d   1      -1.851  78.371 114.460  0.00  0.00     0.016 C 
ATOM      3  C   LIG d   1      -2.317  77.170 113.877  0.00  0.00     0.038 C 
ATOM      4  C   LIG d   1      -1.927  75.912 114.358  0.00  0.00     0.028 C 
ATOM      5  C   LIG d   1      -0.550  75.915 115.015  0.00  0.00    -0.047 C 
ATOM      6  C   LIG d   1      -0.500  77.045 116.069  0.00  0.00     0.091 C 
ENDROOT
BRANCH   1   7
ATOM      7  O   LIG d   1      -1.240  79.344 116.486  0.00  0.00    -0.368 OA
BRANCH   7   8
ATOM      8  C   LIG d   1      -1.789  78.764 117.694  0.00  0.00     0.119 C 
BRANCH   8   9
ATOM      9  C   LIG d   1      -3.298  79.079 117.715  0.00  0.00     0.028 C 
ATOM     10  C   LIG d   1      -4.152  77.892 117.240  0.00  0.00     0.006 C 
ENDBRANCH   8   9
BRANCH   8  11
ATOM     11  C   LIG d   1      -1.217  79.437 118.945  0.00  0.00     0.028 C 
ATOM     12  C   LIG d   1      -0.402  80.699 118.623  0.00  0.00     0.006 C 
ENDBRANCH   8  11
ENDBRANCH   7   8
ENDBRANCH   1   7
BRANCH   6  13
ATOM     13  N   LIG d   1       0.839  77.172 116.700  0.00  0.00    -0.311 N 
ATOM     14  C   LIG d   1       1.175  76.565 117.837  0.00  0.00     0.210 C 
ATOM     15  C   LIG d   1       2.599  76.846 118.324  0.00  0.00     0.109 C 
ATOM     16  O   LIG d   1       0.438  75.794 118.471  0.00  0.00    -0.276 OA
ATOM     17  H   LIG d   1       1.509  77.754 116.236  0.00  0.00     0.149 HD
ENDBRANCH   6  13
BRANCH   5  18
ATOM     18  N   LIG d   1      -0.329  74.576 115.593  0.00  0.00     0.381 N 
ATOM     19  H   LIG d   1      -0.354  74.629 116.591  0.00  0.00    -0.090 HD
ATOM     20  H   LIG d   1       0.580  74.249 115.317  0.00  0.00    -0.090 HD
ATOM     21  H   LIG d   1      -1.029  73.945 115.269  0.00  0.00    -0.090 HD
ENDBRANCH   5  18
BRANCH   3  22
ATOM     22  C   LIG d   1      -3.154  77.222 112.773  0.00  0.00     0.382 C 
ATOM     23  O   LIG d   1      -2.912  78.025 111.839  0.00  0.00    -0.241 OA
ATOM     24  O   LIG d   1      -4.174  76.508 112.718  0.00  0.00    -0.241 OA
ENDBRANCH   3  22
TORSDOF 7
ENDMDL
MODEL 2
REMARK VINA RESULT:      -4.6      1.678      2.595
REMARK  7 active torsions:
REMARK  status: ('A' for Active; 'I' for Inactive)
REMARK    1  A    between atoms: C_2  and  C_3 
REMARK    2  A    between atoms: C_3  and  O_6 
REMARK    3  A    between atoms: C_3  and  C_4 
REMARK    4  A    between atoms: C_7  and  O_6 
REMARK    5  A    between atoms: C_9  and  C_10 
REMARK    6  A    between atoms: N_15  and  C_14 
REMARK    7  A    between atoms: N_20  and  C_19 
REMARK       I    between atoms: C_22  and  N_20 
ROOT
ATOM      1  C   LIG d   1      -1.264  77.284 116.558  0.00  0.00     0.161 C 
ATOM      2  C   LIG d   1      -1.895  77.855 115.440  0.00  0.00     0.016 C 
ATOM      3  C   LIG d   1      -1.865  77.276 114.150  0.00  0.00     0.038 C 
ATOM      4  C   LIG d   1      -1.326  76.002 113.921  0.00  0.00     0.028 C 
ATOM      5  C   LIG d   1      -0.235  75.619 114.916  0.00  0.00    -0.047 C 
ATOM      6  C   LIG d   1      -0.765  75.839 116.351  0.00  0.00     0.091 C 
ENDROOT
BRANCH   1   7
ATOM      7  O   LIG d   1      -2.138  77.354 117.701  0.00  0.00    -0.368 OA
BRANCH   7   8
ATOM      8  C   LIG d   1      -3.558  77.268 117.424  0.00  0.00     0.119 C 
BRANCH   8   9
ATOM      9  C   LIG d   1      -4.254  78.385 118.225  0.00  0.00     0.028 C 
ATOM     10  C   LIG d   1      -3.259  79.419 118.777  0.00  0.00     0.006 C 
ENDBRANCH   8   9
BRANCH   8  11
ATOM     11  C   LIG d   1      -4.151  75.959 117.954  0.00  0.00     0.028 C 
ATOM     12  C   LIG d   1      -4.237  74.865 116.877  0.00  0.00     0.006 C 
ENDBRANCH   8  11
ENDBRANCH   7   8
ENDBRANCH   1   7
BRANCH   6  13
ATOM     13  N   LIG d   1       0.268  75.568 117.384  0.00  0.00    -0.311 N 
ATOM     14  C   LIG d   1       0.052  74.805 118.454  0.00  0.00     0.210 C 
ATOM     15  C   LIG d   1       1.246  74.672 119.405  0.00  0.00     0.109 C 
ATOM     16  O   LIG d   1      -1.004  74.200 118.690  0.00  0.00    -0.276 OA
ATOM     17  H   LIG d   1       1.165  75.994 117.256  0.00  0.00     0.149 HD
ENDBRANCH   6  13
BRANCH   5  18
ATOM     18  N   LIG d   1       0.141  74.218 114.647  0.00  0.00     0.381 N 
ATOM     19  H   LIG d   1      -0.358  73.881 113.848  0.00  0.00    -0.090 HD
ATOM     20  H   LIG d   1      -0.115  73.655 115.439  0.00  0.00    -0.090 HD
ATOM     21  H   LIG d   1       1.122  74.153 114.486  0.00  0.00    -0.090 HD
ENDBRANCH   5  18
BRANCH   3  22
ATOM     22  C   LIG d   1      -2.345  77.993 113.064  0.00  0.00     0.382 C 
ATOM     23  O   LIG d   1      -3.253  77.510 112.345  0.00  0.00    -0.241 OA
ATOM     24  O   LIG d   1      -1.850  79.097 112.768  0.00  0.00    -0.241 OA
ENDBRANCH   3  22
TORSDOF 7
ENDMDL
MODEL 3
REMARK VINA RESULT:      -4.5      2.350      5.605
REMARK  7 active torsions:
REMARK  status: ('A' for Active; 'I' for Inactive)
REMARK    1  A    between atoms: C_2  and  C_3 
REMARK    2  A    between atoms: C_3  and  O_6 
REMARK    3  A    between atoms: C_3  and  C_4 
REMARK    4  A    between atoms: C_7  and  O_6 
REMARK    5  A    between atoms: C_9  and  C_10 
REMARK    6  A    between atoms: N_15  and  C_14 
REMARK    7  A    between atoms: N_20  and  C_19 
REMARK       I    between atoms: C_22  and  N_20 
ROOT
ATOM      1  C   LIG d   1      -0.861  75.951 115.694  0.00  0.00     0.161 C 
ATOM      2  C   LIG d   1      -0.349  75.427 116.892  0.00  0.00     0.016 C 
ATOM      3  C   LIG d   1       0.177  76.231 117.930  0.00  0.00     0.038 C 
ATOM      4  C   LIG d   1       0.087  77.630 117.903  0.00  0.00     0.028 C 
ATOM      5  C   LIG d   1       0.036  78.206 116.492  0.00  0.00    -0.047 C 
ATOM      6  C   LIG d   1      -1.070  77.480 115.692  0.00  0.00     0.091 C 
ENDROOT
BRANCH   1   7
ATOM      7  O   LIG d   1      -2.089  75.278 115.352  0.00  0.00    -0.368 OA
BRANCH   7   8
ATOM      8  C   LIG d   1      -3.306  75.872 115.865  0.00  0.00     0.119 C 
BRANCH   8   9
ATOM      9  C   LIG d   1      -3.778  75.010 117.052  0.00  0.00     0.028 C 
ATOM     10  C   LIG d   1      -3.754  75.780 118.383  0.00  0.00     0.006 C 
ENDBRANCH   8   9
BRANCH   8  11
ATOM     11  C   LIG d   1      -4.439  75.800 114.836  0.00  0.00     0.028 C 
ATOM     12  C   LIG d   1      -3.983  75.217 113.489  0.00  0.00     0.006 C 
ENDBRANCH   8  11
ENDBRANCH   7   8
ENDBRANCH   1   7
BRANCH   6  13
ATOM     13  N   LIG d   1      -1.130  77.924 114.276  0.00  0.00    -0.311 N 
ATOM     14  C   LIG d   1      -1.968  78.862 113.837  0.00  0.00     0.210 C 
ATOM     15  C   LIG d   1      -1.880  79.156 112.336  0.00  0.00     0.109 C 
ATOM     16  O   LIG d   1      -2.752  79.502 114.554  0.00  0.00    -0.276 OA
ATOM     17  H   LIG d   1      -0.506  77.480 113.631  0.00  0.00     0.149 HD
ENDBRANCH   6  13
BRANCH   5  18
ATOM     18  N   LIG d   1      -0.196  79.658 116.611  0.00  0.00     0.381 N 
ATOM     19  H   LIG d   1       0.643  80.111 116.915  0.00  0.00    -0.090 HD
ATOM     20  H   LIG d   1      -0.909  79.818 117.301  0.00  0.00    -0.090 HD
ATOM     21  H   LIG d   1      -0.483  80.031 115.733  0.00  0.00    -0.090 HD
ENDBRANCH   5  18
BRANCH   3  22
ATOM     22  C   LIG d   1       0.837  75.634 118.994  0.00  0.00     0.382 C 
ATOM     23  O   LIG d   1       0.829  74.385 119.116  0.00  0.00    -0.241 OA
ATOM     24  O   LIG d   1       1.403  76.331 119.857  0.00  0.00    -0.241 OA
ENDBRANCH   3  22
TORSDOF 7
ENDMDL
MODEL 4
REMARK VINA RESULT:      -4.3      2.164      3.193
REMARK  7 active torsions:
REMARK  status: ('A' for Active; 'I' for Inactive)
REMARK    1  A    between atoms: C_2  and  C_3 
REMARK    2  A    between atoms: C_3  and  O_6 
REMARK    3  A    between atoms: C_3  and  C_4 
REMARK    4  A    between atoms: C_7  and  O_6 
REMARK    5  A    between atoms: C_9  and  C_10 
REMARK    6  A    between atoms: N_15  and  C_14 
REMARK    7  A    between atoms: N_20  and  C_19 
REMARK       I    between atoms: C_22  and  N_20 
ROOT
ATOM      1  C   LIG d   1      -2.068  76.555 116.467  0.00  0.00     0.161 C 
ATOM      2  C   LIG d   1      -2.890  75.994 115.476  0.00  0.00     0.016 C 
ATOM      3  C   LIG d   1      -2.965  76.491 114.154  0.00  0.00     0.038 C 
ATOM      4  C   LIG d   1      -2.105  77.498 113.691  0.00  0.00     0.028 C 
ATOM      5  C   LIG d   1      -1.615  78.431 114.792  0.00  0.00    -0.047 C 
ATOM      6  C   LIG d   1      -1.040  77.583 115.950  0.00  0.00     0.091 C 
ENDROOT
BRANCH   1   7
ATOM      7  O   LIG d   1      -1.403  75.508 117.201  0.00  0.00    -0.368 OA
BRANCH   7   8
ATOM      8  C   LIG d   1      -2.050  75.077 118.424  0.00  0.00     0.119 C 
BRANCH   8   9
ATOM      9  C   LIG d   1      -2.374  76.339 119.246  0.00  0.00     0.028 C 
ATOM     10  C   LIG d   1      -3.878  76.481 119.535  0.00  0.00     0.006 C 
ENDBRANCH   8   9
BRANCH   8  11
ATOM     11  C   LIG d   1      -1.098  74.256 119.299  0.00  0.00     0.028 C 
ATOM     12  C   LIG d   1       0.374  74.405 118.880  0.00  0.00     0.006 C 
ENDBRANCH   8  11
ENDBRANCH   7   8
ENDBRANCH   1   7
BRANCH   6  13
ATOM     13  N   LIG d   1      -0.615  78.415 117.105  0.00  0.00    -0.311 N 
ATOM     14  C   LIG d   1       0.556  78.270 117.722  0.00  0.00     0.210 C 
ATOM     15  C   LIG d   1       0.787  79.217 118.904  0.00  0.00     0.109 C 
ATOM     16  O   LIG d   1       1.439  77.468 117.383  0.00  0.00    -0.276 OA
ATOM     17  H   LIG d   1      -1.258  79.112 117.427  0.00  0.00     0.149 HD
ENDBRANCH   6  13
BRANCH   5  18
ATOM     18  N   LIG d   1      -0.622  79.343 114.195  0.00  0.00     0.381 N 
ATOM     19  H   LIG d   1      -0.779  79.416 113.209  0.00  0.00    -0.090 HD
ATOM     20  H   LIG d   1       0.297  78.964 114.341  0.00  0.00    -0.090 HD
ATOM     21  H   LIG d   1      -0.688  80.244 114.616  0.00  0.00    -0.090 HD
ENDBRANCH   5  18
BRANCH   3  22
ATOM     22  C   LIG d   1      -3.938  76.008 113.293  0.00  0.00     0.382 C 
ATOM     23  O   LIG d   1      -4.333  74.821 113.396  0.00  0.00    -0.241 OA
ATOM     24  O   LIG d   1      -4.394  76.729 112.386  0.00  0.00    -0.241 OA
ENDBRANCH   3  22
TORSDOF 7
ENDMDL
MODEL 5
REMARK VINA RESULT:      -4.3      1.964      2.196
REMARK  7 active torsions:
REMARK  status: ('A' for Active; 'I' for Inactive)
REMARK    1  A    between atoms: C_2  and  C_3 
REMARK    2  A    between atoms: C_3  and  O_6 
REMARK    3  A    between atoms: C_3  and  C_4 
REMARK    4  A    between atoms: C_7  and  O_6 
REMARK    5  A    between atoms: C_9  and  C_10 
REMARK    6  A    between atoms: N_15  and  C_14 
REMARK    7  A    between atoms: N_20  and  C_19 
REMARK       I    between atoms: C_22  and  N_20 
ROOT
ATOM      1  C   LIG d   1      -1.583  78.143 116.340  0.00  0.00     0.161 C 
ATOM      2  C   LIG d   1      -2.008  79.015 115.325  0.00  0.00     0.016 C 
ATOM      3  C   LIG d   1      -2.132  78.631 113.970  0.00  0.00     0.038 C 
ATOM      4  C   LIG d   1      -1.982  77.298 113.561  0.00  0.00     0.028 C 
ATOM      5  C   LIG d   1      -1.062  76.486 114.466  0.00  0.00    -0.047 C 
ATOM      6  C   LIG d   1      -1.522  76.656 115.932  0.00  0.00     0.091 C 
ENDROOT
BRANCH   1   7
ATOM      7  O   LIG d   1      -2.413  78.308 117.507  0.00  0.00    -0.368 OA
BRANCH   7   8
ATOM      8  C   LIG d   1      -1.737  78.738 118.714  0.00  0.00     0.119 C 
BRANCH   8   9
ATOM      9  C   LIG d   1      -2.197  77.810 119.856  0.00  0.00     0.028 C 
ATOM     10  C   LIG d   1      -3.414  76.956 119.465  0.00  0.00     0.006 C 
ENDBRANCH   8   9
BRANCH   8  11
ATOM     11  C   LIG d   1      -2.180  80.143 119.131  0.00  0.00     0.028 C 
ATOM     12  C   LIG d   1      -1.045  81.176 119.043  0.00  0.00     0.006 C 
ENDBRANCH   8  11
ENDBRANCH   7   8
ENDBRANCH   1   7
BRANCH   6  13
ATOM     13  N   LIG d   1      -0.625  75.962 116.892  0.00  0.00    -0.311 N 
ATOM     14  C   LIG d   1      -0.982  74.877 117.577  0.00  0.00     0.210 C 
ATOM     15  C   LIG d   1       0.087  74.331 118.528  0.00  0.00     0.109 C 
ATOM     16  O   LIG d   1      -2.072  74.296 117.463  0.00  0.00    -0.276 OA
ATOM     17  H   LIG d   1       0.290  76.348 117.022  0.00  0.00     0.149 HD
ENDBRANCH   6  13
BRANCH   5  18
ATOM     18  N   LIG d   1      -1.106  75.085 114.005  0.00  0.00     0.381 N 
ATOM     19  H   LIG d   1      -1.592  74.523 114.675  0.00  0.00    -0.090 HD
ATOM     20  H   LIG d   1      -0.165  74.739 113.927  0.00  0.00    -0.090 HD
ATOM     21  H   LIG d   1      -1.562  75.031 113.121  0.00  0.00    -0.090 HD
ENDBRANCH   5  18
BRANCH   3  22
ATOM     22  C   LIG d   1      -2.369  79.595 113.002  0.00  0.00     0.382 C 
ATOM     23  O   LIG d   1      -3.111  80.573 113.260  0.00  0.00    -0.241 OA
ATOM     24  O   LIG d   1      -1.887  79.475 111.859  0.00  0.00    -0.241 OA
ENDBRANCH   3  22
TORSDOF 7
ENDMDL
MODEL 6
REMARK VINA RESULT:      -4.2      1.336      1.691
REMARK  7 active torsions:
REMARK  status: ('A' for Active; 'I' for Inactive)
REMARK    1  A    between atoms: C_2  and  C_3 
REMARK    2  A    between atoms: C_3  and  O_6 
REMARK    3  A    between atoms: C_3  and  C_4 
REMARK    4  A    between atoms: C_7  and  O_6 
REMARK    5  A    between atoms: C_9  and  C_10 
REMARK    6  A    between atoms: N_15  and  C_14 
REMARK    7  A    between atoms: N_20  and  C_19 
REMARK       I    between atoms: C_22  and  N_20 
ROOT
ATOM      1  C   LIG d   1      -0.480  77.944 116.184  0.00  0.00     0.161 C 
ATOM      2  C   LIG d   1      -1.300  78.322 115.108  0.00  0.00     0.016 C 
ATOM      3  C   LIG d   1      -1.679  77.438 114.071  0.00  0.00     0.038 C 
ATOM      4  C   LIG d   1      -1.384  76.068 114.120  0.00  0.00     0.028 C 
ATOM      5  C   LIG d   1      -0.132  75.746 114.929  0.00  0.00    -0.047 C 
ATOM      6  C   LIG d   1      -0.240  76.425 116.313  0.00  0.00     0.091 C 
ENDROOT
BRANCH   1   7
ATOM      7  O   LIG d   1      -1.013  78.473 117.414  0.00  0.00    -0.368 OA
BRANCH   7   8
ATOM      8  C   LIG d   1      -0.131  79.338 118.172  0.00  0.00     0.119 C 
BRANCH   8   9
ATOM      9  C   LIG d   1      -0.938  80.588 118.571  0.00  0.00     0.028 C 
ATOM     10  C   LIG d   1      -2.286  80.233 119.221  0.00  0.00     0.006 C 
ENDBRANCH   8   9
BRANCH   8  11
ATOM     11  C   LIG d   1       1.019  79.858 117.305  0.00  0.00     0.028 C 
ATOM     12  C   LIG d   1       2.402  79.532 117.891  0.00  0.00     0.006 C 
ENDBRANCH   8  11
ENDBRANCH   7   8
ENDBRANCH   1   7
BRANCH   6  13
ATOM     13  N   LIG d   1       0.981  76.231 117.137  0.00  0.00    -0.311 N 
ATOM     14  C   LIG d   1       0.951  75.883 118.423  0.00  0.00     0.210 C 
ATOM     15  C   LIG d   1       2.323  75.756 119.090  0.00  0.00     0.109 C 
ATOM     16  O   LIG d   1      -0.082  75.638 119.065  0.00  0.00    -0.276 OA
ATOM     17  H   LIG d   1       1.863  76.379 116.687  0.00  0.00     0.149 HD
ENDBRANCH   6  13
BRANCH   5  18
ATOM     18  N   LIG d   1      -0.021  74.277 115.013  0.00  0.00     0.381 N 
ATOM     19  H   LIG d   1      -0.915  73.881 115.222  0.00  0.00    -0.090 HD
ATOM     20  H   LIG d   1       0.611  74.041 115.757  0.00  0.00    -0.090 HD
ATOM     21  H   LIG d   1       0.319  73.911 114.150  0.00  0.00    -0.090 HD
ENDBRANCH   5  18
BRANCH   3  22
ATOM     22  C   LIG d   1      -2.327  77.933 112.950  0.00  0.00     0.382 C 
ATOM     23  O   LIG d   1      -1.897  78.966 112.382  0.00  0.00    -0.241 OA
ATOM     24  O   LIG d   1      -3.362  77.385 112.524  0.00  0.00    -0.241 OA
ENDBRANCH   3  22
TORSDOF 7
ENDMDL
MODEL 7
REMARK VINA RESULT:      -4.1      2.363      6.019
REMARK  7 active torsions:
REMARK  status: ('A' for Active; 'I' for Inactive)
REMARK    1  A    between atoms: C_2  and  C_3 
REMARK    2  A    between atoms: C_3  and  O_6 
REMARK    3  A    between atoms: C_3  and  C_4 
REMARK    4  A    between atoms: C_7  and  O_6 
REMARK    5  A    between atoms: C_9  and  C_10 
REMARK    6  A    between atoms: N_15  and  C_14 
REMARK    7  A    between atoms: N_20  and  C_19 
REMARK       I    between atoms: C_22  and  N_20 
ROOT
ATOM      1  C   LIG d   1      -0.361  76.785 116.208  0.00  0.00     0.161 C 
ATOM      2  C   LIG d   1       0.354  76.194 117.263  0.00  0.00     0.016 C 
ATOM      3  C   LIG d   1       1.026  76.938 118.260  0.00  0.00     0.038 C 
ATOM      4  C   LIG d   1       0.901  78.331 118.356  0.00  0.00     0.028 C 
ATOM      5  C   LIG d   1       0.604  79.007 117.022  0.00  0.00    -0.047 C 
ATOM      6  C   LIG d   1      -0.602  78.302 116.360  0.00  0.00     0.091 C 
ENDROOT
BRANCH   1   7
ATOM      7  O   LIG d   1      -1.613  76.096 116.020  0.00  0.00    -0.368 OA
BRANCH   7   8
ATOM      8  C   LIG d   1      -1.713  75.267 114.836  0.00  0.00     0.119 C 
BRANCH   8   9
ATOM      9  C   LIG d   1      -0.439  75.498 114.001  0.00  0.00     0.028 C 
ATOM     10  C   LIG d   1       0.221  74.180 113.560  0.00  0.00     0.006 C 
ENDBRANCH   8   9
BRANCH   8  11
ATOM     11  C   LIG d   1      -2.872  75.712 113.940  0.00  0.00     0.028 C 
ATOM     12  C   LIG d   1      -4.234  75.641 114.648  0.00  0.00     0.006 C 
ENDBRANCH   8  11
ENDBRANCH   7   8
ENDBRANCH   1   7
BRANCH   6  13
ATOM     13  N   LIG d   1      -0.906  78.846 115.011  0.00  0.00    -0.311 N 
ATOM     14  C   LIG d   1      -2.141  79.117 114.591  0.00  0.00     0.210 C 
ATOM     15  C   LIG d   1      -2.234  79.653 113.159  0.00  0.00     0.109 C 
ATOM     16  O   LIG d   1      -3.165  78.996 115.280  0.00  0.00    -0.276 OA
ATOM     17  H   LIG d   1      -0.131  79.004 114.397  0.00  0.00     0.149 HD
ENDBRANCH   6  13
BRANCH   5  18
ATOM     18  N   LIG d   1       0.363  80.437 117.290  0.00  0.00     0.381 N 
ATOM     19  H   LIG d   1      -0.400  80.537 117.929  0.00  0.00    -0.090 HD
ATOM     20  H   LIG d   1       0.114  80.891 116.429  0.00  0.00    -0.090 HD
ATOM     21  H   LIG d   1       1.182  80.856 117.670  0.00  0.00    -0.090 HD
ENDBRANCH   5  18
BRANCH   3  22
ATOM     22  C   LIG d   1       1.867  76.289 119.152  0.00  0.00     0.382 C 
ATOM     23  O   LIG d   1       1.872  75.035 119.209  0.00  0.00    -0.241 OA
ATOM     24  O   LIG d   1       2.587  76.942 119.930  0.00  0.00    -0.241 OA
ENDBRANCH   3  22
TORSDOF 7
ENDMDL
MODEL 8
REMARK VINA RESULT:      -4.1      2.919      4.898
REMARK  7 active torsions:
REMARK  status: ('A' for Active; 'I' for Inactive)
REMARK    1  A    between atoms: C_2  and  C_3 
REMARK    2  A    between atoms: C_3  and  O_6 
REMARK    3  A    between atoms: C_3  and  C_4 
REMARK    4  A    between atoms: C_7  and  O_6 
REMARK    5  A    between atoms: C_9  and  C_10 
REMARK    6  A    between atoms: N_15  and  C_14 
REMARK    7  A    between atoms: N_20  and  C_19 
REMARK       I    between atoms: C_22  and  N_20 
ROOT
ATOM      1  C   LIG d   1       0.495  78.075 117.923  0.00  0.00     0.161 C 
ATOM      2  C   LIG d   1      -0.144  76.827 117.830  0.00  0.00     0.016 C 
ATOM      3  C   LIG d   1      -0.906  76.424 116.710  0.00  0.00     0.038 C 
ATOM      4  C   LIG d   1      -0.956  77.188 115.534  0.00  0.00     0.028 C 
ATOM      5  C   LIG d   1      -0.743  78.679 115.771  0.00  0.00    -0.047 C 
ATOM      6  C   LIG d   1       0.543  78.876 116.605  0.00  0.00     0.091 C 
ENDROOT
BRANCH   1   7
ATOM      7  O   LIG d   1       1.823  77.906 118.456  0.00  0.00    -0.368 OA
BRANCH   7   8
ATOM      8  C   LIG d   1       2.505  76.681 118.090  0.00  0.00     0.119 C 
BRANCH   8   9
ATOM      9  C   LIG d   1       3.122  76.093 119.374  0.00  0.00     0.028 C 
ATOM     10  C   LIG d   1       2.633  74.663 119.658  0.00  0.00     0.006 C 
ENDBRANCH   8   9
BRANCH   8  11
ATOM     11  C   LIG d   1       3.691  76.960 117.161  0.00  0.00     0.028 C 
ATOM     12  C   LIG d   1       4.799  77.780 117.840  0.00  0.00     0.006 C 
ENDBRANCH   8  11
ENDBRANCH   7   8
ENDBRANCH   1   7
BRANCH   6  13
ATOM     13  N   LIG d   1       0.780  80.301 116.954  0.00  0.00    -0.311 N 
ATOM     14  C   LIG d   1       1.950  80.914 116.780  0.00  0.00     0.210 C 
ATOM     15  C   LIG d   1       1.985  82.379 117.224  0.00  0.00     0.109 C 
ATOM     16  O   LIG d   1       2.954  80.391 116.272  0.00  0.00    -0.276 OA
ATOM     17  H   LIG d   1       0.011  80.810 117.343  0.00  0.00     0.149 HD
ENDBRANCH   6  13
BRANCH   5  18
ATOM     18  N   LIG d   1      -0.683  79.336 114.451  0.00  0.00     0.381 N 
ATOM     19  H   LIG d   1      -1.565  79.247 113.988  0.00  0.00    -0.090 HD
ATOM     20  H   LIG d   1       0.015  78.878 113.892  0.00  0.00    -0.090 HD
ATOM     21  H   LIG d   1      -0.453  80.299 114.560  0.00  0.00    -0.090 HD
ENDBRANCH   5  18
BRANCH   3  22
ATOM     22  C   LIG d   1      -1.661  75.263 116.774  0.00  0.00     0.382 C 
ATOM     23  O   LIG d   1      -1.175  74.227 117.288  0.00  0.00    -0.241 OA
ATOM     24  O   LIG d   1      -2.806  75.226 116.284  0.00  0.00    -0.241 OA
ENDBRANCH   3  22
TORSDOF 7
ENDMDL
MODEL 9
REMARK VINA RESULT:      -3.7      2.449      5.245
REMARK  7 active torsions:
REMARK  status: ('A' for Active; 'I' for Inactive)
REMARK    1  A    between atoms: C_2  and  C_3 
REMARK    2  A    between atoms: C_3  and  O_6 
REMARK    3  A    between atoms: C_3  and  C_4 
REMARK    4  A    between atoms: C_7  and  O_6 
REMARK    5  A    between atoms: C_9  and  C_10 
REMARK    6  A    between atoms: N_15  and  C_14 
REMARK    7  A    between atoms: N_20  and  C_19 
REMARK       I    between atoms: C_22  and  N_20 
ROOT
ATOM      1  C   LIG d   1      -0.679  78.320 116.405  0.00  0.00     0.161 C 
ATOM      2  C   LIG d   1       0.419  79.195 116.446  0.00  0.00     0.016 C 
ATOM      3  C   LIG d   1       1.424  79.136 117.440  0.00  0.00     0.038 C 
ATOM      4  C   LIG d   1       1.478  78.094 118.378  0.00  0.00     0.028 C 
ATOM      5  C   LIG d   1       0.115  77.483 118.684  0.00  0.00    -0.047 C 
ATOM      6  C   LIG d   1      -0.577  77.108 117.354  0.00  0.00     0.091 C 
ENDROOT
BRANCH   1   7
ATOM      7  O   LIG d   1      -0.900  77.878 115.051  0.00  0.00    -0.368 OA
BRANCH   7   8
ATOM      8  C   LIG d   1      -2.173  78.241 114.462  0.00  0.00     0.119 C 
BRANCH   8   9
ATOM      9  C   LIG d   1      -2.736  76.987 113.765  0.00  0.00     0.028 C 
ATOM     10  C   LIG d   1      -1.882  75.735 114.031  0.00  0.00     0.006 C 
ENDBRANCH   8   9
BRANCH   8  11
ATOM     11  C   LIG d   1      -1.996  79.278 113.348  0.00  0.00     0.028 C 
ATOM     12  C   LIG d   1      -2.366  78.731 111.960  0.00  0.00     0.006 C 
ENDBRANCH   8  11
ENDBRANCH   7   8
ENDBRANCH   1   7
BRANCH   6  13
ATOM     13  N   LIG d   1      -1.951  76.580 117.560  0.00  0.00    -0.311 N 
ATOM     14  C   LIG d   1      -2.245  75.281 117.563  0.00  0.00     0.210 C 
ATOM     15  C   LIG d   1      -3.727  74.954 117.772  0.00  0.00     0.109 C 
ATOM     16  O   LIG d   1      -1.414  74.368 117.446  0.00  0.00    -0.276 OA
ATOM     17  H   LIG d   1      -2.682  77.251 117.694  0.00  0.00     0.149 HD
ENDBRANCH   6  13
BRANCH   5  18
ATOM     18  N   LIG d   1       0.336  76.323 119.569  0.00  0.00     0.381 N 
ATOM     19  H   LIG d   1      -0.335  75.610 119.365  0.00  0.00    -0.090 HD
ATOM     20  H   LIG d   1       0.209  76.613 120.523  0.00  0.00    -0.090 HD
ATOM     21  H   LIG d   1       1.258  75.968 119.442  0.00  0.00    -0.090 HD
ENDBRANCH   5  18
BRANCH   3  22
ATOM     22  C   LIG d   1       2.366  80.150 117.525  0.00  0.00     0.382 C 
ATOM     23  O   LIG d   1       2.548  80.745 118.614  0.00  0.00    -0.241 OA
ATOM     24  O   LIG d   1       3.004  80.506 116.517  0.00  0.00    -0.241 OA
ENDBRANCH   3  22
TORSDOF 7
ENDMDL
