MODEL 1
REMARK VINA RESULT:      -5.7      0.000      0.000
REMARK  7 active torsions:
REMARK  status: ('A' for Active; 'I' for Inactive)
REMARK    1  A    between atoms: C_2  and  C_3 
REMARK    2  A    between atoms: C_3  and  O_6 
REMARK    3  A    between atoms: C_3  and  C_4 
REMARK    4  A    between atoms: C_7  and  O_6 
REMARK    5  A    between atoms: C_9  and  C_10 
REMARK    6  A    between atoms: N_15  and  C_14 
REMARK    7  A    between atoms: N_20  and  C_19 
REMARK       I    between atoms: C_22  and  N_20 
ROOT
ATOM      1  C   LIG d   1       0.049  83.090 112.189  0.00  0.00     0.161 C 
ATOM      2  C   LIG d   1      -1.119  82.540 112.744  0.00  0.00     0.016 C 
ATOM      3  C   LIG d   1      -1.484  81.182 112.601  0.00  0.00     0.038 C 
ATOM      4  C   LIG d   1      -0.624  80.241 112.016  0.00  0.00     0.028 C 
ATOM      5  C   LIG d   1       0.336  80.848 110.998  0.00  0.00    -0.047 C 
ATOM      6  C   LIG d   1       1.054  82.055 111.643  0.00  0.00     0.091 C 
ENDROOT
BRANCH   1   7
ATOM      7  O   LIG d   1       0.689  83.950 113.152  0.00  0.00    -0.368 OA
BRANCH   7   8
ATOM      8  C   LIG d   1       1.927  83.459 113.722  0.00  0.00     0.119 C 
BRANCH   8   9
ATOM      9  C   LIG d   1       1.593  82.849 115.098  0.00  0.00     0.028 C 
ATOM     10  C   LIG d   1       1.741  81.319 115.112  0.00  0.00     0.006 C 
ENDBRANCH   8   9
BRANCH   8  11
ATOM     11  C   LIG d   1       2.901  84.605 114.012  0.00  0.00     0.028 C 
ATOM     12  C   LIG d   1       4.053  84.680 112.998  0.00  0.00     0.006 C 
ENDBRANCH   8  11
ENDBRANCH   7   8
ENDBRANCH   1   7
BRANCH   6  13
ATOM     13  N   LIG d   1       1.950  82.758 110.688  0.00  0.00    -0.311 N 
ATOM     14  C   LIG d   1       3.198  82.371 110.432  0.00  0.00     0.210 C 
ATOM     15  C   LIG d   1       3.955  83.248 109.430  0.00  0.00     0.109 C 
ATOM     16  O   LIG d   1       3.740  81.366 110.916  0.00  0.00    -0.276 OA
ATOM     17  H   LIG d   1       1.580  83.566 110.227  0.00  0.00     0.149 HD
ENDBRANCH   6  13
BRANCH   5  18
ATOM     18  N   LIG d   1       1.264  79.783 110.570  0.00  0.00     0.381 N 
ATOM     19  H   LIG d   1       2.205  80.052 110.775  0.00  0.00    -0.090 HD
ATOM     20  H   LIG d   1       1.180  79.659 109.577  0.00  0.00    -0.090 HD
ATOM     21  H   LIG d   1       1.044  78.932 111.038  0.00  0.00    -0.090 HD
ENDBRANCH   5  18
BRANCH   3  22
ATOM     22  C   LIG d   1      -2.740  80.761 113.010  0.00  0.00     0.382 C 
ATOM     23  O   LIG d   1      -2.879  79.638 113.553  0.00  0.00    -0.241 OA
ATOM     24  O   LIG d   1      -3.743  81.470 112.803  0.00  0.00    -0.241 OA
ENDBRANCH   3  22
TORSDOF 7
ENDMDL
MODEL 2
REMARK VINA RESULT:      -5.5      1.853      4.900
REMARK  7 active torsions:
REMARK  status: ('A' for Active; 'I' for Inactive)
REMARK    1  A    between atoms: C_2  and  C_3 
REMARK    2  A    between atoms: C_3  and  O_6 
REMARK    3  A    between atoms: C_3  and  C_4 
REMARK    4  A    between atoms: C_7  and  O_6 
REMARK    5  A    between atoms: C_9  and  C_10 
REMARK    6  A    between atoms: N_15  and  C_14 
REMARK    7  A    between atoms: N_20  and  C_19 
REMARK       I    between atoms: C_22  and  N_20 
ROOT
ATOM      1  C   LIG d   1       1.012  81.182 112.587  0.00  0.00     0.161 C 
ATOM      2  C   LIG d   1       2.016  81.876 111.891  0.00  0.00     0.016 C 
ATOM      3  C   LIG d   1       2.174  81.816 110.487  0.00  0.00     0.038 C 
ATOM      4  C   LIG d   1       1.239  81.174 109.663  0.00  0.00     0.028 C 
ATOM      5  C   LIG d   1       0.494  80.040 110.360  0.00  0.00    -0.047 C 
ATOM      6  C   LIG d   1      -0.085  80.566 111.693  0.00  0.00     0.091 C 
ENDROOT
BRANCH   1   7
ATOM      7  O   LIG d   1       0.423  82.043 113.582  0.00  0.00    -0.368 OA
BRANCH   7   8
ATOM      8  C   LIG d   1       0.867  83.422 113.575  0.00  0.00     0.119 C 
BRANCH   8   9
ATOM      9  C   LIG d   1       1.268  83.786 115.018  0.00  0.00     0.028 C 
ATOM     10  C   LIG d   1       1.638  82.549 115.854  0.00  0.00     0.006 C 
ENDBRANCH   8   9
BRANCH   8  11
ATOM     11  C   LIG d   1      -0.278  84.374 113.220  0.00  0.00     0.028 C 
ATOM     12  C   LIG d   1      -0.553  84.439 111.709  0.00  0.00     0.006 C 
ENDBRANCH   8  11
ENDBRANCH   7   8
ENDBRANCH   1   7
BRANCH   6  13
ATOM     13  N   LIG d   1      -0.757  79.498 112.479  0.00  0.00    -0.311 N 
ATOM     14  C   LIG d   1      -2.037  79.553 112.846  0.00  0.00     0.210 C 
ATOM     15  C   LIG d   1      -2.526  78.357 113.668  0.00  0.00     0.109 C 
ATOM     16  O   LIG d   1      -2.821  80.464 112.541  0.00  0.00    -0.276 OA
ATOM     17  H   LIG d   1      -0.203  78.708 112.743  0.00  0.00     0.149 HD
ENDBRANCH   6  13
BRANCH   5  18
ATOM     18  N   LIG d   1      -0.543  79.551 109.432  0.00  0.00     0.381 N 
ATOM     19  H   LIG d   1      -1.431  79.936 109.684  0.00  0.00    -0.090 HD
ATOM     20  H   LIG d   1      -0.600  78.551 109.507  0.00  0.00    -0.090 HD
ATOM     21  H   LIG d   1      -0.314  79.809 108.498  0.00  0.00    -0.090 HD
ENDBRANCH   5  18
BRANCH   3  22
ATOM     22  C   LIG d   1       3.301  82.370 109.898  0.00  0.00     0.382 C 
ATOM     23  O   LIG d   1       3.405  83.616 109.794  0.00  0.00    -0.241 OA
ATOM     24  O   LIG d   1       4.193  81.639 109.430  0.00  0.00    -0.241 OA
ENDBRANCH   3  22
TORSDOF 7
ENDMDL
MODEL 3
REMARK VINA RESULT:      -4.9      1.771      4.878
REMARK  7 active torsions:
REMARK  status: ('A' for Active; 'I' for Inactive)
REMARK    1  A    between atoms: C_2  and  C_3 
REMARK    2  A    between atoms: C_3  and  O_6 
REMARK    3  A    between atoms: C_3  and  C_4 
REMARK    4  A    between atoms: C_7  and  O_6 
REMARK    5  A    between atoms: C_9  and  C_10 
REMARK    6  A    between atoms: N_15  and  C_14 
REMARK    7  A    between atoms: N_20  and  C_19 
REMARK       I    between atoms: C_22  and  N_20 
ROOT
ATOM      1  C   LIG d   1       1.227  81.744 112.636  0.00  0.00     0.161 C 
ATOM      2  C   LIG d   1       2.105  82.605 111.957  0.00  0.00     0.016 C 
ATOM      3  C   LIG d   1       2.222  82.646 110.549  0.00  0.00     0.038 C 
ATOM      4  C   LIG d   1       1.354  81.929 109.712  0.00  0.00     0.028 C 
ATOM      5  C   LIG d   1       0.793  80.667 110.359  0.00  0.00    -0.047 C 
ATOM      6  C   LIG d   1       0.193  81.034 111.736  0.00  0.00     0.091 C 
ENDROOT
BRANCH   1   7
ATOM      7  O   LIG d   1       0.561  82.460 113.695  0.00  0.00    -0.368 OA
BRANCH   7   8
ATOM      8  C   LIG d   1       1.098  82.270 115.027  0.00  0.00     0.119 C 
BRANCH   8   9
ATOM      9  C   LIG d   1       2.072  83.432 115.304  0.00  0.00     0.028 C 
ATOM     10  C   LIG d   1       1.567  84.368 116.415  0.00  0.00     0.006 C 
ENDBRANCH   8   9
BRANCH   8  11
ATOM     11  C   LIG d   1       1.949  80.999 115.110  0.00  0.00     0.028 C 
ATOM     12  C   LIG d   1       2.959  81.032 116.268  0.00  0.00     0.006 C 
ENDBRANCH   8  11
ENDBRANCH   7   8
ENDBRANCH   1   7
BRANCH   6  13
ATOM     13  N   LIG d   1      -0.303  79.844 112.474  0.00  0.00    -0.311 N 
ATOM     14  C   LIG d   1      -1.584  79.656 112.787  0.00  0.00     0.210 C 
ATOM     15  C   LIG d   1      -1.878  78.371 113.567  0.00  0.00     0.109 C 
ATOM     16  O   LIG d   1      -2.509  80.416 112.464  0.00  0.00    -0.276 OA
ATOM     17  H   LIG d   1       0.376  79.161 112.747  0.00  0.00     0.149 HD
ENDBRANCH   6  13
BRANCH   5  18
ATOM     18  N   LIG d   1      -0.200  80.094 109.431  0.00  0.00     0.381 N 
ATOM     19  H   LIG d   1      -0.875  79.561 109.943  0.00  0.00    -0.090 HD
ATOM     20  H   LIG d   1       0.271  79.476 108.793  0.00  0.00    -0.090 HD
ATOM     21  H   LIG d   1      -0.655  80.822 108.925  0.00  0.00    -0.090 HD
ENDBRANCH   5  18
BRANCH   3  22
ATOM     22  C   LIG d   1       3.243  83.380 109.965  0.00  0.00     0.382 C 
ATOM     23  O   LIG d   1       4.283  82.801 109.566  0.00  0.00    -0.241 OA
ATOM     24  O   LIG d   1       3.157  84.619 109.872  0.00  0.00    -0.241 OA
ENDBRANCH   3  22
TORSDOF 7
ENDMDL
MODEL 4
REMARK VINA RESULT:      -4.6      1.361      2.166
REMARK  7 active torsions:
REMARK  status: ('A' for Active; 'I' for Inactive)
REMARK    1  A    between atoms: C_2  and  C_3 
REMARK    2  A    between atoms: C_3  and  O_6 
REMARK    3  A    between atoms: C_3  and  C_4 
REMARK    4  A    between atoms: C_7  and  O_6 
REMARK    5  A    between atoms: C_9  and  C_10 
REMARK    6  A    between atoms: N_15  and  C_14 
REMARK    7  A    between atoms: N_20  and  C_19 
REMARK       I    between atoms: C_22  and  N_20 
ROOT
ATOM      1  C   LIG d   1       1.316  81.988 112.538  0.00  0.00     0.161 C 
ATOM      2  C   LIG d   1      -0.013  81.808 112.956  0.00  0.00     0.016 C 
ATOM      3  C   LIG d   1      -0.886  80.853 112.385  0.00  0.00     0.038 C 
ATOM      4  C   LIG d   1      -0.439  79.904 111.454  0.00  0.00     0.028 C 
ATOM      5  C   LIG d   1       0.760  80.374 110.637  0.00  0.00    -0.047 C 
ATOM      6  C   LIG d   1       1.854  80.886 111.601  0.00  0.00     0.091 C 
ENDROOT
BRANCH   1   7
ATOM      7  O   LIG d   1       2.174  82.131 113.688  0.00  0.00    -0.368 OA
BRANCH   7   8
ATOM      8  C   LIG d   1       1.520  82.092 114.980  0.00  0.00     0.119 C 
BRANCH   8   9
ATOM      9  C   LIG d   1       2.027  83.300 115.791  0.00  0.00     0.028 C 
ATOM     10  C   LIG d   1       2.704  84.360 114.906  0.00  0.00     0.006 C 
ENDBRANCH   8   9
BRANCH   8  11
ATOM     11  C   LIG d   1       1.943  80.859 115.782  0.00  0.00     0.028 C 
ATOM     12  C   LIG d   1       3.296  81.042 116.488  0.00  0.00     0.006 C 
ENDBRANCH   8  11
ENDBRANCH   7   8
ENDBRANCH   1   7
BRANCH   6  13
ATOM     13  N   LIG d   1       3.029  81.443 110.881  0.00  0.00    -0.311 N 
ATOM     14  C   LIG d   1       2.966  82.516 110.094  0.00  0.00     0.210 C 
ATOM     15  C   LIG d   1       4.289  82.911 109.431  0.00  0.00     0.109 C 
ATOM     16  O   LIG d   1       1.946  83.198 109.909  0.00  0.00    -0.276 OA
ATOM     17  H   LIG d   1       3.903  80.970 111.000  0.00  0.00     0.149 HD
ENDBRANCH   6  13
BRANCH   5  18
ATOM     18  N   LIG d   1       1.206  79.239 109.807  0.00  0.00     0.381 N 
ATOM     19  H   LIG d   1       1.336  79.541 108.862  0.00  0.00    -0.090 HD
ATOM     20  H   LIG d   1       0.495  78.530 109.816  0.00  0.00    -0.090 HD
ATOM     21  H   LIG d   1       2.059  78.869 110.165  0.00  0.00    -0.090 HD
ENDBRANCH   5  18
BRANCH   3  22
ATOM     22  C   LIG d   1      -2.232  80.868 112.715  0.00  0.00     0.382 C 
ATOM     23  O   LIG d   1      -2.765  81.927 113.127  0.00  0.00    -0.241 OA
ATOM     24  O   LIG d   1      -2.911  79.826 112.650  0.00  0.00    -0.241 OA
ENDBRANCH   3  22
TORSDOF 7
ENDMDL
MODEL 5
REMARK VINA RESULT:      -4.4      2.697      5.401
REMARK  7 active torsions:
REMARK  status: ('A' for Active; 'I' for Inactive)
REMARK    1  A    between atoms: C_2  and  C_3 
REMARK    2  A    between atoms: C_3  and  O_6 
REMARK    3  A    between atoms: C_3  and  C_4 
REMARK    4  A    between atoms: C_7  and  O_6 
REMARK    5  A    between atoms: C_9  and  C_10 
REMARK    6  A    between atoms: N_15  and  C_14 
REMARK    7  A    between atoms: N_20  and  C_19 
REMARK       I    between atoms: C_22  and  N_20 
ROOT
ATOM      1  C   LIG d   1      -0.191  81.624 113.291  0.00  0.00     0.161 C 
ATOM      2  C   LIG d   1      -0.461  82.316 112.098  0.00  0.00     0.016 C 
ATOM      3  C   LIG d   1       0.298  83.422 111.651  0.00  0.00     0.038 C 
ATOM      4  C   LIG d   1       1.479  83.819 112.295  0.00  0.00     0.028 C 
ATOM      5  C   LIG d   1       1.508  83.469 113.779  0.00  0.00    -0.047 C 
ATOM      6  C   LIG d   1       1.161  81.972 113.948  0.00  0.00     0.091 C 
ENDROOT
BRANCH   1   7
ATOM      7  O   LIG d   1      -0.286  80.203 113.063  0.00  0.00    -0.368 OA
BRANCH   7   8
ATOM      8  C   LIG d   1      -1.494  79.742 112.410  0.00  0.00     0.119 C 
BRANCH   8   9
ATOM      9  C   LIG d   1      -2.281  78.900 113.433  0.00  0.00     0.028 C 
ATOM     10  C   LIG d   1      -1.358  78.130 114.393  0.00  0.00     0.006 C 
ENDBRANCH   8   9
BRANCH   8  11
ATOM     11  C   LIG d   1      -1.173  78.785 111.258  0.00  0.00     0.028 C 
ATOM     12  C   LIG d   1      -2.341  77.843 110.923  0.00  0.00     0.006 C 
ENDBRANCH   8  11
ENDBRANCH   7   8
ENDBRANCH   1   7
BRANCH   6  13
ATOM     13  N   LIG d   1       1.084  81.566 115.376  0.00  0.00    -0.311 N 
ATOM     14  C   LIG d   1       2.086  80.975 116.025  0.00  0.00     0.210 C 
ATOM     15  C   LIG d   1       1.791  80.622 117.486  0.00  0.00     0.109 C 
ATOM     16  O   LIG d   1       3.202  80.739 115.538  0.00  0.00    -0.276 OA
ATOM     17  H   LIG d   1       0.225  81.749 115.857  0.00  0.00     0.149 HD
ENDBRANCH   6  13
BRANCH   5  18
ATOM     18  N   LIG d   1       2.847  83.814 114.292  0.00  0.00     0.381 N 
ATOM     19  H   LIG d   1       3.549  83.401 113.711  0.00  0.00    -0.090 HD
ATOM     20  H   LIG d   1       2.946  83.440 115.219  0.00  0.00    -0.090 HD
ATOM     21  H   LIG d   1       2.961  84.803 114.311  0.00  0.00    -0.090 HD
ENDBRANCH   5  18
BRANCH   3  22
ATOM     22  C   LIG d   1      -0.147  84.168 110.571  0.00  0.00     0.382 C 
ATOM     23  O   LIG d   1       0.613  84.370 109.593  0.00  0.00    -0.241 OA
ATOM     24  O   LIG d   1      -1.283  84.680 110.581  0.00  0.00    -0.241 OA
ENDBRANCH   3  22
TORSDOF 7
ENDMDL
MODEL 6
REMARK VINA RESULT:      -4.3      5.835      7.836
REMARK  7 active torsions:
REMARK  status: ('A' for Active; 'I' for Inactive)
REMARK    1  A    between atoms: C_2  and  C_3 
REMARK    2  A    between atoms: C_3  and  O_6 
REMARK    3  A    between atoms: C_3  and  C_4 
REMARK    4  A    between atoms: C_7  and  O_6 
REMARK    5  A    between atoms: C_9  and  C_10 
REMARK    6  A    between atoms: N_15  and  C_14 
REMARK    7  A    between atoms: N_20  and  C_19 
REMARK       I    between atoms: C_22  and  N_20 
ROOT
ATOM      1  C   LIG d   1      -0.820  77.350 116.351  0.00  0.00     0.161 C 
ATOM      2  C   LIG d   1      -1.421  77.816 115.170  0.00  0.00     0.016 C 
ATOM      3  C   LIG d   1      -2.477  77.141 114.515  0.00  0.00     0.038 C 
ATOM      4  C   LIG d   1      -3.110  76.027 115.085  0.00  0.00     0.028 C 
ATOM      5  C   LIG d   1      -2.208  75.230 116.020  0.00  0.00    -0.047 C 
ATOM      6  C   LIG d   1      -1.571  76.195 117.046  0.00  0.00     0.091 C 
ENDROOT
BRANCH   1   7
ATOM      7  O   LIG d   1      -0.629  78.446 117.267  0.00  0.00    -0.368 OA
BRANCH   7   8
ATOM      8  C   LIG d   1       0.734  78.687 117.696  0.00  0.00     0.119 C 
BRANCH   8   9
ATOM      9  C   LIG d   1       0.751  78.637 119.236  0.00  0.00     0.028 C 
ATOM     10  C   LIG d   1       1.853  77.714 119.781  0.00  0.00     0.006 C 
ENDBRANCH   8   9
BRANCH   8  11
ATOM     11  C   LIG d   1       1.191  80.103 117.331  0.00  0.00     0.028 C 
ATOM     12  C   LIG d   1       2.693  80.182 117.016  0.00  0.00     0.006 C 
ENDBRANCH   8  11
ENDBRANCH   7   8
ENDBRANCH   1   7
BRANCH   6  13
ATOM     13  N   LIG d   1      -0.608  75.510 117.947  0.00  0.00    -0.311 N 
ATOM     14  C   LIG d   1      -0.939  75.027 119.144  0.00  0.00     0.210 C 
ATOM     15  C   LIG d   1       0.210  74.376 119.919  0.00  0.00     0.109 C 
ATOM     16  O   LIG d   1      -2.083  75.047 119.622  0.00  0.00    -0.276 OA
ATOM     17  H   LIG d   1       0.335  75.422 117.624  0.00  0.00     0.149 HD
ENDBRANCH   6  13
BRANCH   5  18
ATOM     18  N   LIG d   1      -3.032  74.180 116.648  0.00  0.00     0.381 N 
ATOM     19  H   LIG d   1      -2.444  73.449 116.995  0.00  0.00    -0.090 HD
ATOM     20  H   LIG d   1      -3.645  73.789 115.954  0.00  0.00    -0.090 HD
ATOM     21  H   LIG d   1      -3.568  74.567 117.394  0.00  0.00    -0.090 HD
ENDBRANCH   5  18
BRANCH   3  22
ATOM     22  C   LIG d   1      -2.885  77.559 113.258  0.00  0.00     0.382 C 
ATOM     23  O   LIG d   1      -3.979  77.163 112.789  0.00  0.00    -0.241 OA
ATOM     24  O   LIG d   1      -2.151  78.292 112.567  0.00  0.00    -0.241 OA
ENDBRANCH   3  22
TORSDOF 7
ENDMDL
MODEL 7
REMARK VINA RESULT:      -4.2      2.768      5.602
REMARK  7 active torsions:
REMARK  status: ('A' for Active; 'I' for Inactive)
REMARK    1  A    between atoms: C_2  and  C_3 
REMARK    2  A    between atoms: C_3  and  O_6 
REMARK    3  A    between atoms: C_3  and  C_4 
REMARK    4  A    between atoms: C_7  and  O_6 
REMARK    5  A    between atoms: C_9  and  C_10 
REMARK    6  A    between atoms: N_15  and  C_14 
REMARK    7  A    between atoms: N_20  and  C_19 
REMARK       I    between atoms: C_22  and  N_20 
ROOT
ATOM      1  C   LIG d   1       1.677  84.207 113.982  0.00  0.00     0.161 C 
ATOM      2  C   LIG d   1       2.792  84.619 114.732  0.00  0.00     0.016 C 
ATOM      3  C   LIG d   1       3.459  83.784 115.657  0.00  0.00     0.038 C 
ATOM      4  C   LIG d   1       3.147  82.422 115.786  0.00  0.00     0.028 C 
ATOM      5  C   LIG d   1       1.704  82.094 115.419  0.00  0.00    -0.047 C 
ATOM      6  C   LIG d   1       1.392  82.692 114.028  0.00  0.00     0.091 C 
ENDROOT
BRANCH   1   7
ATOM      7  O   LIG d   1       1.815  84.651 112.618  0.00  0.00    -0.368 OA
BRANCH   7   8
ATOM      8  C   LIG d   1       2.345  83.679 111.682  0.00  0.00     0.119 C 
BRANCH   8   9
ATOM      9  C   LIG d   1       3.787  84.102 111.342  0.00  0.00     0.028 C 
ATOM     10  C   LIG d   1       4.264  83.530 109.996  0.00  0.00     0.006 C 
ENDBRANCH   8   9
BRANCH   8  11
ATOM     11  C   LIG d   1       1.586  83.715 110.352  0.00  0.00     0.028 C 
ATOM     12  C   LIG d   1       0.161  84.273 110.494  0.00  0.00     0.006 C 
ENDBRANCH   8  11
ENDBRANCH   7   8
ENDBRANCH   1   7
BRANCH   6  13
ATOM     13  N   LIG d   1      -0.025  82.489 113.629  0.00  0.00    -0.311 N 
ATOM     14  C   LIG d   1      -0.429  81.500 112.833  0.00  0.00     0.210 C 
ATOM     15  C   LIG d   1      -1.930  81.485 112.531  0.00  0.00     0.109 C 
ATOM     16  O   LIG d   1       0.310  80.615 112.375  0.00  0.00    -0.276 OA
ATOM     17  H   LIG d   1      -0.697  83.143 113.981  0.00  0.00     0.149 HD
ENDBRANCH   6  13
BRANCH   5  18
ATOM     18  N   LIG d   1       1.555  80.628 115.465  0.00  0.00     0.381 N 
ATOM     19  H   LIG d   1       2.124  80.252 116.197  0.00  0.00    -0.090 HD
ATOM     20  H   LIG d   1       1.868  80.241 114.592  0.00  0.00    -0.090 HD
ATOM     21  H   LIG d   1       0.600  80.387 115.619  0.00  0.00    -0.090 HD
ENDBRANCH   5  18
BRANCH   3  22
ATOM     22  C   LIG d   1       4.425  84.321 116.495  0.00  0.00     0.382 C 
ATOM     23  O   LIG d   1       5.615  84.406 116.107  0.00  0.00    -0.241 OA
ATOM     24  O   LIG d   1       4.129  84.680 117.651  0.00  0.00    -0.241 OA
ENDBRANCH   3  22
TORSDOF 7
ENDMDL
MODEL 8
REMARK VINA RESULT:      -3.7      5.565      7.462
REMARK  7 active torsions:
REMARK  status: ('A' for Active; 'I' for Inactive)
REMARK    1  A    between atoms: C_2  and  C_3 
REMARK    2  A    between atoms: C_3  and  O_6 
REMARK    3  A    between atoms: C_3  and  C_4 
REMARK    4  A    between atoms: C_7  and  O_6 
REMARK    5  A    between atoms: C_9  and  C_10 
REMARK    6  A    between atoms: N_15  and  C_14 
REMARK    7  A    between atoms: N_20  and  C_19 
REMARK       I    between atoms: C_22  and  N_20 
ROOT
ATOM      1  C   LIG d   1      -1.284  77.827 116.684  0.00  0.00     0.161 C 
ATOM      2  C   LIG d   1      -1.468  77.164 117.909  0.00  0.00     0.016 C 
ATOM      3  C   LIG d   1      -1.390  75.760 118.054  0.00  0.00     0.038 C 
ATOM      4  C   LIG d   1      -0.972  74.929 117.004  0.00  0.00     0.028 C 
ATOM      5  C   LIG d   1      -1.267  75.503 115.622  0.00  0.00    -0.047 C 
ATOM      6  C   LIG d   1      -0.718  76.946 115.551  0.00  0.00     0.091 C 
ENDROOT
BRANCH   1   7
ATOM      7  O   LIG d   1      -0.455  78.990 116.877  0.00  0.00    -0.368 OA
BRANCH   7   8
ATOM      8  C   LIG d   1       0.329  79.019 118.095  0.00  0.00     0.119 C 
BRANCH   8   9
ATOM      9  C   LIG d   1       0.126  80.403 118.743  0.00  0.00     0.028 C 
ATOM     10  C   LIG d   1      -1.231  80.523 119.456  0.00  0.00     0.006 C 
ENDBRANCH   8   9
BRANCH   8  11
ATOM     11  C   LIG d   1       1.828  78.927 117.795  0.00  0.00     0.028 C 
ATOM     12  C   LIG d   1       2.465  77.636 118.332  0.00  0.00     0.006 C 
ENDBRANCH   8  11
ENDBRANCH   7   8
ENDBRANCH   1   7
BRANCH   6  13
ATOM     13  N   LIG d   1      -1.038  77.611 114.261  0.00  0.00    -0.311 N 
ATOM     14  C   LIG d   1      -2.280  77.892 113.870  0.00  0.00     0.210 C 
ATOM     15  C   LIG d   1      -2.389  78.561 112.496  0.00  0.00     0.109 C 
ATOM     16  O   LIG d   1      -3.299  77.679 114.543  0.00  0.00    -0.276 OA
ATOM     17  H   LIG d   1      -0.268  77.847 113.666  0.00  0.00     0.149 HD
ENDBRANCH   6  13
BRANCH   5  18
ATOM     18  N   LIG d   1      -0.657  74.602 114.626  0.00  0.00     0.381 N 
ATOM     19  H   LIG d   1      -0.974  74.847 113.709  0.00  0.00    -0.090 HD
ATOM     20  H   LIG d   1      -0.947  73.660 114.819  0.00  0.00    -0.090 HD
ATOM     21  H   LIG d   1       0.337  74.667 114.670  0.00  0.00    -0.090 HD
ENDBRANCH   5  18
BRANCH   3  22
ATOM     22  C   LIG d   1      -1.772  75.170 119.249  0.00  0.00     0.382 C 
ATOM     23  O   LIG d   1      -2.719  75.656 119.914  0.00  0.00    -0.241 OA
ATOM     24  O   LIG d   1      -1.154  74.184 119.693  0.00  0.00    -0.241 OA
ENDBRANCH   3  22
TORSDOF 7
ENDMDL
MODEL 9
REMARK VINA RESULT:      -3.7      4.690      7.524
REMARK  7 active torsions:
REMARK  status: ('A' for Active; 'I' for Inactive)
REMARK    1  A    between atoms: C_2  and  C_3 
REMARK    2  A    between atoms: C_3  and  O_6 
REMARK    3  A    between atoms: C_3  and  C_4 
REMARK    4  A    between atoms: C_7  and  O_6 
REMARK    5  A    between atoms: C_9  and  C_10 
REMARK    6  A    between atoms: N_15  and  C_14 
REMARK    7  A    between atoms: N_20  and  C_19 
REMARK       I    between atoms: C_22  and  N_20 
ROOT
ATOM      1  C   LIG d   1       1.979  80.502 117.328  0.00  0.00     0.161 C 
ATOM      2  C   LIG d   1       3.257  80.213 116.821  0.00  0.00     0.016 C 
ATOM      3  C   LIG d   1       3.884  78.954 116.963  0.00  0.00     0.038 C 
ATOM      4  C   LIG d   1       3.208  77.845 117.494  0.00  0.00     0.028 C 
ATOM      5  C   LIG d   1       2.102  78.222 118.473  0.00  0.00    -0.047 C 
ATOM      6  C   LIG d   1       1.182  79.273 117.811  0.00  0.00     0.091 C 
ENDROOT
BRANCH   1   7
ATOM      7  O   LIG d   1       1.220  81.238 116.348  0.00  0.00    -0.368 OA
BRANCH   7   8
ATOM      8  C   LIG d   1       1.895  81.516 115.096  0.00  0.00     0.119 C 
BRANCH   8   9
ATOM      9  C   LIG d   1       1.803  83.034 114.848  0.00  0.00     0.028 C 
ATOM     10  C   LIG d   1       1.590  83.829 116.147  0.00  0.00     0.006 C 
ENDBRANCH   8   9
BRANCH   8  11
ATOM     11  C   LIG d   1       1.167  80.867 113.915  0.00  0.00     0.028 C 
ATOM     12  C   LIG d   1       1.554  81.489 112.563  0.00  0.00     0.006 C 
ENDBRANCH   8  11
ENDBRANCH   7   8
ENDBRANCH   1   7
BRANCH   6  13
ATOM     13  N   LIG d   1       0.122  79.758 118.733  0.00  0.00    -0.311 N 
ATOM     14  C   LIG d   1      -1.116  79.267 118.750  0.00  0.00     0.210 C 
ATOM     15  C   LIG d   1      -2.059  79.923 119.763  0.00  0.00     0.109 C 
ATOM     16  O   LIG d   1      -1.514  78.327 118.044  0.00  0.00    -0.276 OA
ATOM     17  H   LIG d   1       0.367  80.498 119.361  0.00  0.00     0.149 HD
ENDBRANCH   6  13
BRANCH   5  18
ATOM     18  N   LIG d   1       1.392  76.982 118.842  0.00  0.00     0.381 N 
ATOM     19  H   LIG d   1       1.867  76.192 118.454  0.00  0.00    -0.090 HD
ATOM     20  H   LIG d   1       0.464  77.013 118.458  0.00  0.00    -0.090 HD
ATOM     21  H   LIG d   1       1.346  76.897 119.834  0.00  0.00    -0.090 HD
ENDBRANCH   5  18
BRANCH   3  22
ATOM     22  C   LIG d   1       5.216  78.806 116.608  0.00  0.00     0.382 C 
ATOM     23  O   LIG d   1       5.573  78.990 115.420  0.00  0.00    -0.241 OA
ATOM     24  O   LIG d   1       6.059  78.447 117.453  0.00  0.00    -0.241 OA
ENDBRANCH   3  22
TORSDOF 7
ENDMDL
