MODEL 1
REMARK VINA RESULT:      -5.8      0.000      0.000
REMARK  7 active torsions:
REMARK  status: ('A' for Active; 'I' for Inactive)
REMARK    1  A    between atoms: C_2  and  C_3 
REMARK    2  A    between atoms: C_3  and  O_6 
REMARK    3  A    between atoms: C_3  and  C_4 
REMARK    4  A    between atoms: C_7  and  O_6 
REMARK    5  A    between atoms: C_9  and  C_10 
REMARK    6  A    between atoms: N_15  and  C_14 
REMARK    7  A    between atoms: N_20  and  C_19 
REMARK       I    between atoms: C_22  and  N_20 
ROOT
ATOM      1  C   LIG d   1       1.576  81.002 112.384  0.00  0.00     0.161 C 
ATOM      2  C   LIG d   1       2.793  80.914 111.688  0.00  0.00     0.016 C 
ATOM      3  C   LIG d   1       2.929  80.269 110.437  0.00  0.00     0.038 C 
ATOM      4  C   LIG d   1       1.818  79.798 109.721  0.00  0.00     0.028 C 
ATOM      5  C   LIG d   1       0.641  79.415 110.612  0.00  0.00    -0.047 C 
ATOM      6  C   LIG d   1       0.332  80.591 111.568  0.00  0.00     0.091 C 
ENDROOT
BRANCH   1   7
ATOM      7  O   LIG d   1       1.410  82.333 112.913  0.00  0.00    -0.368 OA
BRANCH   7   8
ATOM      8  C   LIG d   1       1.991  83.405 112.131  0.00  0.00     0.119 C 
BRANCH   8   9
ATOM      9  C   LIG d   1       2.658  84.386 113.115  0.00  0.00     0.028 C 
ATOM     10  C   LIG d   1       4.155  84.094 113.310  0.00  0.00     0.006 C 
ENDBRANCH   8   9
BRANCH   8  11
ATOM     11  C   LIG d   1       0.910  84.221 111.415  0.00  0.00     0.028 C 
ATOM     12  C   LIG d   1       0.795  83.877 109.922  0.00  0.00     0.006 C 
ENDBRANCH   8  11
ENDBRANCH   7   8
ENDBRANCH   1   7
BRANCH   6  13
ATOM     13  N   LIG d   1      -0.752  80.268 112.531  0.00  0.00    -0.311 N 
ATOM     14  C   LIG d   1      -1.722  81.122 112.856  0.00  0.00     0.210 C 
ATOM     15  C   LIG d   1      -2.728  80.596 113.884  0.00  0.00     0.109 C 
ATOM     16  O   LIG d   1      -1.863  82.252 112.366  0.00  0.00    -0.276 OA
ATOM     17  H   LIG d   1      -0.733  79.360 112.953  0.00  0.00     0.149 HD
ENDBRANCH   6  13
BRANCH   5  18
ATOM     18  N   LIG d   1      -0.492  79.073 109.732  0.00  0.00     0.381 N 
ATOM     19  H   LIG d   1      -0.580  78.079 109.664  0.00  0.00    -0.090 HD
ATOM     20  H   LIG d   1      -0.310  79.437 108.813  0.00  0.00    -0.090 HD
ATOM     21  H   LIG d   1      -1.334  79.465 110.092  0.00  0.00    -0.090 HD
ENDBRANCH   5  18
BRANCH   3  22
ATOM     22  C   LIG d   1       4.192  80.056 109.908  0.00  0.00     0.382 C 
ATOM     23  O   LIG d   1       4.936  81.032 109.647  0.00  0.00    -0.241 OA
ATOM     24  O   LIG d   1       4.581  78.902 109.646  0.00  0.00    -0.241 OA
ENDBRANCH   3  22
TORSDOF 7
ENDMDL
MODEL 2
REMARK VINA RESULT:      -5.1      2.494      5.176
REMARK  7 active torsions:
REMARK  status: ('A' for Active; 'I' for Inactive)
REMARK    1  A    between atoms: C_2  and  C_3 
REMARK    2  A    between atoms: C_3  and  O_6 
REMARK    3  A    between atoms: C_3  and  C_4 
REMARK    4  A    between atoms: C_7  and  O_6 
REMARK    5  A    between atoms: C_9  and  C_10 
REMARK    6  A    between atoms: N_15  and  C_14 
REMARK    7  A    between atoms: N_20  and  C_19 
REMARK       I    between atoms: C_22  and  N_20 
ROOT
ATOM      1  C   LIG d   1      -0.290  80.952 112.089  0.00  0.00     0.161 C 
ATOM      2  C   LIG d   1      -1.369  80.132 112.460  0.00  0.00     0.016 C 
ATOM      3  C   LIG d   1      -1.620  78.866 111.883  0.00  0.00     0.038 C 
ATOM      4  C   LIG d   1      -0.715  78.264 110.996  0.00  0.00     0.028 C 
ATOM      5  C   LIG d   1       0.125  79.267 110.213  0.00  0.00    -0.047 C 
ATOM      6  C   LIG d   1       0.770  80.263 111.204  0.00  0.00     0.091 C 
ENDROOT
BRANCH   1   7
ATOM      7  O   LIG d   1       0.326  81.510 113.266  0.00  0.00    -0.368 OA
BRANCH   7   8
ATOM      8  C   LIG d   1       1.193  80.622 114.014  0.00  0.00     0.119 C 
BRANCH   8   9
ATOM      9  C   LIG d   1       0.575  80.441 115.413  0.00  0.00     0.028 C 
ATOM     10  C   LIG d   1      -0.055  79.051 115.602  0.00  0.00     0.006 C 
ENDBRANCH   8   9
BRANCH   8  11
ATOM     11  C   LIG d   1       2.566  81.257 114.256  0.00  0.00     0.028 C 
ATOM     12  C   LIG d   1       2.671  82.683 113.691  0.00  0.00     0.006 C 
ENDBRANCH   8  11
ENDBRANCH   7   8
ENDBRANCH   1   7
BRANCH   6  13
ATOM     13  N   LIG d   1       1.541  81.330 110.514  0.00  0.00    -0.311 N 
ATOM     14  C   LIG d   1       2.855  81.267 110.306  0.00  0.00     0.210 C 
ATOM     15  C   LIG d   1       3.456  82.483 109.593  0.00  0.00     0.109 C 
ATOM     16  O   LIG d   1       3.574  80.305 110.615  0.00  0.00    -0.276 OA
ATOM     17  H   LIG d   1       1.030  82.133 110.202  0.00  0.00     0.149 HD
ENDBRANCH   6  13
BRANCH   5  18
ATOM     18  N   LIG d   1       1.117  78.505 109.432  0.00  0.00     0.381 N 
ATOM     19  H   LIG d   1       0.747  78.296 108.526  0.00  0.00    -0.090 HD
ATOM     20  H   LIG d   1       1.305  77.637 109.903  0.00  0.00    -0.090 HD
ATOM     21  H   LIG d   1       1.958  79.031 109.342  0.00  0.00    -0.090 HD
ENDBRANCH   5  18
BRANCH   3  22
ATOM     22  C   LIG d   1      -2.807  78.207 112.161  0.00  0.00     0.382 C 
ATOM     23  O   LIG d   1      -3.375  78.378 113.267  0.00  0.00    -0.241 OA
ATOM     24  O   LIG d   1      -3.294  77.408 111.339  0.00  0.00    -0.241 OA
ENDBRANCH   3  22
TORSDOF 7
ENDMDL
MODEL 3
REMARK VINA RESULT:      -5.1      2.368      4.977
REMARK  7 active torsions:
REMARK  status: ('A' for Active; 'I' for Inactive)
REMARK    1  A    between atoms: C_2  and  C_3 
REMARK    2  A    between atoms: C_3  and  O_6 
REMARK    3  A    between atoms: C_3  and  C_4 
REMARK    4  A    between atoms: C_7  and  O_6 
REMARK    5  A    between atoms: C_9  and  C_10 
REMARK    6  A    between atoms: N_15  and  C_14 
REMARK    7  A    between atoms: N_20  and  C_19 
REMARK       I    between atoms: C_22  and  N_20 
ROOT
ATOM      1  C   LIG d   1       0.671  80.176 111.447  0.00  0.00     0.161 C 
ATOM      2  C   LIG d   1      -0.460  79.357 111.298  0.00  0.00     0.016 C 
ATOM      3  C   LIG d   1      -1.342  79.048 112.360  0.00  0.00     0.038 C 
ATOM      4  C   LIG d   1      -1.234  79.663 113.616  0.00  0.00     0.028 C 
ATOM      5  C   LIG d   1       0.186  80.105 113.954  0.00  0.00    -0.047 C 
ATOM      6  C   LIG d   1       0.743  80.945 112.782  0.00  0.00     0.091 C 
ENDROOT
BRANCH   1   7
ATOM      7  O   LIG d   1       0.762  81.090 110.336  0.00  0.00    -0.368 OA
BRANCH   7   8
ATOM      8  C   LIG d   1       1.876  80.888 109.433  0.00  0.00     0.119 C 
BRANCH   8   9
ATOM      9  C   LIG d   1       2.710  79.714 109.983  0.00  0.00     0.028 C 
ATOM     10  C   LIG d   1       4.223  79.958 109.853  0.00  0.00     0.006 C 
ENDBRANCH   8   9
BRANCH   8  11
ATOM     11  C   LIG d   1       2.821  82.093 109.434  0.00  0.00     0.028 C 
ATOM     12  C   LIG d   1       2.082  83.429 109.604  0.00  0.00     0.006 C 
ENDBRANCH   8  11
ENDBRANCH   7   8
ENDBRANCH   1   7
BRANCH   6  13
ATOM     13  N   LIG d   1       2.157  81.347 112.995  0.00  0.00    -0.311 N 
ATOM     14  C   LIG d   1       2.545  82.612 113.151  0.00  0.00     0.210 C 
ATOM     15  C   LIG d   1       4.053  82.808 113.338  0.00  0.00     0.109 C 
ATOM     16  O   LIG d   1       1.779  83.587 113.185  0.00  0.00    -0.276 OA
ATOM     17  H   LIG d   1       2.841  80.616 113.013  0.00  0.00     0.149 HD
ENDBRANCH   6  13
BRANCH   5  18
ATOM     18  N   LIG d   1       0.129  80.852 115.225  0.00  0.00     0.381 N 
ATOM     19  H   LIG d   1       0.837  81.559 115.235  0.00  0.00    -0.090 HD
ATOM     20  H   LIG d   1       0.307  80.217 115.984  0.00  0.00    -0.090 HD
ATOM     21  H   LIG d   1      -0.769  81.269 115.336  0.00  0.00    -0.090 HD
ENDBRANCH   5  18
BRANCH   3  22
ATOM     22  C   LIG d   1      -2.321  78.083 112.181  0.00  0.00     0.382 C 
ATOM     23  O   LIG d   1      -3.440  78.216 112.732  0.00  0.00    -0.241 OA
ATOM     24  O   LIG d   1      -2.085  77.060 111.512  0.00  0.00    -0.241 OA
ENDBRANCH   3  22
TORSDOF 7
ENDMDL
MODEL 4
REMARK VINA RESULT:      -4.9      1.509      2.277
REMARK  7 active torsions:
REMARK  status: ('A' for Active; 'I' for Inactive)
REMARK    1  A    between atoms: C_2  and  C_3 
REMARK    2  A    between atoms: C_3  and  O_6 
REMARK    3  A    between atoms: C_3  and  C_4 
REMARK    4  A    between atoms: C_7  and  O_6 
REMARK    5  A    between atoms: C_9  and  C_10 
REMARK    6  A    between atoms: N_15  and  C_14 
REMARK    7  A    between atoms: N_20  and  C_19 
REMARK       I    between atoms: C_22  and  N_20 
ROOT
ATOM      1  C   LIG d   1       2.034  81.238 112.848  0.00  0.00     0.161 C 
ATOM      2  C   LIG d   1       3.224  81.196 112.102  0.00  0.00     0.016 C 
ATOM      3  C   LIG d   1       3.277  80.816 110.741  0.00  0.00     0.038 C 
ATOM      4  C   LIG d   1       2.114  80.596 109.988  0.00  0.00     0.028 C 
ATOM      5  C   LIG d   1       0.926  80.136 110.826  0.00  0.00    -0.047 C 
ATOM      6  C   LIG d   1       0.743  81.110 112.013  0.00  0.00     0.091 C 
ENDROOT
BRANCH   1   7
ATOM      7  O   LIG d   1       1.999  82.439 113.644  0.00  0.00    -0.368 OA
BRANCH   7   8
ATOM      8  C   LIG d   1       3.223  82.778 114.342  0.00  0.00     0.119 C 
BRANCH   8   9
ATOM      9  C   LIG d   1       3.179  82.084 115.717  0.00  0.00     0.028 C 
ATOM     10  C   LIG d   1       4.217  80.956 115.839  0.00  0.00     0.006 C 
ENDBRANCH   8   9
BRANCH   8  11
ATOM     11  C   LIG d   1       3.294  84.277 114.646  0.00  0.00     0.028 C 
ATOM     12  C   LIG d   1       4.595  84.679 115.360  0.00  0.00     0.006 C 
ENDBRANCH   8  11
ENDBRANCH   7   8
ENDBRANCH   1   7
BRANCH   6  13
ATOM     13  N   LIG d   1      -0.346  80.685 112.931  0.00  0.00    -0.311 N 
ATOM     14  C   LIG d   1      -1.572  81.205 112.905  0.00  0.00     0.210 C 
ATOM     15  C   LIG d   1      -2.537  80.639 113.951  0.00  0.00     0.109 C 
ATOM     16  O   LIG d   1      -1.961  82.057 112.092  0.00  0.00    -0.276 OA
ATOM     17  H   LIG d   1      -0.126  79.975 113.602  0.00  0.00     0.149 HD
ENDBRANCH   6  13
BRANCH   5  18
ATOM     18  N   LIG d   1      -0.250  80.079 109.939  0.00  0.00     0.381 N 
ATOM     19  H   LIG d   1       0.009  80.357 109.013  0.00  0.00    -0.090 HD
ATOM     20  H   LIG d   1      -0.945  80.721 110.278  0.00  0.00    -0.090 HD
ATOM     21  H   LIG d   1      -0.622  79.155 109.924  0.00  0.00    -0.090 HD
ENDBRANCH   5  18
BRANCH   3  22
ATOM     22  C   LIG d   1       4.505  80.613 110.131  0.00  0.00     0.382 C 
ATOM     23  O   LIG d   1       5.256  81.590 109.893  0.00  0.00    -0.241 OA
ATOM     24  O   LIG d   1       4.853  79.471 109.776  0.00  0.00    -0.241 OA
ENDBRANCH   3  22
TORSDOF 7
ENDMDL
MODEL 5
REMARK VINA RESULT:      -4.8      2.347      3.677
REMARK  7 active torsions:
REMARK  status: ('A' for Active; 'I' for Inactive)
REMARK    1  A    between atoms: C_2  and  C_3 
REMARK    2  A    between atoms: C_3  and  O_6 
REMARK    3  A    between atoms: C_3  and  C_4 
REMARK    4  A    between atoms: C_7  and  O_6 
REMARK    5  A    between atoms: C_9  and  C_10 
REMARK    6  A    between atoms: N_15  and  C_14 
REMARK    7  A    between atoms: N_20  and  C_19 
REMARK       I    between atoms: C_22  and  N_20 
ROOT
ATOM      1  C   LIG d   1       1.614  80.963 113.233  0.00  0.00     0.161 C 
ATOM      2  C   LIG d   1       2.900  81.427 112.910  0.00  0.00     0.016 C 
ATOM      3  C   LIG d   1       3.262  81.882 111.621  0.00  0.00     0.038 C 
ATOM      4  C   LIG d   1       2.315  82.047 110.600  0.00  0.00     0.028 C 
ATOM      5  C   LIG d   1       1.114  81.117 110.732  0.00  0.00    -0.047 C 
ATOM      6  C   LIG d   1       0.539  81.240 112.162  0.00  0.00     0.091 C 
ENDROOT
BRANCH   1   7
ATOM      7  O   LIG d   1       1.205  81.504 114.505  0.00  0.00    -0.368 OA
BRANCH   7   8
ATOM      8  C   LIG d   1       1.207  80.580 115.621  0.00  0.00     0.119 C 
BRANCH   8   9
ATOM      9  C   LIG d   1      -0.255  80.395 116.072  0.00  0.00     0.028 C 
ATOM     10  C   LIG d   1      -0.751  78.952 115.874  0.00  0.00     0.006 C 
ENDBRANCH   8   9
BRANCH   8  11
ATOM     11  C   LIG d   1       1.933  81.173 116.833  0.00  0.00     0.028 C 
ATOM     12  C   LIG d   1       3.459  81.014 116.750  0.00  0.00     0.006 C 
ENDBRANCH   8  11
ENDBRANCH   7   8
ENDBRANCH   1   7
BRANCH   6  13
ATOM     13  N   LIG d   1      -0.588  80.301 112.403  0.00  0.00    -0.311 N 
ATOM     14  C   LIG d   1      -1.845  80.697 112.594  0.00  0.00     0.210 C 
ATOM     15  C   LIG d   1      -2.848  79.567 112.845  0.00  0.00     0.109 C 
ATOM     16  O   LIG d   1      -2.230  81.875 112.548  0.00  0.00    -0.276 OA
ATOM     17  H   LIG d   1      -0.370  79.324 112.425  0.00  0.00     0.149 HD
ENDBRANCH   6  13
BRANCH   5  18
ATOM     18  N   LIG d   1       0.144  81.489 109.685  0.00  0.00     0.381 N 
ATOM     19  H   LIG d   1      -0.519  80.750 109.559  0.00  0.00    -0.090 HD
ATOM     20  H   LIG d   1       0.636  81.623 108.819  0.00  0.00    -0.090 HD
ATOM     21  H   LIG d   1      -0.328  82.328 109.940  0.00  0.00    -0.090 HD
ENDBRANCH   5  18
BRANCH   3  22
ATOM     22  C   LIG d   1       4.593  82.140 111.333  0.00  0.00     0.382 C 
ATOM     23  O   LIG d   1       5.089  81.743 110.251  0.00  0.00    -0.241 OA
ATOM     24  O   LIG d   1       5.317  82.727 112.160  0.00  0.00    -0.241 OA
ENDBRANCH   3  22
TORSDOF 7
ENDMDL
MODEL 6
REMARK VINA RESULT:      -4.7      2.338      4.241
REMARK  7 active torsions:
REMARK  status: ('A' for Active; 'I' for Inactive)
REMARK    1  A    between atoms: C_2  and  C_3 
REMARK    2  A    between atoms: C_3  and  O_6 
REMARK    3  A    between atoms: C_3  and  C_4 
REMARK    4  A    between atoms: C_7  and  O_6 
REMARK    5  A    between atoms: C_9  and  C_10 
REMARK    6  A    between atoms: N_15  and  C_14 
REMARK    7  A    between atoms: N_20  and  C_19 
REMARK       I    between atoms: C_22  and  N_20 
ROOT
ATOM      1  C   LIG d   1       0.599  81.634 112.016  0.00  0.00     0.161 C 
ATOM      2  C   LIG d   1       1.779  82.067 111.389  0.00  0.00     0.016 C 
ATOM      3  C   LIG d   1       3.054  81.994 111.995  0.00  0.00     0.038 C 
ATOM      4  C   LIG d   1       3.257  81.340 113.219  0.00  0.00     0.028 C 
ATOM      5  C   LIG d   1       2.024  81.338 114.116  0.00  0.00    -0.047 C 
ATOM      6  C   LIG d   1       0.815  80.816 113.307  0.00  0.00     0.091 C 
ENDROOT
BRANCH   1   7
ATOM      7  O   LIG d   1      -0.207  80.891 111.081  0.00  0.00    -0.368 OA
BRANCH   7   8
ATOM      8  C   LIG d   1       0.051  79.467 111.008  0.00  0.00     0.119 C 
BRANCH   8   9
ATOM      9  C   LIG d   1       0.498  79.151 109.568  0.00  0.00     0.028 C 
ATOM     10  C   LIG d   1       2.029  79.082 109.431  0.00  0.00     0.006 C 
ENDBRANCH   8   9
BRANCH   8  11
ATOM     11  C   LIG d   1      -1.231  78.656 111.222  0.00  0.00     0.028 C 
ATOM     12  C   LIG d   1      -0.986  77.139 111.209  0.00  0.00     0.006 C 
ENDBRANCH   8  11
ENDBRANCH   7   8
ENDBRANCH   1   7
BRANCH   6  13
ATOM     13  N   LIG d   1      -0.450  80.861 114.085  0.00  0.00    -0.311 N 
ATOM     14  C   LIG d   1      -0.947  79.812 114.737  0.00  0.00     0.210 C 
ATOM     15  C   LIG d   1      -2.273  80.069 115.460  0.00  0.00     0.109 C 
ATOM     16  O   LIG d   1      -0.400  78.701 114.812  0.00  0.00    -0.276 OA
ATOM     17  H   LIG d   1      -0.943  81.732 114.104  0.00  0.00     0.149 HD
ENDBRANCH   6  13
BRANCH   5  18
ATOM     18  N   LIG d   1       2.333  80.508 115.296  0.00  0.00     0.381 N 
ATOM     19  H   LIG d   1       3.322  80.479 115.441  0.00  0.00    -0.090 HD
ATOM     20  H   LIG d   1       2.012  79.571 115.126  0.00  0.00    -0.090 HD
ATOM     21  H   LIG d   1       1.882  80.880 116.102  0.00  0.00    -0.090 HD
ENDBRANCH   5  18
BRANCH   3  22
ATOM     22  C   LIG d   1       4.138  82.615 111.392  0.00  0.00     0.382 C 
ATOM     23  O   LIG d   1       4.147  82.795 110.151  0.00  0.00    -0.241 OA
ATOM     24  O   LIG d   1       5.126  82.958 112.069  0.00  0.00    -0.241 OA
ENDBRANCH   3  22
TORSDOF 7
ENDMDL
MODEL 7
REMARK VINA RESULT:      -4.5      3.333      5.870
REMARK  7 active torsions:
REMARK  status: ('A' for Active; 'I' for Inactive)
REMARK    1  A    between atoms: C_2  and  C_3 
REMARK    2  A    between atoms: C_3  and  O_6 
REMARK    3  A    between atoms: C_3  and  C_4 
REMARK    4  A    between atoms: C_7  and  O_6 
REMARK    5  A    between atoms: C_9  and  C_10 
REMARK    6  A    between atoms: N_15  and  C_14 
REMARK    7  A    between atoms: N_20  and  C_19 
REMARK       I    between atoms: C_22  and  N_20 
ROOT
ATOM      1  C   LIG d   1      -1.375  80.491 113.859  0.00  0.00     0.161 C 
ATOM      2  C   LIG d   1      -2.287  79.429 113.972  0.00  0.00     0.016 C 
ATOM      3  C   LIG d   1      -2.296  78.314 113.102  0.00  0.00     0.038 C 
ATOM      4  C   LIG d   1      -1.290  78.112 112.146  0.00  0.00     0.028 C 
ATOM      5  C   LIG d   1      -0.643  79.406 111.664  0.00  0.00    -0.047 C 
ATOM      6  C   LIG d   1      -0.200  80.234 112.892  0.00  0.00     0.091 C 
ENDROOT
BRANCH   1   7
ATOM      7  O   LIG d   1      -0.880  80.851 115.164  0.00  0.00    -0.368 OA
BRANCH   7   8
ATOM      8  C   LIG d   1      -1.105  79.885 116.220  0.00  0.00     0.119 C 
BRANCH   8   9
ATOM      9  C   LIG d   1      -1.331  80.671 117.526  0.00  0.00     0.028 C 
ATOM     10  C   LIG d   1      -0.149  81.593 117.868  0.00  0.00     0.006 C 
ENDBRANCH   8   9
BRANCH   8  11
ATOM     11  C   LIG d   1       0.142  79.032 116.471  0.00  0.00     0.028 C 
ATOM     12  C   LIG d   1      -0.105  77.533 116.240  0.00  0.00     0.006 C 
ENDBRANCH   8  11
ENDBRANCH   7   8
ENDBRANCH   1   7
BRANCH   6  13
ATOM     13  N   LIG d   1       0.367  81.554 112.512  0.00  0.00    -0.311 N 
ATOM     14  C   LIG d   1      -0.329  82.494 111.874  0.00  0.00     0.210 C 
ATOM     15  C   LIG d   1       0.452  83.774 111.559  0.00  0.00     0.109 C 
ATOM     16  O   LIG d   1      -1.527  82.402 111.568  0.00  0.00    -0.276 OA
ATOM     17  H   LIG d   1       1.324  81.725 112.750  0.00  0.00     0.149 HD
ENDBRANCH   6  13
BRANCH   5  18
ATOM     18  N   LIG d   1       0.478  79.041 110.778  0.00  0.00     0.381 N 
ATOM     19  H   LIG d   1       1.243  78.697 111.323  0.00  0.00    -0.090 HD
ATOM     20  H   LIG d   1       0.785  79.862 110.287  0.00  0.00    -0.090 HD
ATOM     21  H   LIG d   1       0.185  78.346 110.127  0.00  0.00    -0.090 HD
ENDBRANCH   5  18
BRANCH   3  22
ATOM     22  C   LIG d   1      -3.344  77.408 113.157  0.00  0.00     0.382 C 
ATOM     23  O   LIG d   1      -4.371  77.593 112.460  0.00  0.00    -0.241 OA
ATOM     24  O   LIG d   1      -3.294  76.431 113.929  0.00  0.00    -0.241 OA
ENDBRANCH   3  22
TORSDOF 7
ENDMDL
MODEL 8
REMARK VINA RESULT:      -4.4      3.906      6.746
REMARK  7 active torsions:
REMARK  status: ('A' for Active; 'I' for Inactive)
REMARK    1  A    between atoms: C_2  and  C_3 
REMARK    2  A    between atoms: C_3  and  O_6 
REMARK    3  A    between atoms: C_3  and  C_4 
REMARK    4  A    between atoms: C_7  and  O_6 
REMARK    5  A    between atoms: C_9  and  C_10 
REMARK    6  A    between atoms: N_15  and  C_14 
REMARK    7  A    between atoms: N_20  and  C_19 
REMARK       I    between atoms: C_22  and  N_20 
ROOT
ATOM      1  C   LIG d   1      -2.331  78.998 114.960  0.00  0.00     0.161 C 
ATOM      2  C   LIG d   1      -2.051  80.218 114.320  0.00  0.00     0.016 C 
ATOM      3  C   LIG d   1      -1.428  80.308 113.054  0.00  0.00     0.038 C 
ATOM      4  C   LIG d   1      -1.178  79.173 112.269  0.00  0.00     0.028 C 
ATOM      5  C   LIG d   1      -0.982  77.901 113.087  0.00  0.00    -0.047 C 
ATOM      6  C   LIG d   1      -2.166  77.749 114.069  0.00  0.00     0.091 C 
ENDROOT
BRANCH   1   7
ATOM      7  O   LIG d   1      -3.655  79.038 115.528  0.00  0.00    -0.368 OA
BRANCH   7   8
ATOM      8  C   LIG d   1      -3.726  79.071 116.975  0.00  0.00     0.119 C 
BRANCH   8   9
ATOM      9  C   LIG d   1      -4.205  80.478 117.383  0.00  0.00     0.028 C 
ATOM     10  C   LIG d   1      -3.350  81.086 118.507  0.00  0.00     0.006 C 
ENDBRANCH   8   9
BRANCH   8  11
ATOM     11  C   LIG d   1      -2.339  78.916 117.605  0.00  0.00     0.028 C 
ATOM     12  C   LIG d   1      -2.201  77.630 118.435  0.00  0.00     0.006 C 
ENDBRANCH   8  11
ENDBRANCH   7   8
ENDBRANCH   1   7
BRANCH   6  13
ATOM     13  N   LIG d   1      -2.011  76.575 114.967  0.00  0.00    -0.311 N 
ATOM     14  C   LIG d   1      -2.945  75.636 115.114  0.00  0.00     0.210 C 
ATOM     15  C   LIG d   1      -2.591  74.522 116.104  0.00  0.00     0.109 C 
ATOM     16  O   LIG d   1      -4.019  75.604 114.496  0.00  0.00    -0.276 OA
ATOM     17  H   LIG d   1      -1.157  76.505 115.484  0.00  0.00     0.149 HD
ENDBRANCH   6  13
BRANCH   5  18
ATOM     18  N   LIG d   1      -0.868  76.775 112.141  0.00  0.00     0.381 N 
ATOM     19  H   LIG d   1      -0.435  77.087 111.294  0.00  0.00    -0.090 HD
ATOM     20  H   LIG d   1      -1.790  76.442 111.919  0.00  0.00    -0.090 HD
ATOM     21  H   LIG d   1      -0.330  76.042 112.547  0.00  0.00    -0.090 HD
ENDBRANCH   5  18
BRANCH   3  22
ATOM     22  C   LIG d   1      -1.012  81.542 112.579  0.00  0.00     0.382 C 
ATOM     23  O   LIG d   1      -1.822  82.287 111.976  0.00  0.00    -0.241 OA
ATOM     24  O   LIG d   1       0.174  81.902 112.707  0.00  0.00    -0.241 OA
ENDBRANCH   3  22
TORSDOF 7
ENDMDL
MODEL 9
REMARK VINA RESULT:      -4.3      2.541      4.024
REMARK  7 active torsions:
REMARK  status: ('A' for Active; 'I' for Inactive)
REMARK    1  A    between atoms: C_2  and  C_3 
REMARK    2  A    between atoms: C_3  and  O_6 
REMARK    3  A    between atoms: C_3  and  C_4 
REMARK    4  A    between atoms: C_7  and  O_6 
REMARK    5  A    between atoms: C_9  and  C_10 
REMARK    6  A    between atoms: N_15  and  C_14 
REMARK    7  A    between atoms: N_20  and  C_19 
REMARK       I    between atoms: C_22  and  N_20 
ROOT
ATOM      1  C   LIG d   1       0.433  80.313 113.446  0.00  0.00     0.161 C 
ATOM      2  C   LIG d   1       1.656  81.003 113.392  0.00  0.00     0.016 C 
ATOM      3  C   LIG d   1       2.306  81.341 112.183  0.00  0.00     0.038 C 
ATOM      4  C   LIG d   1       1.698  81.143 110.934  0.00  0.00     0.028 C 
ATOM      5  C   LIG d   1       0.694  79.996 110.924  0.00  0.00    -0.047 C 
ATOM      6  C   LIG d   1      -0.299  80.187 112.094  0.00  0.00     0.091 C 
ENDROOT
BRANCH   1   7
ATOM      7  O   LIG d   1      -0.428  80.922 114.428  0.00  0.00    -0.368 OA
BRANCH   7   8
ATOM      8  C   LIG d   1      -0.655  80.159 115.638  0.00  0.00     0.119 C 
BRANCH   8   9
ATOM      9  C   LIG d   1       0.264  80.739 116.730  0.00  0.00     0.028 C 
ATOM     10  C   LIG d   1      -0.527  81.349 117.900  0.00  0.00     0.006 C 
ENDBRANCH   8   9
BRANCH   8  11
ATOM     11  C   LIG d   1      -0.214  78.702 115.469  0.00  0.00     0.028 C 
ATOM     12  C   LIG d   1      -1.316  77.698 115.845  0.00  0.00     0.006 C 
ENDBRANCH   8  11
ENDBRANCH   7   8
ENDBRANCH   1   7
BRANCH   6  13
ATOM     13  N   LIG d   1      -1.264  79.063 112.207  0.00  0.00    -0.311 N 
ATOM     14  C   LIG d   1      -2.556  79.232 112.486  0.00  0.00     0.210 C 
ATOM     15  C   LIG d   1      -3.372  77.938 112.577  0.00  0.00     0.109 C 
ATOM     16  O   LIG d   1      -3.110  80.331 112.635  0.00  0.00    -0.276 OA
ATOM     17  H   LIG d   1      -0.906  78.139 112.070  0.00  0.00     0.149 HD
ENDBRANCH   6  13
BRANCH   5  18
ATOM     18  N   LIG d   1       0.037  79.991 109.603  0.00  0.00     0.381 N 
ATOM     19  H   LIG d   1      -0.407  79.107 109.449  0.00  0.00    -0.090 HD
ATOM     20  H   LIG d   1       0.735  80.121 108.892  0.00  0.00    -0.090 HD
ATOM     21  H   LIG d   1      -0.638  80.722 109.555  0.00  0.00    -0.090 HD
ENDBRANCH   5  18
BRANCH   3  22
ATOM     22  C   LIG d   1       3.596  81.847 112.215  0.00  0.00     0.382 C 
ATOM     23  O   LIG d   1       4.443  81.357 113.000  0.00  0.00    -0.241 OA
ATOM     24  O   LIG d   1       3.912  82.818 111.500  0.00  0.00    -0.241 OA
ENDBRANCH   3  22
TORSDOF 7
ENDMDL
