MODEL 1
REMARK VINA RESULT:      -4.8      0.000      0.000
REMARK  7 active torsions:
REMARK  status: ('A' for Active; 'I' for Inactive)
REMARK    1  A    between atoms: C_2  and  C_3 
REMARK    2  A    between atoms: C_3  and  O_6 
REMARK    3  A    between atoms: C_3  and  C_4 
REMARK    4  A    between atoms: C_7  and  O_6 
REMARK    5  A    between atoms: C_9  and  C_10 
REMARK    6  A    between atoms: N_15  and  C_14 
REMARK    7  A    between atoms: N_20  and  C_19 
REMARK       I    between atoms: C_22  and  N_20 
ROOT
ATOM      1  C   LIG d   1       1.538  81.545 112.611  0.00  0.00     0.161 C 
ATOM      2  C   LIG d   1       2.404  82.424 111.939  0.00  0.00     0.016 C 
ATOM      3  C   LIG d   1       2.362  82.640 110.542  0.00  0.00     0.038 C 
ATOM      4  C   LIG d   1       1.346  82.103 109.739  0.00  0.00     0.028 C 
ATOM      5  C   LIG d   1       0.755  80.811 110.292  0.00  0.00    -0.047 C 
ATOM      6  C   LIG d   1       0.351  81.035 111.767  0.00  0.00     0.091 C 
ENDROOT
BRANCH   1   7
ATOM      7  O   LIG d   1       1.062  82.161 113.824  0.00  0.00    -0.368 OA
BRANCH   7   8
ATOM      8  C   LIG d   1       1.974  82.139 114.950  0.00  0.00     0.119 C 
BRANCH   8   9
ATOM      9  C   LIG d   1       1.650  80.884 115.784  0.00  0.00     0.028 C 
ATOM     10  C   LIG d   1       2.914  80.115 116.202  0.00  0.00     0.006 C 
ENDBRANCH   8   9
BRANCH   8  11
ATOM     11  C   LIG d   1       1.728  83.324 115.889  0.00  0.00     0.028 C 
ATOM     12  C   LIG d   1       2.010  84.680 115.224  0.00  0.00     0.006 C 
ENDBRANCH   8  11
ENDBRANCH   7   8
ENDBRANCH   1   7
BRANCH   6  13
ATOM     13  N   LIG d   1      -0.158  79.796 112.411  0.00  0.00    -0.311 N 
ATOM     14  C   LIG d   1      -1.425  79.635 112.791  0.00  0.00     0.210 C 
ATOM     15  C   LIG d   1      -1.735  78.288 113.452  0.00  0.00     0.109 C 
ATOM     16  O   LIG d   1      -2.328  80.466 112.615  0.00  0.00    -0.276 OA
ATOM     17  H   LIG d   1       0.500  79.057 112.563  0.00  0.00     0.149 HD
ENDBRANCH   6  13
BRANCH   5  18
ATOM     18  N   LIG d   1      -0.383  80.436 109.432  0.00  0.00     0.381 N 
ATOM     19  H   LIG d   1      -0.262  80.829 108.520  0.00  0.00    -0.090 HD
ATOM     20  H   LIG d   1      -1.227  80.811 109.827  0.00  0.00    -0.090 HD
ATOM     21  H   LIG d   1      -0.449  79.444 109.367  0.00  0.00    -0.090 HD
ENDBRANCH   5  18
BRANCH   3  22
ATOM     22  C   LIG d   1       3.370  83.370 109.930  0.00  0.00     0.382 C 
ATOM     23  O   LIG d   1       4.363  82.780 109.441  0.00  0.00    -0.241 OA
ATOM     24  O   LIG d   1       3.319  84.614 109.899  0.00  0.00    -0.241 OA
ENDBRANCH   3  22
TORSDOF 7
ENDMDL
MODEL 2
REMARK VINA RESULT:      -4.4      1.947      4.659
REMARK  7 active torsions:
REMARK  status: ('A' for Active; 'I' for Inactive)
REMARK    1  A    between atoms: C_2  and  C_3 
REMARK    2  A    between atoms: C_3  and  O_6 
REMARK    3  A    between atoms: C_3  and  C_4 
REMARK    4  A    between atoms: C_7  and  O_6 
REMARK    5  A    between atoms: C_9  and  C_10 
REMARK    6  A    between atoms: N_15  and  C_14 
REMARK    7  A    between atoms: N_20  and  C_19 
REMARK       I    between atoms: C_22  and  N_20 
ROOT
ATOM      1  C   LIG d   1       0.146  81.617 111.795  0.00  0.00     0.161 C 
ATOM      2  C   LIG d   1      -0.605  80.432 111.868  0.00  0.00     0.016 C 
ATOM      3  C   LIG d   1      -0.249  79.242 111.192  0.00  0.00     0.038 C 
ATOM      4  C   LIG d   1       0.972  79.112 110.514  0.00  0.00     0.028 C 
ATOM      5  C   LIG d   1       1.520  80.436 109.993  0.00  0.00    -0.047 C 
ATOM      6  C   LIG d   1       1.539  81.461 111.150  0.00  0.00     0.091 C 
ENDROOT
BRANCH   1   7
ATOM      7  O   LIG d   1       0.265  82.203 113.107  0.00  0.00    -0.368 OA
BRANCH   7   8
ATOM      8  C   LIG d   1       1.569  82.112 113.730  0.00  0.00     0.119 C 
BRANCH   8   9
ATOM      9  C   LIG d   1       1.541  80.905 114.688  0.00  0.00     0.028 C 
ATOM     10  C   LIG d   1       2.121  81.242 116.073  0.00  0.00     0.006 C 
ENDBRANCH   8   9
BRANCH   8  11
ATOM     11  C   LIG d   1       1.849  83.328 114.618  0.00  0.00     0.028 C 
ATOM     12  C   LIG d   1       2.969  84.224 114.065  0.00  0.00     0.006 C 
ENDBRANCH   8  11
ENDBRANCH   7   8
ENDBRANCH   1   7
BRANCH   6  13
ATOM     13  N   LIG d   1       1.983  82.808 110.706  0.00  0.00    -0.311 N 
ATOM     14  C   LIG d   1       3.261  83.182 110.663  0.00  0.00     0.210 C 
ATOM     15  C   LIG d   1       3.498  84.621 110.194  0.00  0.00     0.109 C 
ATOM     16  O   LIG d   1       4.222  82.448 110.937  0.00  0.00    -0.276 OA
ATOM     17  H   LIG d   1       1.270  83.457 110.436  0.00  0.00     0.149 HD
ENDBRANCH   6  13
BRANCH   5  18
ATOM     18  N   LIG d   1       2.858  80.174 109.430  0.00  0.00     0.381 N 
ATOM     19  H   LIG d   1       2.780  79.568 108.638  0.00  0.00    -0.090 HD
ATOM     20  H   LIG d   1       3.419  79.714 110.125  0.00  0.00    -0.090 HD
ATOM     21  H   LIG d   1       3.289  81.031 109.160  0.00  0.00    -0.090 HD
ENDBRANCH   5  18
BRANCH   3  22
ATOM     22  C   LIG d   1      -1.138  78.179 111.158  0.00  0.00     0.382 C 
ATOM     23  O   LIG d   1      -0.721  77.020 110.922  0.00  0.00    -0.241 OA
ATOM     24  O   LIG d   1      -2.359  78.372 111.316  0.00  0.00    -0.241 OA
ENDBRANCH   3  22
TORSDOF 7
ENDMDL
MODEL 3
REMARK VINA RESULT:      -4.2      2.738      5.923
REMARK  7 active torsions:
REMARK  status: ('A' for Active; 'I' for Inactive)
REMARK    1  A    between atoms: C_2  and  C_3 
REMARK    2  A    between atoms: C_3  and  O_6 
REMARK    3  A    between atoms: C_3  and  C_4 
REMARK    4  A    between atoms: C_7  and  O_6 
REMARK    5  A    between atoms: C_9  and  C_10 
REMARK    6  A    between atoms: N_15  and  C_14 
REMARK    7  A    between atoms: N_20  and  C_19 
REMARK       I    between atoms: C_22  and  N_20 
ROOT
ATOM      1  C   LIG d   1      -0.015  80.147 112.990  0.00  0.00     0.161 C 
ATOM      2  C   LIG d   1      -1.082  79.556 112.294  0.00  0.00     0.016 C 
ATOM      3  C   LIG d   1      -2.009  78.673 112.894  0.00  0.00     0.038 C 
ATOM      4  C   LIG d   1      -2.021  78.439 114.277  0.00  0.00     0.028 C 
ATOM      5  C   LIG d   1      -0.657  78.618 114.934  0.00  0.00    -0.047 C 
ATOM      6  C   LIG d   1      -0.078  79.991 114.524  0.00  0.00     0.091 C 
ENDROOT
BRANCH   1   7
ATOM      7  O   LIG d   1       0.090  81.540 112.632  0.00  0.00    -0.368 OA
BRANCH   7   8
ATOM      8  C   LIG d   1       0.249  81.824 111.221  0.00  0.00     0.119 C 
BRANCH   8   9
ATOM      9  C   LIG d   1       1.755  81.761 110.902  0.00  0.00     0.028 C 
ATOM     10  C   LIG d   1       2.213  82.918 109.999  0.00  0.00     0.006 C 
ENDBRANCH   8   9
BRANCH   8  11
ATOM     11  C   LIG d   1      -0.175  83.259 110.890  0.00  0.00     0.028 C 
ATOM     12  C   LIG d   1      -0.732  84.011 112.109  0.00  0.00     0.006 C 
ENDBRANCH   8  11
ENDBRANCH   7   8
ENDBRANCH   1   7
BRANCH   6  13
ATOM     13  N   LIG d   1       1.292  80.211 115.055  0.00  0.00    -0.311 N 
ATOM     14  C   LIG d   1       1.542  80.839 116.203  0.00  0.00     0.210 C 
ATOM     15  C   LIG d   1       3.027  80.975 116.556  0.00  0.00     0.109 C 
ATOM     16  O   LIG d   1       0.674  81.268 116.978  0.00  0.00    -0.276 OA
ATOM     17  H   LIG d   1       2.055  79.867 114.505  0.00  0.00     0.149 HD
ENDBRANCH   6  13
BRANCH   5  18
ATOM     18  N   LIG d   1      -0.841  78.479 116.391  0.00  0.00     0.381 N 
ATOM     19  H   LIG d   1      -1.709  78.896 116.663  0.00  0.00    -0.090 HD
ATOM     20  H   LIG d   1      -0.097  78.964 116.860  0.00  0.00    -0.090 HD
ATOM     21  H   LIG d   1      -0.833  77.516 116.646  0.00  0.00    -0.090 HD
ENDBRANCH   5  18
BRANCH   3  22
ATOM     22  C   LIG d   1      -2.913  77.983 112.101  0.00  0.00     0.382 C 
ATOM     23  O   LIG d   1      -4.027  77.644 112.570  0.00  0.00    -0.241 OA
ATOM     24  O   LIG d   1      -2.612  77.656 110.938  0.00  0.00    -0.241 OA
ENDBRANCH   3  22
TORSDOF 7
ENDMDL
MODEL 4
REMARK VINA RESULT:      -4.2      5.116      7.047
REMARK  7 active torsions:
REMARK  status: ('A' for Active; 'I' for Inactive)
REMARK    1  A    between atoms: C_2  and  C_3 
REMARK    2  A    between atoms: C_3  and  O_6 
REMARK    3  A    between atoms: C_3  and  C_4 
REMARK    4  A    between atoms: C_7  and  O_6 
REMARK    5  A    between atoms: C_9  and  C_10 
REMARK    6  A    between atoms: N_15  and  C_14 
REMARK    7  A    between atoms: N_20  and  C_19 
REMARK       I    between atoms: C_22  and  N_20 
ROOT
ATOM      1  C   LIG d   1      -2.646  78.340 116.178  0.00  0.00     0.161 C 
ATOM      2  C   LIG d   1      -2.903  79.285 115.171  0.00  0.00     0.016 C 
ATOM      3  C   LIG d   1      -2.432  79.158 113.844  0.00  0.00     0.038 C 
ATOM      4  C   LIG d   1      -1.794  77.993 113.393  0.00  0.00     0.028 C 
ATOM      5  C   LIG d   1      -1.071  77.231 114.499  0.00  0.00    -0.047 C 
ATOM      6  C   LIG d   1      -2.047  77.009 115.676  0.00  0.00     0.091 C 
ENDROOT
BRANCH   1   7
ATOM      7  O   LIG d   1      -3.847  78.094 116.936  0.00  0.00    -0.368 OA
BRANCH   7   8
ATOM      8  C   LIG d   1      -3.965  78.808 118.191  0.00  0.00     0.119 C 
BRANCH   8   9
ATOM      9  C   LIG d   1      -2.549  79.257 118.603  0.00  0.00     0.028 C 
ATOM     10  C   LIG d   1      -2.538  80.664 119.224  0.00  0.00     0.006 C 
ENDBRANCH   8   9
BRANCH   8  11
ATOM     11  C   LIG d   1      -4.440  77.883 119.316  0.00  0.00     0.028 C 
ATOM     12  C   LIG d   1      -3.317  76.990 119.868  0.00  0.00     0.006 C 
ENDBRANCH   8  11
ENDBRANCH   7   8
ENDBRANCH   1   7
BRANCH   6  13
ATOM     13  N   LIG d   1      -1.395  76.344 116.835  0.00  0.00    -0.311 N 
ATOM     14  C   LIG d   1      -1.433  75.029 117.042  0.00  0.00     0.210 C 
ATOM     15  C   LIG d   1      -0.713  74.553 118.308  0.00  0.00     0.109 C 
ATOM     16  O   LIG d   1      -1.966  74.208 116.281  0.00  0.00    -0.276 OA
ATOM     17  H   LIG d   1      -0.913  76.933 117.486  0.00  0.00     0.149 HD
ENDBRANCH   6  13
BRANCH   5  18
ATOM     18  N   LIG d   1      -0.570  75.971 113.917  0.00  0.00     0.381 N 
ATOM     19  H   LIG d   1       0.415  75.894 114.074  0.00  0.00    -0.090 HD
ATOM     20  H   LIG d   1      -0.731  75.984 112.926  0.00  0.00    -0.090 HD
ATOM     21  H   LIG d   1      -1.040  75.195 114.328  0.00  0.00    -0.090 HD
ENDBRANCH   5  18
BRANCH   3  22
ATOM     22  C   LIG d   1      -2.562  80.221 112.964  0.00  0.00     0.382 C 
ATOM     23  O   LIG d   1      -3.675  80.783 112.819  0.00  0.00    -0.241 OA
ATOM     24  O   LIG d   1      -1.592  80.596 112.279  0.00  0.00    -0.241 OA
ENDBRANCH   3  22
TORSDOF 7
ENDMDL
MODEL 5
REMARK VINA RESULT:      -4.1      4.687      6.374
REMARK  7 active torsions:
REMARK  status: ('A' for Active; 'I' for Inactive)
REMARK    1  A    between atoms: C_2  and  C_3 
REMARK    2  A    between atoms: C_3  and  O_6 
REMARK    3  A    between atoms: C_3  and  C_4 
REMARK    4  A    between atoms: C_7  and  O_6 
REMARK    5  A    between atoms: C_9  and  C_10 
REMARK    6  A    between atoms: N_15  and  C_14 
REMARK    7  A    between atoms: N_20  and  C_19 
REMARK       I    between atoms: C_22  and  N_20 
ROOT
ATOM      1  C   LIG d   1      -0.437  78.580 115.503  0.00  0.00     0.161 C 
ATOM      2  C   LIG d   1      -1.273  78.976 114.446  0.00  0.00     0.016 C 
ATOM      3  C   LIG d   1      -2.261  78.139 113.879  0.00  0.00     0.038 C 
ATOM      4  C   LIG d   1      -2.585  76.893 114.436  0.00  0.00     0.028 C 
ATOM      5  C   LIG d   1      -1.427  76.245 115.187  0.00  0.00    -0.047 C 
ATOM      6  C   LIG d   1      -0.851  77.265 116.197  0.00  0.00     0.091 C 
ENDROOT
BRANCH   1   7
ATOM      7  O   LIG d   1      -0.333  79.644 116.469  0.00  0.00    -0.368 OA
BRANCH   7   8
ATOM      8  C   LIG d   1       1.010  80.013 116.870  0.00  0.00     0.119 C 
BRANCH   8   9
ATOM      9  C   LIG d   1       0.910  81.327 117.668  0.00  0.00     0.028 C 
ATOM     10  C   LIG d   1      -0.412  81.444 118.445  0.00  0.00     0.006 C 
ENDBRANCH   8   9
BRANCH   8  11
ATOM     11  C   LIG d   1       1.883  80.341 115.655  0.00  0.00     0.028 C 
ATOM     12  C   LIG d   1       1.947  81.847 115.357  0.00  0.00     0.006 C 
ENDBRANCH   8  11
ENDBRANCH   7   8
ENDBRANCH   1   7
BRANCH   6  13
ATOM     13  N   LIG d   1       0.340  76.741 116.914  0.00  0.00    -0.311 N 
ATOM     14  C   LIG d   1       0.274  76.131 118.097  0.00  0.00     0.210 C 
ATOM     15  C   LIG d   1       1.623  75.685 118.671  0.00  0.00     0.109 C 
ATOM     16  O   LIG d   1      -0.776  75.887 118.709  0.00  0.00    -0.276 OA
ATOM     17  H   LIG d   1       1.231  76.868 116.474  0.00  0.00     0.149 HD
ENDBRANCH   6  13
BRANCH   5  18
ATOM     18  N   LIG d   1      -1.941  75.022 115.831  0.00  0.00     0.381 N 
ATOM     19  H   LIG d   1      -1.927  75.131 116.826  0.00  0.00    -0.090 HD
ATOM     20  H   LIG d   1      -1.343  74.251 115.590  0.00  0.00    -0.090 HD
ATOM     21  H   LIG d   1      -2.871  74.840 115.523  0.00  0.00    -0.090 HD
ENDBRANCH   5  18
BRANCH   3  22
ATOM     22  C   LIG d   1      -2.910  78.530 112.718  0.00  0.00     0.382 C 
ATOM     23  O   LIG d   1      -3.418  79.675 112.639  0.00  0.00    -0.241 OA
ATOM     24  O   LIG d   1      -3.033  77.737 111.765  0.00  0.00    -0.241 OA
ENDBRANCH   3  22
TORSDOF 7
ENDMDL
MODEL 6
REMARK VINA RESULT:      -4.1      5.267      7.601
REMARK  7 active torsions:
REMARK  status: ('A' for Active; 'I' for Inactive)
REMARK    1  A    between atoms: C_2  and  C_3 
REMARK    2  A    between atoms: C_3  and  O_6 
REMARK    3  A    between atoms: C_3  and  C_4 
REMARK    4  A    between atoms: C_7  and  O_6 
REMARK    5  A    between atoms: C_9  and  C_10 
REMARK    6  A    between atoms: N_15  and  C_14 
REMARK    7  A    between atoms: N_20  and  C_19 
REMARK       I    between atoms: C_22  and  N_20 
ROOT
ATOM      1  C   LIG d   1      -1.982  77.108 115.951  0.00  0.00     0.161 C 
ATOM      2  C   LIG d   1      -2.629  77.016 114.708  0.00  0.00     0.016 C 
ATOM      3  C   LIG d   1      -2.279  77.805 113.588  0.00  0.00     0.038 C 
ATOM      4  C   LIG d   1      -1.151  78.638 113.592  0.00  0.00     0.028 C 
ATOM      5  C   LIG d   1      -0.773  79.140 114.981  0.00  0.00    -0.047 C 
ATOM      6  C   LIG d   1      -0.677  77.932 115.941  0.00  0.00     0.091 C 
ENDROOT
BRANCH   1   7
ATOM      7  O   LIG d   1      -1.736  75.787 116.474  0.00  0.00    -0.368 OA
BRANCH   7   8
ATOM      8  C   LIG d   1      -2.537  75.395 117.616  0.00  0.00     0.119 C 
BRANCH   8   9
ATOM      9  C   LIG d   1      -3.282  76.649 118.112  0.00  0.00     0.028 C 
ATOM     10  C   LIG d   1      -2.988  76.961 119.589  0.00  0.00     0.006 C 
ENDBRANCH   8   9
BRANCH   8  11
ATOM     11  C   LIG d   1      -1.655  74.956 118.789  0.00  0.00     0.028 C 
ATOM     12  C   LIG d   1      -0.407  74.180 118.340  0.00  0.00     0.006 C 
ENDBRANCH   8  11
ENDBRANCH   7   8
ENDBRANCH   1   7
BRANCH   6  13
ATOM     13  N   LIG d   1      -0.393  78.342 117.342  0.00  0.00    -0.311 N 
ATOM     14  C   LIG d   1       0.616  77.852 118.059  0.00  0.00     0.210 C 
ATOM     15  C   LIG d   1       0.718  78.395 119.488  0.00  0.00     0.109 C 
ATOM     16  O   LIG d   1       1.456  77.043 117.637  0.00  0.00    -0.276 OA
ATOM     17  H   LIG d   1      -1.008  79.018 117.752  0.00  0.00     0.149 HD
ENDBRANCH   6  13
BRANCH   5  18
ATOM     18  N   LIG d   1       0.496  79.882 114.857  0.00  0.00     0.381 N 
ATOM     19  H   LIG d   1       1.159  79.335 114.345  0.00  0.00    -0.090 HD
ATOM     20  H   LIG d   1       0.867  80.047 115.776  0.00  0.00    -0.090 HD
ATOM     21  H   LIG d   1       0.340  80.749 114.393  0.00  0.00    -0.090 HD
ENDBRANCH   5  18
BRANCH   3  22
ATOM     22  C   LIG d   1      -3.087  77.794 112.461  0.00  0.00     0.382 C 
ATOM     23  O   LIG d   1      -4.335  77.773 112.584  0.00  0.00    -0.241 OA
ATOM     24  O   LIG d   1      -2.582  77.760 111.322  0.00  0.00    -0.241 OA
ENDBRANCH   3  22
TORSDOF 7
ENDMDL
MODEL 7
REMARK VINA RESULT:      -4.1      5.356      6.779
REMARK  7 active torsions:
REMARK  status: ('A' for Active; 'I' for Inactive)
REMARK    1  A    between atoms: C_2  and  C_3 
REMARK    2  A    between atoms: C_3  and  O_6 
REMARK    3  A    between atoms: C_3  and  C_4 
REMARK    4  A    between atoms: C_7  and  O_6 
REMARK    5  A    between atoms: C_9  and  C_10 
REMARK    6  A    between atoms: N_15  and  C_14 
REMARK    7  A    between atoms: N_20  and  C_19 
REMARK       I    between atoms: C_22  and  N_20 
ROOT
ATOM      1  C   LIG d   1      -0.348  78.177 116.000  0.00  0.00     0.161 C 
ATOM      2  C   LIG d   1      -1.007  79.005 115.077  0.00  0.00     0.016 C 
ATOM      3  C   LIG d   1      -2.101  78.577 114.291  0.00  0.00     0.038 C 
ATOM      4  C   LIG d   1      -2.710  77.328 114.484  0.00  0.00     0.028 C 
ATOM      5  C   LIG d   1      -1.764  76.274 115.049  0.00  0.00    -0.047 C 
ATOM      6  C   LIG d   1      -1.068  76.847 116.305  0.00  0.00     0.091 C 
ENDROOT
BRANCH   1   7
ATOM      7  O   LIG d   1      -0.101  78.904 117.220  0.00  0.00    -0.368 OA
BRANCH   7   8
ATOM      8  C   LIG d   1      -1.042  79.960 117.534  0.00  0.00     0.119 C 
BRANCH   8   9
ATOM      9  C   LIG d   1      -0.263  81.072 118.263  0.00  0.00     0.028 C 
ATOM     10  C   LIG d   1      -1.184  81.999 119.074  0.00  0.00     0.006 C 
ENDBRANCH   8   9
BRANCH   8  11
ATOM     11  C   LIG d   1      -2.100  79.484 118.534  0.00  0.00     0.028 C 
ATOM     12  C   LIG d   1      -3.478  79.271 117.887  0.00  0.00     0.006 C 
ENDBRANCH   8  11
ENDBRANCH   7   8
ENDBRANCH   1   7
BRANCH   6  13
ATOM     13  N   LIG d   1      -0.062  75.911 116.872  0.00  0.00    -0.311 N 
ATOM     14  C   LIG d   1      -0.034  75.554 118.155  0.00  0.00     0.210 C 
ATOM     15  C   LIG d   1       1.098  74.594 118.535  0.00  0.00     0.109 C 
ATOM     16  O   LIG d   1      -0.858  75.916 119.008  0.00  0.00    -0.276 OA
ATOM     17  H   LIG d   1       0.626  75.545 116.244  0.00  0.00     0.149 HD
ENDBRANCH   6  13
BRANCH   5  18
ATOM     18  N   LIG d   1      -2.560  75.065 115.330  0.00  0.00     0.381 N 
ATOM     19  H   LIG d   1      -1.989  74.251 115.222  0.00  0.00    -0.090 HD
ATOM     20  H   LIG d   1      -3.314  75.011 114.668  0.00  0.00    -0.090 HD
ATOM     21  H   LIG d   1      -2.924  75.104 116.257  0.00  0.00    -0.090 HD
ENDBRANCH   5  18
BRANCH   3  22
ATOM     22  C   LIG d   1      -2.572  79.388 113.269  0.00  0.00     0.382 C 
ATOM     23  O   LIG d   1      -3.253  80.407 113.541  0.00  0.00    -0.241 OA
ATOM     24  O   LIG d   1      -2.363  79.090 112.078  0.00  0.00    -0.241 OA
ENDBRANCH   3  22
TORSDOF 7
ENDMDL
MODEL 8
REMARK VINA RESULT:      -3.9      4.799      6.608
REMARK  7 active torsions:
REMARK  status: ('A' for Active; 'I' for Inactive)
REMARK    1  A    between atoms: C_2  and  C_3 
REMARK    2  A    between atoms: C_3  and  O_6 
REMARK    3  A    between atoms: C_3  and  C_4 
REMARK    4  A    between atoms: C_7  and  O_6 
REMARK    5  A    between atoms: C_9  and  C_10 
REMARK    6  A    between atoms: N_15  and  C_14 
REMARK    7  A    between atoms: N_20  and  C_19 
REMARK       I    between atoms: C_22  and  N_20 
ROOT
ATOM      1  C   LIG d   1      -1.057  77.557 115.666  0.00  0.00     0.161 C 
ATOM      2  C   LIG d   1      -1.294  78.201 114.440  0.00  0.00     0.016 C 
ATOM      3  C   LIG d   1      -2.414  77.929 113.622  0.00  0.00     0.038 C 
ATOM      4  C   LIG d   1      -3.460  77.097 114.049  0.00  0.00     0.028 C 
ATOM      5  C   LIG d   1      -3.020  76.039 115.055  0.00  0.00    -0.047 C 
ATOM      6  C   LIG d   1      -2.244  76.728 116.201  0.00  0.00     0.091 C 
ENDROOT
BRANCH   1   7
ATOM      7  O   LIG d   1      -0.635  78.521 116.651  0.00  0.00    -0.368 OA
BRANCH   7   8
ATOM      8  C   LIG d   1       0.795  78.655 116.839  0.00  0.00     0.119 C 
BRANCH   8   9
ATOM      9  C   LIG d   1       1.116  78.216 118.281  0.00  0.00     0.028 C 
ATOM     10  C   LIG d   1       1.602  76.759 118.356  0.00  0.00     0.006 C 
ENDBRANCH   8   9
BRANCH   8  11
ATOM     11  C   LIG d   1       1.233  80.121 116.755  0.00  0.00     0.028 C 
ATOM     12  C   LIG d   1       1.840  80.484 115.390  0.00  0.00     0.006 C 
ENDBRANCH   8  11
ENDBRANCH   7   8
ENDBRANCH   1   7
BRANCH   6  13
ATOM     13  N   LIG d   1      -1.705  75.755 117.186  0.00  0.00    -0.311 N 
ATOM     14  C   LIG d   1      -2.116  75.688 118.451  0.00  0.00     0.210 C 
ATOM     15  C   LIG d   1      -1.415  74.626 119.303  0.00  0.00     0.109 C 
ATOM     16  O   LIG d   1      -3.017  76.387 118.940  0.00  0.00    -0.276 OA
ATOM     17  H   LIG d   1      -0.992  75.129 116.865  0.00  0.00     0.149 HD
ENDBRANCH   6  13
BRANCH   5  18
ATOM     18  N   LIG d   1      -4.230  75.335 115.519  0.00  0.00     0.381 N 
ATOM     19  H   LIG d   1      -4.091  74.346 115.457  0.00  0.00    -0.090 HD
ATOM     20  H   LIG d   1      -5.000  75.583 114.922  0.00  0.00    -0.090 HD
ATOM     21  H   LIG d   1      -4.434  75.590 116.460  0.00  0.00    -0.090 HD
ENDBRANCH   5  18
BRANCH   3  22
ATOM     22  C   LIG d   1      -2.477  78.461 112.343  0.00  0.00     0.382 C 
ATOM     23  O   LIG d   1      -2.680  77.709 111.360  0.00  0.00    -0.241 OA
ATOM     24  O   LIG d   1      -2.288  79.678 112.155  0.00  0.00    -0.241 OA
ENDBRANCH   3  22
TORSDOF 7
ENDMDL
MODEL 9
REMARK VINA RESULT:      -3.9      4.625      7.526
REMARK  7 active torsions:
REMARK  status: ('A' for Active; 'I' for Inactive)
REMARK    1  A    between atoms: C_2  and  C_3 
REMARK    2  A    between atoms: C_3  and  O_6 
REMARK    3  A    between atoms: C_3  and  C_4 
REMARK    4  A    between atoms: C_7  and  O_6 
REMARK    5  A    between atoms: C_9  and  C_10 
REMARK    6  A    between atoms: N_15  and  C_14 
REMARK    7  A    between atoms: N_20  and  C_19 
REMARK       I    between atoms: C_22  and  N_20 
ROOT
ATOM      1  C   LIG d   1      -1.834  77.964 116.698  0.00  0.00     0.161 C 
ATOM      2  C   LIG d   1      -2.751  77.182 115.977  0.00  0.00     0.016 C 
ATOM      3  C   LIG d   1      -2.863  77.213 114.568  0.00  0.00     0.038 C 
ATOM      4  C   LIG d   1      -1.955  77.922 113.768  0.00  0.00     0.028 C 
ATOM      5  C   LIG d   1      -1.333  79.122 114.476  0.00  0.00    -0.047 C 
ATOM      6  C   LIG d   1      -0.761  78.661 115.836  0.00  0.00     0.091 C 
ENDROOT
BRANCH   1   7
ATOM      7  O   LIG d   1      -1.212  77.167 117.725  0.00  0.00    -0.368 OA
BRANCH   7   8
ATOM      8  C   LIG d   1      -0.691  75.881 117.306  0.00  0.00     0.119 C 
BRANCH   8   9
ATOM      9  C   LIG d   1      -1.444  74.796 118.099  0.00  0.00     0.028 C 
ATOM     10  C   LIG d   1      -1.814  75.257 119.519  0.00  0.00     0.006 C 
ENDBRANCH   8   9
BRANCH   8  11
ATOM     11  C   LIG d   1       0.781  75.722 117.697  0.00  0.00     0.028 C 
ATOM     12  C   LIG d   1       1.335  76.946 118.443  0.00  0.00     0.006 C 
ENDBRANCH   8  11
ENDBRANCH   7   8
ENDBRANCH   1   7
BRANCH   6  13
ATOM     13  N   LIG d   1      -0.208  79.789 116.630  0.00  0.00    -0.311 N 
ATOM     14  C   LIG d   1       1.067  80.168 116.576  0.00  0.00     0.210 C 
ATOM     15  C   LIG d   1       1.433  81.341 117.491  0.00  0.00     0.109 C 
ATOM     16  O   LIG d   1       1.924  79.665 115.834  0.00  0.00    -0.276 OA
ATOM     17  H   LIG d   1      -0.841  80.273 117.236  0.00  0.00     0.149 HD
ENDBRANCH   6  13
BRANCH   5  18
ATOM     18  N   LIG d   1      -0.307  79.686 113.578  0.00  0.00     0.381 N 
ATOM     19  H   LIG d   1       0.296  80.295 114.094  0.00  0.00    -0.090 HD
ATOM     20  H   LIG d   1      -0.762  80.225 112.863  0.00  0.00    -0.090 HD
ATOM     21  H   LIG d   1       0.224  78.952 113.164  0.00  0.00    -0.090 HD
ENDBRANCH   5  18
BRANCH   3  22
ATOM     22  C   LIG d   1      -3.917  76.560 113.948  0.00  0.00     0.382 C 
ATOM     23  O   LIG d   1      -4.321  75.459 114.392  0.00  0.00    -0.241 OA
ATOM     24  O   LIG d   1      -4.440  77.037 112.923  0.00  0.00    -0.241 OA
ENDBRANCH   3  22
TORSDOF 7
ENDMDL
