MODEL 1
REMARK VINA RESULT:      -5.2      0.000      0.000
REMARK  7 active torsions:
REMARK  status: ('A' for Active; 'I' for Inactive)
REMARK    1  A    between atoms: C_2  and  C_3 
REMARK    2  A    between atoms: C_3  and  O_6 
REMARK    3  A    between atoms: C_3  and  C_4 
REMARK    4  A    between atoms: C_7  and  O_6 
REMARK    5  A    between atoms: C_9  and  C_10 
REMARK    6  A    between atoms: N_15  and  C_14 
REMARK    7  A    between atoms: N_20  and  C_19 
REMARK       I    between atoms: C_22  and  N_20 
ROOT
ATOM      1  C   LIG d   1       0.918  81.677 112.790  0.00  0.00     0.161 C 
ATOM      2  C   LIG d   1       1.763  82.612 112.169  0.00  0.00     0.016 C 
ATOM      3  C   LIG d   1       1.916  82.713 110.767  0.00  0.00     0.038 C 
ATOM      4  C   LIG d   1       1.114  81.981 109.880  0.00  0.00     0.028 C 
ATOM      5  C   LIG d   1       0.608  80.666 110.464  0.00  0.00    -0.047 C 
ATOM      6  C   LIG d   1      -0.048  80.945 111.835  0.00  0.00     0.091 C 
ENDROOT
BRANCH   1   7
ATOM      7  O   LIG d   1       0.185  82.312 113.855  0.00  0.00    -0.368 OA
BRANCH   7   8
ATOM      8  C   LIG d   1       0.936  83.231 114.687  0.00  0.00     0.119 C 
BRANCH   8   9
ATOM      9  C   LIG d   1       1.396  82.453 115.936  0.00  0.00     0.028 C 
ATOM     10  C   LIG d   1       0.867  83.073 117.240  0.00  0.00     0.006 C 
ENDBRANCH   8   9
BRANCH   8  11
ATOM     11  C   LIG d   1       0.046  84.359 115.217  0.00  0.00     0.028 C 
ATOM     12  C   LIG d   1      -1.208  84.582 114.356  0.00  0.00     0.006 C 
ENDBRANCH   8  11
ENDBRANCH   7   8
ENDBRANCH   1   7
BRANCH   6  13
ATOM     13  N   LIG d   1      -0.495  79.701 112.514  0.00  0.00    -0.311 N 
ATOM     14  C   LIG d   1      -1.738  79.229 112.437  0.00  0.00     0.210 C 
ATOM     15  C   LIG d   1      -1.992  77.943 113.229  0.00  0.00     0.109 C 
ATOM     16  O   LIG d   1      -2.646  79.737 111.763  0.00  0.00    -0.276 OA
ATOM     17  H   LIG d   1       0.187  79.208 113.057  0.00  0.00     0.149 HD
ENDBRANCH   6  13
BRANCH   5  18
ATOM     18  N   LIG d   1      -0.324  80.073 109.486  0.00  0.00     0.381 N 
ATOM     19  H   LIG d   1      -1.152  80.632 109.426  0.00  0.00    -0.090 HD
ATOM     20  H   LIG d   1      -0.586  79.156 109.802  0.00  0.00    -0.090 HD
ATOM     21  H   LIG d   1       0.111  80.013 108.592  0.00  0.00    -0.090 HD
ENDBRANCH   5  18
BRANCH   3  22
ATOM     22  C   LIG d   1       2.909  83.525 110.241  0.00  0.00     0.382 C 
ATOM     23  O   LIG d   1       2.610  84.436 109.431  0.00  0.00    -0.241 OA
ATOM     24  O   LIG d   1       4.104  83.331 110.531  0.00  0.00    -0.241 OA
ENDBRANCH   3  22
TORSDOF 7
ENDMDL
MODEL 2
REMARK VINA RESULT:      -5.0      2.471      5.755
REMARK  7 active torsions:
REMARK  status: ('A' for Active; 'I' for Inactive)
REMARK    1  A    between atoms: C_2  and  C_3 
REMARK    2  A    between atoms: C_3  and  O_6 
REMARK    3  A    between atoms: C_3  and  C_4 
REMARK    4  A    between atoms: C_7  and  O_6 
REMARK    5  A    between atoms: C_9  and  C_10 
REMARK    6  A    between atoms: N_15  and  C_14 
REMARK    7  A    between atoms: N_20  and  C_19 
REMARK       I    between atoms: C_22  and  N_20 
ROOT
ATOM      1  C   LIG d   1       1.191  81.821 112.853  0.00  0.00     0.161 C 
ATOM      2  C   LIG d   1       0.117  80.988 112.497  0.00  0.00     0.016 C 
ATOM      3  C   LIG d   1      -1.238  81.336 112.699  0.00  0.00     0.038 C 
ATOM      4  C   LIG d   1      -1.618  82.615 113.135  0.00  0.00     0.028 C 
ATOM      5  C   LIG d   1      -0.555  83.307 113.981  0.00  0.00    -0.047 C 
ATOM      6  C   LIG d   1       0.794  83.264 113.226  0.00  0.00     0.091 C 
ENDROOT
BRANCH   1   7
ATOM      7  O   LIG d   1       2.173  81.829 111.798  0.00  0.00    -0.368 OA
BRANCH   7   8
ATOM      8  C   LIG d   1       1.657  81.919 110.447  0.00  0.00     0.119 C 
BRANCH   8   9
ATOM      9  C   LIG d   1       2.215  80.719 109.657  0.00  0.00     0.028 C 
ATOM     10  C   LIG d   1       3.690  80.435 109.986  0.00  0.00     0.006 C 
ENDBRANCH   8   9
BRANCH   8  11
ATOM     11  C   LIG d   1       2.191  83.162 109.728  0.00  0.00     0.028 C 
ATOM     12  C   LIG d   1       1.132  84.265 109.579  0.00  0.00     0.006 C 
ENDBRANCH   8  11
ENDBRANCH   7   8
ENDBRANCH   1   7
BRANCH   6  13
ATOM     13  N   LIG d   1       1.907  83.846 114.021  0.00  0.00    -0.311 N 
ATOM     14  C   LIG d   1       2.226  83.433 115.247  0.00  0.00     0.210 C 
ATOM     15  C   LIG d   1       3.395  84.180 115.897  0.00  0.00     0.109 C 
ATOM     16  O   LIG d   1       1.674  82.497 115.844  0.00  0.00    -0.276 OA
ATOM     17  H   LIG d   1       2.428  84.589 113.600  0.00  0.00     0.149 HD
ENDBRANCH   6  13
BRANCH   5  18
ATOM     18  N   LIG d   1      -1.023  84.679 114.251  0.00  0.00     0.381 N 
ATOM     19  H   LIG d   1      -1.080  84.830 115.238  0.00  0.00    -0.090 HD
ATOM     20  H   LIG d   1      -1.943  84.791 113.862  0.00  0.00    -0.090 HD
ATOM     21  H   LIG d   1      -0.399  85.339 113.841  0.00  0.00    -0.090 HD
ENDBRANCH   5  18
BRANCH   3  22
ATOM     22  C   LIG d   1      -2.229  80.387 112.502  0.00  0.00     0.382 C 
ATOM     23  O   LIG d   1      -3.175  80.289 113.320  0.00  0.00    -0.241 OA
ATOM     24  O   LIG d   1      -2.165  79.597 111.541  0.00  0.00    -0.241 OA
ENDBRANCH   3  22
TORSDOF 7
ENDMDL
MODEL 3
REMARK VINA RESULT:      -4.8      2.127      4.514
REMARK  7 active torsions:
REMARK  status: ('A' for Active; 'I' for Inactive)
REMARK    1  A    between atoms: C_2  and  C_3 
REMARK    2  A    between atoms: C_3  and  O_6 
REMARK    3  A    between atoms: C_3  and  C_4 
REMARK    4  A    between atoms: C_7  and  O_6 
REMARK    5  A    between atoms: C_9  and  C_10 
REMARK    6  A    between atoms: N_15  and  C_14 
REMARK    7  A    between atoms: N_20  and  C_19 
REMARK       I    between atoms: C_22  and  N_20 
ROOT
ATOM      1  C   LIG d   1      -0.351  82.236 111.935  0.00  0.00     0.161 C 
ATOM      2  C   LIG d   1       0.529  83.120 112.581  0.00  0.00     0.016 C 
ATOM      3  C   LIG d   1       1.020  82.912 113.890  0.00  0.00     0.038 C 
ATOM      4  C   LIG d   1       0.782  81.721 114.591  0.00  0.00     0.028 C 
ATOM      5  C   LIG d   1      -0.511  81.025 114.180  0.00  0.00    -0.047 C 
ATOM      6  C   LIG d   1      -0.533  80.876 112.641  0.00  0.00     0.091 C 
ENDROOT
BRANCH   1   7
ATOM      7  O   LIG d   1       0.068  82.039 110.570  0.00  0.00    -0.368 OA
BRANCH   7   8
ATOM      8  C   LIG d   1       1.481  82.218 110.305  0.00  0.00     0.119 C 
BRANCH   8   9
ATOM      9  C   LIG d   1       1.632  83.479 109.432  0.00  0.00     0.028 C 
ATOM     10  C   LIG d   1       2.773  84.392 109.911  0.00  0.00     0.006 C 
ENDBRANCH   8   9
BRANCH   8  11
ATOM     11  C   LIG d   1       2.039  81.070 109.459  0.00  0.00     0.028 C 
ATOM     12  C   LIG d   1       3.292  80.429 110.077  0.00  0.00     0.006 C 
ENDBRANCH   8  11
ENDBRANCH   7   8
ENDBRANCH   1   7
BRANCH   6  13
ATOM     13  N   LIG d   1      -1.802  80.280 112.148  0.00  0.00    -0.311 N 
ATOM     14  C   LIG d   1      -2.052  78.972 112.162  0.00  0.00     0.210 C 
ATOM     15  C   LIG d   1      -3.414  78.567 111.588  0.00  0.00     0.109 C 
ATOM     16  O   LIG d   1      -1.289  78.111 112.625  0.00  0.00    -0.276 OA
ATOM     17  H   LIG d   1      -2.490  80.909 111.784  0.00  0.00     0.149 HD
ENDBRANCH   6  13
BRANCH   5  18
ATOM     18  N   LIG d   1      -0.565  79.731 114.887  0.00  0.00     0.381 N 
ATOM     19  H   LIG d   1      -1.508  79.400 114.915  0.00  0.00    -0.090 HD
ATOM     20  H   LIG d   1      -0.248  79.863 115.831  0.00  0.00    -0.090 HD
ATOM     21  H   LIG d   1       0.015  79.065 114.424  0.00  0.00    -0.090 HD
ENDBRANCH   5  18
BRANCH   3  22
ATOM     22  C   LIG d   1       1.727  83.921 114.528  0.00  0.00     0.382 C 
ATOM     23  O   LIG d   1       1.229  84.503 115.521  0.00  0.00    -0.241 OA
ATOM     24  O   LIG d   1       2.836  84.287 114.094  0.00  0.00    -0.241 OA
ENDBRANCH   3  22
TORSDOF 7
ENDMDL
MODEL 4
REMARK VINA RESULT:      -4.1      6.684      7.514
REMARK  7 active torsions:
REMARK  status: ('A' for Active; 'I' for Inactive)
REMARK    1  A    between atoms: C_2  and  C_3 
REMARK    2  A    between atoms: C_3  and  O_6 
REMARK    3  A    between atoms: C_3  and  C_4 
REMARK    4  A    between atoms: C_7  and  O_6 
REMARK    5  A    between atoms: C_9  and  C_10 
REMARK    6  A    between atoms: N_15  and  C_14 
REMARK    7  A    between atoms: N_20  and  C_19 
REMARK       I    between atoms: C_22  and  N_20 
ROOT
ATOM      1  C   LIG d   1      -0.609  76.466 117.574  0.00  0.00     0.161 C 
ATOM      2  C   LIG d   1       0.743  76.776 117.794  0.00  0.00     0.016 C 
ATOM      3  C   LIG d   1       1.777  76.424 116.896  0.00  0.00     0.038 C 
ATOM      4  C   LIG d   1       1.508  75.868 115.636  0.00  0.00     0.028 C 
ATOM      5  C   LIG d   1       0.204  75.080 115.588  0.00  0.00    -0.047 C 
ATOM      6  C   LIG d   1      -0.935  75.959 116.154  0.00  0.00     0.091 C 
ENDROOT
BRANCH   1   7
ATOM      7  O   LIG d   1      -1.430  77.606 117.899  0.00  0.00    -0.368 OA
BRANCH   7   8
ATOM      8  C   LIG d   1      -1.423  78.021 119.287  0.00  0.00     0.119 C 
BRANCH   8   9
ATOM      9  C   LIG d   1      -2.839  77.788 119.848  0.00  0.00     0.028 C 
ATOM     10  C   LIG d   1      -3.880  77.564 118.738  0.00  0.00     0.006 C 
ENDBRANCH   8   9
BRANCH   8  11
ATOM     11  C   LIG d   1      -1.179  79.528 119.417  0.00  0.00     0.028 C 
ATOM     12  C   LIG d   1       0.032  80.007 118.600  0.00  0.00     0.006 C 
ENDBRANCH   8  11
ENDBRANCH   7   8
ENDBRANCH   1   7
BRANCH   6  13
ATOM     13  N   LIG d   1      -2.230  75.234 116.221  0.00  0.00    -0.311 N 
ATOM     14  C   LIG d   1      -3.170  75.323 115.281  0.00  0.00     0.210 C 
ATOM     15  C   LIG d   1      -4.439  74.510 115.556  0.00  0.00     0.109 C 
ATOM     16  O   LIG d   1      -3.060  75.973 114.231  0.00  0.00    -0.276 OA
ATOM     17  H   LIG d   1      -2.390  74.659 117.025  0.00  0.00     0.149 HD
ENDBRANCH   6  13
BRANCH   5  18
ATOM     18  N   LIG d   1      -0.020  74.674 114.188  0.00  0.00     0.381 N 
ATOM     19  H   LIG d   1       0.365  75.360 113.570  0.00  0.00    -0.090 HD
ATOM     20  H   LIG d   1      -1.009  74.618 114.020  0.00  0.00    -0.090 HD
ATOM     21  H   LIG d   1       0.403  73.788 114.017  0.00  0.00    -0.090 HD
ENDBRANCH   5  18
BRANCH   3  22
ATOM     22  C   LIG d   1       3.101  76.592 117.273  0.00  0.00     0.382 C 
ATOM     23  O   LIG d   1       3.898  77.194 116.513  0.00  0.00    -0.241 OA
ATOM     24  O   LIG d   1       3.520  76.110 118.342  0.00  0.00    -0.241 OA
ENDBRANCH   3  22
TORSDOF 7
ENDMDL
MODEL 5
REMARK VINA RESULT:      -3.8      2.726      3.460
REMARK  7 active torsions:
REMARK  status: ('A' for Active; 'I' for Inactive)
REMARK    1  A    between atoms: C_2  and  C_3 
REMARK    2  A    between atoms: C_3  and  O_6 
REMARK    3  A    between atoms: C_3  and  C_4 
REMARK    4  A    between atoms: C_7  and  O_6 
REMARK    5  A    between atoms: C_9  and  C_10 
REMARK    6  A    between atoms: N_15  and  C_14 
REMARK    7  A    between atoms: N_20  and  C_19 
REMARK       I    between atoms: C_22  and  N_20 
ROOT
ATOM      1  C   LIG d   1      -0.261  80.487 114.261  0.00  0.00     0.161 C 
ATOM      2  C   LIG d   1      -0.206  81.764 113.679  0.00  0.00     0.016 C 
ATOM      3  C   LIG d   1      -0.897  82.111 112.495  0.00  0.00     0.038 C 
ATOM      4  C   LIG d   1      -1.816  81.240 111.892  0.00  0.00     0.028 C 
ATOM      5  C   LIG d   1      -1.520  79.768 112.157  0.00  0.00    -0.047 C 
ATOM      6  C   LIG d   1      -1.346  79.557 113.679  0.00  0.00     0.091 C 
ENDROOT
BRANCH   1   7
ATOM      7  O   LIG d   1      -0.417  80.607 115.689  0.00  0.00    -0.368 OA
BRANCH   7   8
ATOM      8  C   LIG d   1       0.765  80.345 116.484  0.00  0.00     0.119 C 
BRANCH   8   9
ATOM      9  C   LIG d   1       0.328  79.511 117.704  0.00  0.00     0.028 C 
ATOM     10  C   LIG d   1       0.309  78.002 117.407  0.00  0.00     0.006 C 
ENDBRANCH   8   9
BRANCH   8  11
ATOM     11  C   LIG d   1       1.345  81.638 117.064  0.00  0.00     0.028 C 
ATOM     12  C   LIG d   1       2.542  82.168 116.258  0.00  0.00     0.006 C 
ENDBRANCH   8  11
ENDBRANCH   7   8
ENDBRANCH   1   7
BRANCH   6  13
ATOM     13  N   LIG d   1      -0.971  78.160 114.019  0.00  0.00    -0.311 N 
ATOM     14  C   LIG d   1      -1.860  77.214 114.316  0.00  0.00     0.210 C 
ATOM     15  C   LIG d   1      -1.260  75.846 114.656  0.00  0.00     0.109 C 
ATOM     16  O   LIG d   1      -3.090  77.369 114.299  0.00  0.00    -0.276 OA
ATOM     17  H   LIG d   1       0.005  77.939 114.026  0.00  0.00     0.149 HD
ENDBRANCH   6  13
BRANCH   5  18
ATOM     18  N   LIG d   1      -2.630  78.980 111.588  0.00  0.00     0.381 N 
ATOM     19  H   LIG d   1      -2.284  78.108 111.242  0.00  0.00    -0.090 HD
ATOM     20  H   LIG d   1      -3.029  79.489 110.819  0.00  0.00    -0.090 HD
ATOM     21  H   LIG d   1      -3.325  78.818 112.284  0.00  0.00    -0.090 HD
ENDBRANCH   5  18
BRANCH   3  22
ATOM     22  C   LIG d   1      -0.640  83.327 111.880  0.00  0.00     0.382 C 
ATOM     23  O   LIG d   1      -1.102  83.561 110.738  0.00  0.00    -0.241 OA
ATOM     24  O   LIG d   1       0.084  84.175 112.435  0.00  0.00    -0.241 OA
ENDBRANCH   3  22
TORSDOF 7
ENDMDL
MODEL 6
REMARK VINA RESULT:      -3.8      6.509      8.314
REMARK  7 active torsions:
REMARK  status: ('A' for Active; 'I' for Inactive)
REMARK    1  A    between atoms: C_2  and  C_3 
REMARK    2  A    between atoms: C_3  and  O_6 
REMARK    3  A    between atoms: C_3  and  C_4 
REMARK    4  A    between atoms: C_7  and  O_6 
REMARK    5  A    between atoms: C_9  and  C_10 
REMARK    6  A    between atoms: N_15  and  C_14 
REMARK    7  A    between atoms: N_20  and  C_19 
REMARK       I    between atoms: C_22  and  N_20 
ROOT
ATOM      1  C   LIG d   1       0.614  76.708 117.265  0.00  0.00     0.161 C 
ATOM      2  C   LIG d   1      -0.143  77.535 118.111  0.00  0.00     0.016 C 
ATOM      3  C   LIG d   1      -1.503  77.299 118.418  0.00  0.00     0.038 C 
ATOM      4  C   LIG d   1      -2.160  76.127 118.016  0.00  0.00     0.028 C 
ATOM      5  C   LIG d   1      -1.585  75.515 116.744  0.00  0.00    -0.047 C 
ATOM      6  C   LIG d   1      -0.055  75.364 116.907  0.00  0.00     0.091 C 
ENDROOT
BRANCH   1   7
ATOM      7  O   LIG d   1       1.916  76.482 117.840  0.00  0.00    -0.368 OA
BRANCH   7   8
ATOM      8  C   LIG d   1       3.002  77.265 117.286  0.00  0.00     0.119 C 
BRANCH   8   9
ATOM      9  C   LIG d   1       4.304  76.470 117.505  0.00  0.00     0.028 C 
ATOM     10  C   LIG d   1       5.533  77.183 116.915  0.00  0.00     0.006 C 
ENDBRANCH   8   9
BRANCH   8  11
ATOM     11  C   LIG d   1       3.193  78.576 118.054  0.00  0.00     0.028 C 
ATOM     12  C   LIG d   1       2.831  79.814 117.219  0.00  0.00     0.006 C 
ENDBRANCH   8  11
ENDBRANCH   7   8
ENDBRANCH   1   7
BRANCH   6  13
ATOM     13  N   LIG d   1       0.599  74.851 115.675  0.00  0.00    -0.311 N 
ATOM     14  C   LIG d   1       0.205  75.177 114.445  0.00  0.00     0.210 C 
ATOM     15  C   LIG d   1       1.003  74.521 113.315  0.00  0.00     0.109 C 
ATOM     16  O   LIG d   1      -0.710  75.973 114.184  0.00  0.00    -0.276 OA
ATOM     17  H   LIG d   1       1.369  74.223 115.795  0.00  0.00     0.149 HD
ENDBRANCH   6  13
BRANCH   5  18
ATOM     18  N   LIG d   1      -2.271  74.229 116.517  0.00  0.00     0.381 N 
ATOM     19  H   LIG d   1      -1.780  73.495 116.988  0.00  0.00    -0.090 HD
ATOM     20  H   LIG d   1      -2.269  74.028 115.533  0.00  0.00    -0.090 HD
ATOM     21  H   LIG d   1      -3.208  74.279 116.852  0.00  0.00    -0.090 HD
ENDBRANCH   5  18
BRANCH   3  22
ATOM     22  C   LIG d   1      -2.231  78.261 119.101  0.00  0.00     0.382 C 
ATOM     23  O   LIG d   1      -1.638  79.108 119.812  0.00  0.00    -0.241 OA
ATOM     24  O   LIG d   1      -3.475  78.266 119.051  0.00  0.00    -0.241 OA
ENDBRANCH   3  22
TORSDOF 7
ENDMDL
MODEL 7
REMARK VINA RESULT:      -3.8      1.615      4.903
REMARK  7 active torsions:
REMARK  status: ('A' for Active; 'I' for Inactive)
REMARK    1  A    between atoms: C_2  and  C_3 
REMARK    2  A    between atoms: C_3  and  O_6 
REMARK    3  A    between atoms: C_3  and  C_4 
REMARK    4  A    between atoms: C_7  and  O_6 
REMARK    5  A    between atoms: C_9  and  C_10 
REMARK    6  A    between atoms: N_15  and  C_14 
REMARK    7  A    between atoms: N_20  and  C_19 
REMARK       I    between atoms: C_22  and  N_20 
ROOT
ATOM      1  C   LIG d   1      -1.400  81.707 112.369  0.00  0.00     0.161 C 
ATOM      2  C   LIG d   1      -2.127  80.611 112.865  0.00  0.00     0.016 C 
ATOM      3  C   LIG d   1      -2.034  79.308 112.325  0.00  0.00     0.038 C 
ATOM      4  C   LIG d   1      -1.088  78.977 111.343  0.00  0.00     0.028 C 
ATOM      5  C   LIG d   1      -0.688  80.158 110.465  0.00  0.00    -0.047 C 
ATOM      6  C   LIG d   1      -0.280  81.342 111.372  0.00  0.00     0.091 C 
ENDROOT
BRANCH   1   7
ATOM      7  O   LIG d   1      -0.863  82.473 113.466  0.00  0.00    -0.368 OA
BRANCH   7   8
ATOM      8  C   LIG d   1       0.491  82.150 113.867  0.00  0.00     0.119 C 
BRANCH   8   9
ATOM      9  C   LIG d   1       0.431  81.611 115.309  0.00  0.00     0.028 C 
ATOM     10  C   LIG d   1       1.639  82.054 116.152  0.00  0.00     0.006 C 
ENDBRANCH   8   9
BRANCH   8  11
ATOM     11  C   LIG d   1       1.365  83.406 113.939  0.00  0.00     0.028 C 
ATOM     12  C   LIG d   1       0.613  84.680 113.523  0.00  0.00     0.006 C 
ENDBRANCH   8  11
ENDBRANCH   7   8
ENDBRANCH   1   7
BRANCH   6  13
ATOM     13  N   LIG d   1       0.045  82.566 110.594  0.00  0.00    -0.311 N 
ATOM     14  C   LIG d   1       1.280  82.884 110.211  0.00  0.00     0.210 C 
ATOM     15  C   LIG d   1       1.398  84.200 109.435  0.00  0.00     0.109 C 
ATOM     16  O   LIG d   1       2.285  82.186 110.413  0.00  0.00    -0.276 OA
ATOM     17  H   LIG d   1      -0.716  83.173 110.360  0.00  0.00     0.149 HD
ENDBRANCH   6  13
BRANCH   5  18
ATOM     18  N   LIG d   1       0.401  79.706 109.579  0.00  0.00     0.381 N 
ATOM     19  H   LIG d   1       0.034  79.098 108.874  0.00  0.00    -0.090 HD
ATOM     20  H   LIG d   1       1.070  79.190 110.124  0.00  0.00    -0.090 HD
ATOM     21  H   LIG d   1       0.842  80.491 109.154  0.00  0.00    -0.090 HD
ENDBRANCH   5  18
BRANCH   3  22
ATOM     22  C   LIG d   1      -2.923  78.328 112.740  0.00  0.00     0.382 C 
ATOM     23  O   LIG d   1      -2.924  77.949 113.936  0.00  0.00    -0.241 OA
ATOM     24  O   LIG d   1      -3.693  77.786 111.924  0.00  0.00    -0.241 OA
ENDBRANCH   3  22
TORSDOF 7
ENDMDL
MODEL 8
REMARK VINA RESULT:      -3.8      2.514      3.623
REMARK  7 active torsions:
REMARK  status: ('A' for Active; 'I' for Inactive)
REMARK    1  A    between atoms: C_2  and  C_3 
REMARK    2  A    between atoms: C_3  and  O_6 
REMARK    3  A    between atoms: C_3  and  C_4 
REMARK    4  A    between atoms: C_7  and  O_6 
REMARK    5  A    between atoms: C_9  and  C_10 
REMARK    6  A    between atoms: N_15  and  C_14 
REMARK    7  A    between atoms: N_20  and  C_19 
REMARK       I    between atoms: C_22  and  N_20 
ROOT
ATOM      1  C   LIG d   1       0.550  80.944 115.002  0.00  0.00     0.161 C 
ATOM      2  C   LIG d   1       1.385  82.056 115.205  0.00  0.00     0.016 C 
ATOM      3  C   LIG d   1       1.401  83.184 114.353  0.00  0.00     0.038 C 
ATOM      4  C   LIG d   1       0.468  83.343 113.317  0.00  0.00     0.028 C 
ATOM      5  C   LIG d   1      -0.057  82.022 112.766  0.00  0.00    -0.047 C 
ATOM      6  C   LIG d   1      -0.552  81.149 113.941  0.00  0.00     0.091 C 
ENDROOT
BRANCH   1   7
ATOM      7  O   LIG d   1      -0.031  80.534 116.255  0.00  0.00    -0.368 OA
BRANCH   7   8
ATOM      8  C   LIG d   1       0.893  80.029 117.251  0.00  0.00     0.119 C 
BRANCH   8   9
ATOM      9  C   LIG d   1       0.650  78.513 117.382  0.00  0.00     0.028 C 
ATOM     10  C   LIG d   1      -0.609  78.190 118.205  0.00  0.00     0.006 C 
ENDBRANCH   8   9
BRANCH   8  11
ATOM     11  C   LIG d   1       0.592  80.609 118.636  0.00  0.00     0.028 C 
ATOM     12  C   LIG d   1       0.706  82.142 118.677  0.00  0.00     0.006 C 
ENDBRANCH   8  11
ENDBRANCH   7   8
ENDBRANCH   1   7
BRANCH   6  13
ATOM     13  N   LIG d   1      -1.005  79.805 113.498  0.00  0.00    -0.311 N 
ATOM     14  C   LIG d   1      -2.262  79.531 113.155  0.00  0.00     0.210 C 
ATOM     15  C   LIG d   1      -2.519  78.076 112.748  0.00  0.00     0.109 C 
ATOM     16  O   LIG d   1      -3.182  80.361 113.119  0.00  0.00    -0.276 OA
ATOM     17  H   LIG d   1      -0.316  79.079 113.468  0.00  0.00     0.149 HD
ENDBRANCH   6  13
BRANCH   5  18
ATOM     18  N   LIG d   1      -1.119  82.336 111.791  0.00  0.00     0.381 N 
ATOM     19  H   LIG d   1      -0.841  82.035 110.879  0.00  0.00    -0.090 HD
ATOM     20  H   LIG d   1      -1.255  83.331 111.768  0.00  0.00    -0.090 HD
ATOM     21  H   LIG d   1      -1.967  81.884 112.054  0.00  0.00    -0.090 HD
ENDBRANCH   5  18
BRANCH   3  22
ATOM     22  C   LIG d   1       2.384  84.149 114.508  0.00  0.00     0.382 C 
ATOM     23  O   LIG d   1       3.113  84.464 113.537  0.00  0.00    -0.241 OA
ATOM     24  O   LIG d   1       2.580  84.677 115.619  0.00  0.00    -0.241 OA
ENDBRANCH   3  22
TORSDOF 7
ENDMDL
MODEL 9
REMARK VINA RESULT:      -3.6      2.064      5.062
REMARK  7 active torsions:
REMARK  status: ('A' for Active; 'I' for Inactive)
REMARK    1  A    between atoms: C_2  and  C_3 
REMARK    2  A    between atoms: C_3  and  O_6 
REMARK    3  A    between atoms: C_3  and  C_4 
REMARK    4  A    between atoms: C_7  and  O_6 
REMARK    5  A    between atoms: C_9  and  C_10 
REMARK    6  A    between atoms: N_15  and  C_14 
REMARK    7  A    between atoms: N_20  and  C_19 
REMARK       I    between atoms: C_22  and  N_20 
ROOT
ATOM      1  C   LIG d   1       0.400  81.350 112.322  0.00  0.00     0.161 C 
ATOM      2  C   LIG d   1      -0.264  82.060 113.336  0.00  0.00     0.016 C 
ATOM      3  C   LIG d   1      -0.583  83.435 113.243  0.00  0.00     0.038 C 
ATOM      4  C   LIG d   1      -0.392  84.162 112.059  0.00  0.00     0.028 C 
ATOM      5  C   LIG d   1       0.734  83.615 111.188  0.00  0.00    -0.047 C 
ATOM      6  C   LIG d   1       0.516  82.099 110.978  0.00  0.00     0.091 C 
ENDROOT
BRANCH   1   7
ATOM      7  O   LIG d   1      -0.232  80.069 112.128  0.00  0.00    -0.368 OA
BRANCH   7   8
ATOM      8  C   LIG d   1      -1.339  79.765 113.012  0.00  0.00     0.119 C 
BRANCH   8   9
ATOM      9  C   LIG d   1      -1.436  78.230 113.120  0.00  0.00     0.028 C 
ATOM     10  C   LIG d   1      -1.334  77.737 114.573  0.00  0.00     0.006 C 
ENDBRANCH   8   9
BRANCH   8  11
ATOM     11  C   LIG d   1      -2.673  80.214 112.409  0.00  0.00     0.028 C 
ATOM     12  C   LIG d   1      -3.469  79.054 111.792  0.00  0.00     0.006 C 
ENDBRANCH   8  11
ENDBRANCH   7   8
ENDBRANCH   1   7
BRANCH   6  13
ATOM     13  N   LIG d   1       1.619  81.470 110.206  0.00  0.00    -0.311 N 
ATOM     14  C   LIG d   1       2.897  81.821 110.335  0.00  0.00     0.210 C 
ATOM     15  C   LIG d   1       3.871  81.059 109.430  0.00  0.00     0.109 C 
ATOM     16  O   LIG d   1       3.321  82.668 111.135  0.00  0.00    -0.276 OA
ATOM     17  H   LIG d   1       1.368  80.751 109.556  0.00  0.00     0.149 HD
ENDBRANCH   6  13
BRANCH   5  18
ATOM     18  N   LIG d   1       0.732  84.380 109.926  0.00  0.00     0.381 N 
ATOM     19  H   LIG d   1       1.530  84.129 109.377  0.00  0.00    -0.090 HD
ATOM     20  H   LIG d   1       0.791  85.360 110.140  0.00  0.00    -0.090 HD
ATOM     21  H   LIG d   1      -0.103  84.193 109.416  0.00  0.00    -0.090 HD
ENDBRANCH   5  18
BRANCH   3  22
ATOM     22  C   LIG d   1      -1.062  84.106 114.358  0.00  0.00     0.382 C 
ATOM     23  O   LIG d   1      -2.177  84.680 114.313  0.00  0.00    -0.241 OA
ATOM     24  O   LIG d   1      -0.374  84.182 115.394  0.00  0.00    -0.241 OA
ENDBRANCH   3  22
TORSDOF 7
ENDMDL
