MODEL 1
REMARK VINA RESULT:      -5.2      0.000      0.000
REMARK  7 active torsions:
REMARK  status: ('A' for Active; 'I' for Inactive)
REMARK    1  A    between atoms: C_2  and  C_3 
REMARK    2  A    between atoms: C_3  and  O_6 
REMARK    3  A    between atoms: C_3  and  C_4 
REMARK    4  A    between atoms: C_7  and  O_6 
REMARK    5  A    between atoms: C_9  and  C_10 
REMARK    6  A    between atoms: N_15  and  C_14 
REMARK    7  A    between atoms: N_20  and  C_19 
REMARK       I    between atoms: C_22  and  N_20 
ROOT
ATOM      1  C   LIG d   1       0.603  83.330 112.025  0.00  0.00     0.161 C 
ATOM      2  C   LIG d   1      -0.645  83.023 112.591  0.00  0.00     0.016 C 
ATOM      3  C   LIG d   1      -1.254  81.751 112.489  0.00  0.00     0.038 C 
ATOM      4  C   LIG d   1      -0.582  80.649 111.939  0.00  0.00     0.028 C 
ATOM      5  C   LIG d   1       0.472  81.036 110.906  0.00  0.00    -0.047 C 
ATOM      6  C   LIG d   1       1.401  82.111 111.517  0.00  0.00     0.091 C 
ENDROOT
BRANCH   1   7
ATOM      7  O   LIG d   1       1.392  84.089 112.963  0.00  0.00    -0.368 OA
BRANCH   7   8
ATOM      8  C   LIG d   1       2.028  83.331 114.021  0.00  0.00     0.119 C 
BRANCH   8   9
ATOM      9  C   LIG d   1       1.409  83.790 115.356  0.00  0.00     0.028 C 
ATOM     10  C   LIG d   1       0.992  82.608 116.247  0.00  0.00     0.006 C 
ENDBRANCH   8   9
BRANCH   8  11
ATOM     11  C   LIG d   1       3.518  83.666 114.129  0.00  0.00     0.028 C 
ATOM     12  C   LIG d   1       3.979  84.679 113.069  0.00  0.00     0.006 C 
ENDBRANCH   8  11
ENDBRANCH   7   8
ENDBRANCH   1   7
BRANCH   6  13
ATOM     13  N   LIG d   1       2.409  82.607 110.544  0.00  0.00    -0.311 N 
ATOM     14  C   LIG d   1       3.663  82.160 110.495  0.00  0.00     0.210 C 
ATOM     15  C   LIG d   1       4.544  82.819 109.430  0.00  0.00     0.109 C 
ATOM     16  O   LIG d   1       4.120  81.256 111.212  0.00  0.00    -0.276 OA
ATOM     17  H   LIG d   1       2.114  83.318 109.904  0.00  0.00     0.149 HD
ENDBRANCH   6  13
BRANCH   5  18
ATOM     18  N   LIG d   1       1.187  79.807 110.517  0.00  0.00     0.381 N 
ATOM     19  H   LIG d   1       0.624  79.272 109.888  0.00  0.00    -0.090 HD
ATOM     20  H   LIG d   1       1.354  79.254 111.339  0.00  0.00    -0.090 HD
ATOM     21  H   LIG d   1       2.054  80.039 110.083  0.00  0.00    -0.090 HD
ENDBRANCH   5  18
BRANCH   3  22
ATOM     22  C   LIG d   1      -2.566  81.581 112.906  0.00  0.00     0.382 C 
ATOM     23  O   LIG d   1      -3.233  80.602 112.493  0.00  0.00    -0.241 OA
ATOM     24  O   LIG d   1      -3.104  82.419 113.653  0.00  0.00    -0.241 OA
ENDBRANCH   3  22
TORSDOF 7
ENDMDL
MODEL 2
REMARK VINA RESULT:      -5.1      1.937      5.064
REMARK  7 active torsions:
REMARK  status: ('A' for Active; 'I' for Inactive)
REMARK    1  A    between atoms: C_2  and  C_3 
REMARK    2  A    between atoms: C_3  and  O_6 
REMARK    3  A    between atoms: C_3  and  C_4 
REMARK    4  A    between atoms: C_7  and  O_6 
REMARK    5  A    between atoms: C_9  and  C_10 
REMARK    6  A    between atoms: N_15  and  C_14 
REMARK    7  A    between atoms: N_20  and  C_19 
REMARK       I    between atoms: C_22  and  N_20 
ROOT
ATOM      1  C   LIG d   1       0.925  81.391 113.020  0.00  0.00     0.161 C 
ATOM      2  C   LIG d   1       1.915  82.300 112.612  0.00  0.00     0.016 C 
ATOM      3  C   LIG d   1       2.204  82.578 111.256  0.00  0.00     0.038 C 
ATOM      4  C   LIG d   1       1.415  82.075 110.211  0.00  0.00     0.028 C 
ATOM      5  C   LIG d   1       0.726  80.759 110.553  0.00  0.00    -0.047 C 
ATOM      6  C   LIG d   1      -0.021  80.917 111.897  0.00  0.00     0.091 C 
ENDROOT
BRANCH   1   7
ATOM      7  O   LIG d   1       0.167  81.952 114.110  0.00  0.00    -0.368 OA
BRANCH   7   8
ATOM      8  C   LIG d   1      -0.857  82.910 113.748  0.00  0.00     0.119 C 
BRANCH   8   9
ATOM      9  C   LIG d   1      -0.304  84.316 114.053  0.00  0.00     0.028 C 
ATOM     10  C   LIG d   1       0.464  84.368 115.384  0.00  0.00     0.006 C 
ENDBRANCH   8   9
BRANCH   8  11
ATOM     11  C   LIG d   1      -2.098  82.762 114.633  0.00  0.00     0.028 C 
ATOM     12  C   LIG d   1      -1.993  81.583 115.614  0.00  0.00     0.006 C 
ENDBRANCH   8  11
ENDBRANCH   7   8
ENDBRANCH   1   7
BRANCH   6  13
ATOM     13  N   LIG d   1      -0.653  79.649 112.347  0.00  0.00    -0.311 N 
ATOM     14  C   LIG d   1      -1.962  79.516 112.553  0.00  0.00     0.210 C 
ATOM     15  C   LIG d   1      -2.403  78.130 113.034  0.00  0.00     0.109 C 
ATOM     16  O   LIG d   1      -2.804  80.404 112.351  0.00  0.00    -0.276 OA
ATOM     17  H   LIG d   1      -0.047  78.868 112.504  0.00  0.00     0.149 HD
ENDBRANCH   6  13
BRANCH   5  18
ATOM     18  N   LIG d   1      -0.170  80.421 109.431  0.00  0.00     0.381 N 
ATOM     19  H   LIG d   1      -1.007  80.965 109.490  0.00  0.00    -0.090 HD
ATOM     20  H   LIG d   1      -0.420  79.450 109.495  0.00  0.00    -0.090 HD
ATOM     21  H   LIG d   1       0.288  80.596 108.564  0.00  0.00    -0.090 HD
ENDBRANCH   5  18
BRANCH   3  22
ATOM     22  C   LIG d   1       3.319  83.337 110.933  0.00  0.00     0.382 C 
ATOM     23  O   LIG d   1       3.281  84.124 109.957  0.00  0.00    -0.241 OA
ATOM     24  O   LIG d   1       4.377  83.211 111.578  0.00  0.00    -0.241 OA
ENDBRANCH   3  22
TORSDOF 7
ENDMDL
MODEL 3
REMARK VINA RESULT:      -4.9      2.180      5.081
REMARK  7 active torsions:
REMARK  status: ('A' for Active; 'I' for Inactive)
REMARK    1  A    between atoms: C_2  and  C_3 
REMARK    2  A    between atoms: C_3  and  O_6 
REMARK    3  A    between atoms: C_3  and  C_4 
REMARK    4  A    between atoms: C_7  and  O_6 
REMARK    5  A    between atoms: C_9  and  C_10 
REMARK    6  A    between atoms: N_15  and  C_14 
REMARK    7  A    between atoms: N_20  and  C_19 
REMARK       I    between atoms: C_22  and  N_20 
ROOT
ATOM      1  C   LIG d   1       0.508  81.410 113.150  0.00  0.00     0.161 C 
ATOM      2  C   LIG d   1       1.481  82.386 112.874  0.00  0.00     0.016 C 
ATOM      3  C   LIG d   1       1.907  82.711 111.566  0.00  0.00     0.038 C 
ATOM      4  C   LIG d   1       1.277  82.185 110.428  0.00  0.00     0.028 C 
ATOM      5  C   LIG d   1       0.636  80.822 110.666  0.00  0.00    -0.047 C 
ATOM      6  C   LIG d   1      -0.269  80.905 111.917  0.00  0.00     0.091 C 
ENDROOT
BRANCH   1   7
ATOM      7  O   LIG d   1      -0.405  81.900 114.152  0.00  0.00    -0.368 OA
BRANCH   7   8
ATOM      8  C   LIG d   1      -0.053  81.616 115.528  0.00  0.00     0.119 C 
BRANCH   8   9
ATOM      9  C   LIG d   1       0.097  80.088 115.661  0.00  0.00     0.028 C 
ATOM     10  C   LIG d   1      -1.168  79.420 116.226  0.00  0.00     0.006 C 
ENDBRANCH   8   9
BRANCH   8  11
ATOM     11  C   LIG d   1      -1.188  81.996 116.483  0.00  0.00     0.028 C 
ATOM     12  C   LIG d   1      -1.192  83.491 116.839  0.00  0.00     0.006 C 
ENDBRANCH   8  11
ENDBRANCH   7   8
ENDBRANCH   1   7
BRANCH   6  13
ATOM     13  N   LIG d   1      -0.870  79.593 112.270  0.00  0.00    -0.311 N 
ATOM     14  C   LIG d   1      -2.156  79.434 112.578  0.00  0.00     0.210 C 
ATOM     15  C   LIG d   1      -2.564  78.000 112.931  0.00  0.00     0.109 C 
ATOM     16  O   LIG d   1      -3.004  80.338 112.561  0.00  0.00    -0.276 OA
ATOM     17  H   LIG d   1      -0.259  78.799 112.278  0.00  0.00     0.149 HD
ENDBRANCH   6  13
BRANCH   5  18
ATOM     18  N   LIG d   1      -0.101  80.456 109.442  0.00  0.00     0.381 N 
ATOM     19  H   LIG d   1      -0.155  79.460 109.365  0.00  0.00    -0.090 HD
ATOM     20  H   LIG d   1       0.399  80.807 108.645  0.00  0.00    -0.090 HD
ATOM     21  H   LIG d   1      -1.017  80.845 109.466  0.00  0.00    -0.090 HD
ENDBRANCH   5  18
BRANCH   3  22
ATOM     22  C   LIG d   1       3.003  83.542 111.387  0.00  0.00     0.382 C 
ATOM     23  O   LIG d   1       2.972  84.441 110.512  0.00  0.00    -0.241 OA
ATOM     24  O   LIG d   1       4.039  83.375 112.059  0.00  0.00    -0.241 OA
ENDBRANCH   3  22
TORSDOF 7
ENDMDL
MODEL 4
REMARK VINA RESULT:      -4.5      2.987      4.462
REMARK  7 active torsions:
REMARK  status: ('A' for Active; 'I' for Inactive)
REMARK    1  A    between atoms: C_2  and  C_3 
REMARK    2  A    between atoms: C_3  and  O_6 
REMARK    3  A    between atoms: C_3  and  C_4 
REMARK    4  A    between atoms: C_7  and  O_6 
REMARK    5  A    between atoms: C_9  and  C_10 
REMARK    6  A    between atoms: N_15  and  C_14 
REMARK    7  A    between atoms: N_20  and  C_19 
REMARK       I    between atoms: C_22  and  N_20 
ROOT
ATOM      1  C   LIG d   1       2.021  81.456 113.340  0.00  0.00     0.161 C 
ATOM      2  C   LIG d   1       0.846  81.917 112.722  0.00  0.00     0.016 C 
ATOM      3  C   LIG d   1      -0.358  82.158 113.423  0.00  0.00     0.038 C 
ATOM      4  C   LIG d   1      -0.427  82.099 114.823  0.00  0.00     0.028 C 
ATOM      5  C   LIG d   1       0.596  81.150 115.439  0.00  0.00    -0.047 C 
ATOM      6  C   LIG d   1       1.997  81.492 114.883  0.00  0.00     0.091 C 
ENDROOT
BRANCH   1   7
ATOM      7  O   LIG d   1       3.156  82.189 112.840  0.00  0.00    -0.368 OA
BRANCH   7   8
ATOM      8  C   LIG d   1       3.193  82.408 111.408  0.00  0.00     0.119 C 
BRANCH   8   9
ATOM      9  C   LIG d   1       3.973  81.237 110.780  0.00  0.00     0.028 C 
ATOM     10  C   LIG d   1       3.274  80.667 109.534  0.00  0.00     0.006 C 
ENDBRANCH   8   9
BRANCH   8  11
ATOM     11  C   LIG d   1       3.995  83.665 111.056  0.00  0.00     0.028 C 
ATOM     12  C   LIG d   1       3.270  84.572 110.050  0.00  0.00     0.006 C 
ENDBRANCH   8  11
ENDBRANCH   7   8
ENDBRANCH   1   7
BRANCH   6  13
ATOM     13  N   LIG d   1       3.044  80.557 115.370  0.00  0.00    -0.311 N 
ATOM     14  C   LIG d   1       3.821  80.810 116.422  0.00  0.00     0.210 C 
ATOM     15  C   LIG d   1       4.849  79.721 116.743  0.00  0.00     0.109 C 
ATOM     16  O   LIG d   1       3.733  81.818 117.140  0.00  0.00    -0.276 OA
ATOM     17  H   LIG d   1       3.162  79.700 114.865  0.00  0.00     0.149 HD
ENDBRANCH   6  13
BRANCH   5  18
ATOM     18  N   LIG d   1       0.506  81.289 116.905  0.00  0.00     0.381 N 
ATOM     19  H   LIG d   1       0.773  82.215 117.174  0.00  0.00    -0.090 HD
ATOM     20  H   LIG d   1       1.143  80.640 117.333  0.00  0.00    -0.090 HD
ATOM     21  H   LIG d   1      -0.424  81.103 117.209  0.00  0.00    -0.090 HD
ENDBRANCH   5  18
BRANCH   3  22
ATOM     22  C   LIG d   1      -1.522  82.425 112.717  0.00  0.00     0.382 C 
ATOM     23  O   LIG d   1      -2.637  82.136 113.214  0.00  0.00    -0.241 OA
ATOM     24  O   LIG d   1      -1.469  82.910 111.571  0.00  0.00    -0.241 OA
ENDBRANCH   3  22
TORSDOF 7
ENDMDL
MODEL 5
REMARK VINA RESULT:      -4.5      1.988      2.423
REMARK  7 active torsions:
REMARK  status: ('A' for Active; 'I' for Inactive)
REMARK    1  A    between atoms: C_2  and  C_3 
REMARK    2  A    between atoms: C_3  and  O_6 
REMARK    3  A    between atoms: C_3  and  C_4 
REMARK    4  A    between atoms: C_7  and  O_6 
REMARK    5  A    between atoms: C_9  and  C_10 
REMARK    6  A    between atoms: N_15  and  C_14 
REMARK    7  A    between atoms: N_20  and  C_19 
REMARK       I    between atoms: C_22  and  N_20 
ROOT
ATOM      1  C   LIG d   1      -1.361  82.724 112.759  0.00  0.00     0.161 C 
ATOM      2  C   LIG d   1      -2.036  81.751 113.514  0.00  0.00     0.016 C 
ATOM      3  C   LIG d   1      -1.782  80.365 113.404  0.00  0.00     0.038 C 
ATOM      4  C   LIG d   1      -0.722  79.865 112.634  0.00  0.00     0.028 C 
ATOM      5  C   LIG d   1      -0.341  80.769 111.467  0.00  0.00    -0.047 C 
ATOM      6  C   LIG d   1      -0.124  82.206 111.995  0.00  0.00     0.091 C 
ENDROOT
BRANCH   1   7
ATOM      7  O   LIG d   1      -0.999  83.835 113.603  0.00  0.00    -0.368 OA
BRANCH   7   8
ATOM      8  C   LIG d   1      -0.696  83.514 114.983  0.00  0.00     0.119 C 
BRANCH   8   9
ATOM      9  C   LIG d   1      -1.362  84.588 115.865  0.00  0.00     0.028 C 
ATOM     10  C   LIG d   1      -0.762  84.640 117.280  0.00  0.00     0.006 C 
ENDBRANCH   8   9
BRANCH   8  11
ATOM     11  C   LIG d   1       0.804  83.630 115.266  0.00  0.00     0.028 C 
ATOM     12  C   LIG d   1       1.521  84.587 114.300  0.00  0.00     0.006 C 
ENDBRANCH   8  11
ENDBRANCH   7   8
ENDBRANCH   1   7
BRANCH   6  13
ATOM     13  N   LIG d   1       0.169  83.173 110.905  0.00  0.00    -0.311 N 
ATOM     14  C   LIG d   1       1.403  83.548 110.570  0.00  0.00     0.210 C 
ATOM     15  C   LIG d   1       1.481  84.569 109.432  0.00  0.00     0.109 C 
ATOM     16  O   LIG d   1       2.441  83.107 111.086  0.00  0.00    -0.276 OA
ATOM     17  H   LIG d   1      -0.613  83.556 110.413  0.00  0.00     0.149 HD
ENDBRANCH   6  13
BRANCH   5  18
ATOM     18  N   LIG d   1       0.863  80.198 110.834  0.00  0.00     0.381 N 
ATOM     19  H   LIG d   1       1.455  79.796 111.533  0.00  0.00    -0.090 HD
ATOM     20  H   LIG d   1       1.371  80.935 110.377  0.00  0.00    -0.090 HD
ATOM     21  H   LIG d   1       0.602  79.503 110.170  0.00  0.00    -0.090 HD
ENDBRANCH   5  18
BRANCH   3  22
ATOM     22  C   LIG d   1      -2.620  79.460 114.038  0.00  0.00     0.382 C 
ATOM     23  O   LIG d   1      -2.883  78.361 113.493  0.00  0.00    -0.241 OA
ATOM     24  O   LIG d   1      -3.151  79.747 115.127  0.00  0.00    -0.241 OA
ENDBRANCH   3  22
TORSDOF 7
ENDMDL
MODEL 6
REMARK VINA RESULT:      -4.3      2.229      5.031
REMARK  7 active torsions:
REMARK  status: ('A' for Active; 'I' for Inactive)
REMARK    1  A    between atoms: C_2  and  C_3 
REMARK    2  A    between atoms: C_3  and  O_6 
REMARK    3  A    between atoms: C_3  and  C_4 
REMARK    4  A    between atoms: C_7  and  O_6 
REMARK    5  A    between atoms: C_9  and  C_10 
REMARK    6  A    between atoms: N_15  and  C_14 
REMARK    7  A    between atoms: N_20  and  C_19 
REMARK       I    between atoms: C_22  and  N_20 
ROOT
ATOM      1  C   LIG d   1      -0.117  83.099 113.295  0.00  0.00     0.161 C 
ATOM      2  C   LIG d   1       0.765  83.873 112.523  0.00  0.00     0.016 C 
ATOM      3  C   LIG d   1       1.312  83.437 111.295  0.00  0.00     0.038 C 
ATOM      4  C   LIG d   1       0.892  82.249 110.676  0.00  0.00     0.028 C 
ATOM      5  C   LIG d   1       0.385  81.200 111.660  0.00  0.00    -0.047 C 
ATOM      6  C   LIG d   1      -0.673  81.848 112.583  0.00  0.00     0.091 C 
ENDROOT
BRANCH   1   7
ATOM      7  O   LIG d   1      -1.198  83.923 113.776  0.00  0.00    -0.368 OA
BRANCH   7   8
ATOM      8  C   LIG d   1      -1.037  84.472 115.107  0.00  0.00     0.119 C 
BRANCH   8   9
ATOM      9  C   LIG d   1       0.108  83.701 115.791  0.00  0.00     0.028 C 
ATOM     10  C   LIG d   1       1.108  84.636 116.493  0.00  0.00     0.006 C 
ENDBRANCH   8   9
BRANCH   8  11
ATOM     11  C   LIG d   1      -2.275  84.210 115.971  0.00  0.00     0.028 C 
ATOM     12  C   LIG d   1      -2.270  82.812 116.610  0.00  0.00     0.006 C 
ENDBRANCH   8  11
ENDBRANCH   7   8
ENDBRANCH   1   7
BRANCH   6  13
ATOM     13  N   LIG d   1      -1.159  80.913 113.630  0.00  0.00    -0.311 N 
ATOM     14  C   LIG d   1      -2.271  80.189 113.508  0.00  0.00     0.210 C 
ATOM     15  C   LIG d   1      -2.602  79.304 114.714  0.00  0.00     0.109 C 
ATOM     16  O   LIG d   1      -2.997  80.172 112.503  0.00  0.00    -0.276 OA
ATOM     17  H   LIG d   1      -0.614  80.841 114.467  0.00  0.00     0.149 HD
ENDBRANCH   6  13
BRANCH   5  18
ATOM     18  N   LIG d   1      -0.146  80.072 110.874  0.00  0.00     0.381 N 
ATOM     19  H   LIG d   1       0.607  79.491 110.563  0.00  0.00    -0.090 HD
ATOM     20  H   LIG d   1      -0.620  80.434 110.065  0.00  0.00    -0.090 HD
ATOM     21  H   LIG d   1      -0.780  79.538 111.428  0.00  0.00    -0.090 HD
ENDBRANCH   5  18
BRANCH   3  22
ATOM     22  C   LIG d   1       2.319  84.173 110.691  0.00  0.00     0.382 C 
ATOM     23  O   LIG d   1       2.289  84.382 109.454  0.00  0.00    -0.241 OA
ATOM     24  O   LIG d   1       3.282  84.594 111.360  0.00  0.00    -0.241 OA
ENDBRANCH   3  22
TORSDOF 7
ENDMDL
MODEL 7
REMARK VINA RESULT:      -4.2      1.990      3.798
REMARK  7 active torsions:
REMARK  status: ('A' for Active; 'I' for Inactive)
REMARK    1  A    between atoms: C_2  and  C_3 
REMARK    2  A    between atoms: C_3  and  O_6 
REMARK    3  A    between atoms: C_3  and  C_4 
REMARK    4  A    between atoms: C_7  and  O_6 
REMARK    5  A    between atoms: C_9  and  C_10 
REMARK    6  A    between atoms: N_15  and  C_14 
REMARK    7  A    between atoms: N_20  and  C_19 
REMARK       I    between atoms: C_22  and  N_20 
ROOT
ATOM      1  C   LIG d   1       0.714  82.608 111.656  0.00  0.00     0.161 C 
ATOM      2  C   LIG d   1      -0.325  81.668 111.753  0.00  0.00     0.016 C 
ATOM      3  C   LIG d   1      -1.319  81.707 112.758  0.00  0.00     0.038 C 
ATOM      4  C   LIG d   1      -1.428  82.783 113.651  0.00  0.00     0.028 C 
ATOM      5  C   LIG d   1      -0.103  83.492 113.910  0.00  0.00    -0.047 C 
ATOM      6  C   LIG d   1       0.547  83.852 112.554  0.00  0.00     0.091 C 
ENDROOT
BRANCH   1   7
ATOM      7  O   LIG d   1       0.890  83.003 110.281  0.00  0.00    -0.368 OA
BRANCH   7   8
ATOM      8  C   LIG d   1       2.031  82.433 109.595  0.00  0.00     0.119 C 
BRANCH   8   9
ATOM      9  C   LIG d   1       2.375  81.103 110.294  0.00  0.00     0.028 C 
ATOM     10  C   LIG d   1       2.001  79.878 109.443  0.00  0.00     0.006 C 
ENDBRANCH   8   9
BRANCH   8  11
ATOM     11  C   LIG d   1       3.275  83.310 109.759  0.00  0.00     0.028 C 
ATOM     12  C   LIG d   1       4.534  82.501 110.108  0.00  0.00     0.006 C 
ENDBRANCH   8  11
ENDBRANCH   7   8
ENDBRANCH   1   7
BRANCH   6  13
ATOM     13  N   LIG d   1       1.887  84.474 112.715  0.00  0.00    -0.311 N 
ATOM     14  C   LIG d   1       2.922  83.851 113.276  0.00  0.00     0.210 C 
ATOM     15  C   LIG d   1       4.207  84.680 113.361  0.00  0.00     0.109 C 
ATOM     16  O   LIG d   1       2.907  82.679 113.681  0.00  0.00    -0.276 OA
ATOM     17  H   LIG d   1       1.997  85.413 112.385  0.00  0.00     0.149 HD
ENDBRANCH   6  13
BRANCH   5  18
ATOM     18  N   LIG d   1      -0.386  84.674 114.747  0.00  0.00     0.381 N 
ATOM     19  H   LIG d   1       0.319  84.768 115.450  0.00  0.00    -0.090 HD
ATOM     20  H   LIG d   1      -1.271  84.544 115.204  0.00  0.00    -0.090 HD
ATOM     21  H   LIG d   1      -0.413  85.494 114.181  0.00  0.00    -0.090 HD
ENDBRANCH   5  18
BRANCH   3  22
ATOM     22  C   LIG d   1      -2.192  80.640 112.902  0.00  0.00     0.382 C 
ATOM     23  O   LIG d   1      -2.932  80.567 113.913  0.00  0.00    -0.241 OA
ATOM     24  O   LIG d   1      -2.219  79.727 112.056  0.00  0.00    -0.241 OA
ENDBRANCH   3  22
TORSDOF 7
ENDMDL
MODEL 8
REMARK VINA RESULT:      -4.2      2.806      4.569
REMARK  7 active torsions:
REMARK  status: ('A' for Active; 'I' for Inactive)
REMARK    1  A    between atoms: C_2  and  C_3 
REMARK    2  A    between atoms: C_3  and  O_6 
REMARK    3  A    between atoms: C_3  and  C_4 
REMARK    4  A    between atoms: C_7  and  O_6 
REMARK    5  A    between atoms: C_9  and  C_10 
REMARK    6  A    between atoms: N_15  and  C_14 
REMARK    7  A    between atoms: N_20  and  C_19 
REMARK       I    between atoms: C_22  and  N_20 
ROOT
ATOM      1  C   LIG d   1      -0.541  80.988 112.769  0.00  0.00     0.161 C 
ATOM      2  C   LIG d   1      -1.277  79.838 112.436  0.00  0.00     0.016 C 
ATOM      3  C   LIG d   1      -2.086  79.137 113.360  0.00  0.00     0.038 C 
ATOM      4  C   LIG d   1      -2.334  79.628 114.650  0.00  0.00     0.028 C 
ATOM      5  C   LIG d   1      -1.213  80.511 115.188  0.00  0.00    -0.047 C 
ATOM      6  C   LIG d   1      -0.887  81.601 114.142  0.00  0.00     0.091 C 
ENDROOT
BRANCH   1   7
ATOM      7  O   LIG d   1      -0.680  81.976 111.729  0.00  0.00    -0.368 OA
BRANCH   7   8
ATOM      8  C   LIG d   1       0.513  82.265 110.961  0.00  0.00     0.119 C 
BRANCH   8   9
ATOM      9  C   LIG d   1       1.675  81.477 111.597  0.00  0.00     0.028 C 
ATOM     10  C   LIG d   1       2.867  82.379 111.959  0.00  0.00     0.006 C 
ENDBRANCH   8   9
BRANCH   8  11
ATOM     11  C   LIG d   1       0.910  83.739 111.080  0.00  0.00     0.028 C 
ATOM     12  C   LIG d   1      -0.305  84.679 111.147  0.00  0.00     0.006 C 
ENDBRANCH   8  11
ENDBRANCH   7   8
ENDBRANCH   1   7
BRANCH   6  13
ATOM     13  N   LIG d   1       0.257  82.457 114.553  0.00  0.00    -0.311 N 
ATOM     14  C   LIG d   1       0.159  83.773 114.734  0.00  0.00     0.210 C 
ATOM     15  C   LIG d   1       1.463  84.468 115.138  0.00  0.00     0.109 C 
ATOM     16  O   LIG d   1      -0.890  84.426 114.630  0.00  0.00    -0.276 OA
ATOM     17  H   LIG d   1       1.139  82.005 114.690  0.00  0.00     0.149 HD
ENDBRANCH   6  13
BRANCH   5  18
ATOM     18  N   LIG d   1      -1.662  81.065 116.480  0.00  0.00     0.381 N 
ATOM     19  H   LIG d   1      -2.444  81.672 116.334  0.00  0.00    -0.090 HD
ATOM     20  H   LIG d   1      -0.914  81.603 116.880  0.00  0.00    -0.090 HD
ATOM     21  H   LIG d   1      -1.917  80.326 117.097  0.00  0.00    -0.090 HD
ENDBRANCH   5  18
BRANCH   3  22
ATOM     22  C   LIG d   1      -2.624  77.909 113.008  0.00  0.00     0.382 C 
ATOM     23  O   LIG d   1      -3.505  77.843 112.116  0.00  0.00    -0.241 OA
ATOM     24  O   LIG d   1      -2.273  76.872 113.601  0.00  0.00    -0.241 OA
ENDBRANCH   3  22
TORSDOF 7
ENDMDL
MODEL 9
REMARK VINA RESULT:      -4.1      1.904      2.427
REMARK  7 active torsions:
REMARK  status: ('A' for Active; 'I' for Inactive)
REMARK    1  A    between atoms: C_2  and  C_3 
REMARK    2  A    between atoms: C_3  and  O_6 
REMARK    3  A    between atoms: C_3  and  C_4 
REMARK    4  A    between atoms: C_7  and  O_6 
REMARK    5  A    between atoms: C_9  and  C_10 
REMARK    6  A    between atoms: N_15  and  C_14 
REMARK    7  A    between atoms: N_20  and  C_19 
REMARK       I    between atoms: C_22  and  N_20 
ROOT
ATOM      1  C   LIG d   1       0.403  83.654 114.140  0.00  0.00     0.161 C 
ATOM      2  C   LIG d   1      -0.773  83.167 114.735  0.00  0.00     0.016 C 
ATOM      3  C   LIG d   1      -1.727  82.383 114.046  0.00  0.00     0.038 C 
ATOM      4  C   LIG d   1      -1.494  81.903 112.748  0.00  0.00     0.028 C 
ATOM      5  C   LIG d   1      -0.554  82.786 111.935  0.00  0.00    -0.047 C 
ATOM      6  C   LIG d   1       0.728  83.047 112.759  0.00  0.00     0.091 C 
ENDROOT
BRANCH   1   7
ATOM      7  O   LIG d   1       1.515  83.476 115.039  0.00  0.00    -0.368 OA
BRANCH   7   8
ATOM      8  C   LIG d   1       1.660  82.157 115.621  0.00  0.00     0.119 C 
BRANCH   8   9
ATOM      9  C   LIG d   1       1.970  82.343 117.119  0.00  0.00     0.028 C 
ATOM     10  C   LIG d   1       0.738  82.099 118.007  0.00  0.00     0.006 C 
ENDBRANCH   8   9
BRANCH   8  11
ATOM     11  C   LIG d   1       2.875  81.424 115.044  0.00  0.00     0.028 C 
ATOM     12  C   LIG d   1       3.596  80.553 116.085  0.00  0.00     0.006 C 
ENDBRANCH   8  11
ENDBRANCH   7   8
ENDBRANCH   1   7
BRANCH   6  13
ATOM     13  N   LIG d   1       1.665  83.972 112.070  0.00  0.00    -0.311 N 
ATOM     14  C   LIG d   1       2.673  83.559 111.303  0.00  0.00     0.210 C 
ATOM     15  C   LIG d   1       3.531  84.678 110.704  0.00  0.00     0.109 C 
ATOM     16  O   LIG d   1       2.917  82.373 111.036  0.00  0.00    -0.276 OA
ATOM     17  H   LIG d   1       1.521  84.954 112.207  0.00  0.00     0.149 HD
ENDBRANCH   6  13
BRANCH   5  18
ATOM     18  N   LIG d   1      -0.290  82.098 110.657  0.00  0.00     0.381 N 
ATOM     19  H   LIG d   1      -0.241  82.768 109.916  0.00  0.00    -0.090 HD
ATOM     20  H   LIG d   1      -1.049  81.469 110.464  0.00  0.00    -0.090 HD
ATOM     21  H   LIG d   1       0.566  81.591 110.713  0.00  0.00    -0.090 HD
ENDBRANCH   5  18
BRANCH   3  22
ATOM     22  C   LIG d   1      -2.947  82.105 114.642  0.00  0.00     0.382 C 
ATOM     23  O   LIG d   1      -3.719  83.043 114.956  0.00  0.00    -0.241 OA
ATOM     24  O   LIG d   1      -3.267  80.931 114.909  0.00  0.00    -0.241 OA
ENDBRANCH   3  22
TORSDOF 7
ENDMDL
