MODEL 1
REMARK VINA RESULT:      -5.3      0.000      0.000
REMARK  7 active torsions:
REMARK  status: ('A' for Active; 'I' for Inactive)
REMARK    1  A    between atoms: C_2  and  C_3 
REMARK    2  A    between atoms: C_3  and  O_6 
REMARK    3  A    between atoms: C_3  and  C_4 
REMARK    4  A    between atoms: C_7  and  O_6 
REMARK    5  A    between atoms: C_9  and  C_10 
REMARK    6  A    between atoms: N_15  and  C_14 
REMARK    7  A    between atoms: N_20  and  C_19 
REMARK       I    between atoms: C_22  and  N_20 
ROOT
ATOM      1  C   LIG d   1       0.754  82.451 112.555  0.00  0.00     0.161 C 
ATOM      2  C   LIG d   1       1.843  83.162 112.023  0.00  0.00     0.016 C 
ATOM      3  C   LIG d   1       2.419  82.875 110.764  0.00  0.00     0.038 C 
ATOM      4  C   LIG d   1       1.845  81.951 109.879  0.00  0.00     0.028 C 
ATOM      5  C   LIG d   1       1.047  80.857 110.580  0.00  0.00    -0.047 C 
ATOM      6  C   LIG d   1       0.044  81.513 111.556  0.00  0.00     0.091 C 
ENDROOT
BRANCH   1   7
ATOM      7  O   LIG d   1      -0.192  83.370 113.137  0.00  0.00    -0.368 OA
BRANCH   7   8
ATOM      8  C   LIG d   1      -0.263  83.379 114.584  0.00  0.00     0.119 C 
BRANCH   8   9
ATOM      9  C   LIG d   1      -1.754  83.375 114.974  0.00  0.00     0.028 C 
ATOM     10  C   LIG d   1      -2.068  82.357 116.083  0.00  0.00     0.006 C 
ENDBRANCH   8   9
BRANCH   8  11
ATOM     11  C   LIG d   1       0.304  84.679 115.163  0.00  0.00     0.028 C 
ATOM     12  C   LIG d   1       1.558  84.452 116.021  0.00  0.00     0.006 C 
ENDBRANCH   8  11
ENDBRANCH   7   8
ENDBRANCH   1   7
BRANCH   6  13
ATOM     13  N   LIG d   1      -0.719  80.511 112.345  0.00  0.00    -0.311 N 
ATOM     14  C   LIG d   1      -2.031  80.591 112.558  0.00  0.00     0.210 C 
ATOM     15  C   LIG d   1      -2.616  79.464 113.415  0.00  0.00     0.109 C 
ATOM     16  O   LIG d   1      -2.771  81.471 112.093  0.00  0.00    -0.276 OA
ATOM     17  H   LIG d   1      -0.202  79.746 112.733  0.00  0.00     0.149 HD
ENDBRANCH   6  13
BRANCH   5  18
ATOM     18  N   LIG d   1       0.391  80.045 109.537  0.00  0.00     0.381 N 
ATOM     19  H   LIG d   1       0.269  79.108 109.864  0.00  0.00    -0.090 HD
ATOM     20  H   LIG d   1       0.982  80.021 108.724  0.00  0.00    -0.090 HD
ATOM     21  H   LIG d   1      -0.492  80.441 109.302  0.00  0.00    -0.090 HD
ENDBRANCH   5  18
BRANCH   3  22
ATOM     22  C   LIG d   1       3.606  83.490 110.396  0.00  0.00     0.382 C 
ATOM     23  O   LIG d   1       3.588  84.476 109.621  0.00  0.00    -0.241 OA
ATOM     24  O   LIG d   1       4.699  83.043 110.794  0.00  0.00    -0.241 OA
ENDBRANCH   3  22
TORSDOF 7
ENDMDL
MODEL 2
REMARK VINA RESULT:      -5.0      2.286      5.486
REMARK  7 active torsions:
REMARK  status: ('A' for Active; 'I' for Inactive)
REMARK    1  A    between atoms: C_2  and  C_3 
REMARK    2  A    between atoms: C_3  and  O_6 
REMARK    3  A    between atoms: C_3  and  C_4 
REMARK    4  A    between atoms: C_7  and  O_6 
REMARK    5  A    between atoms: C_9  and  C_10 
REMARK    6  A    between atoms: N_15  and  C_14 
REMARK    7  A    between atoms: N_20  and  C_19 
REMARK       I    between atoms: C_22  and  N_20 
ROOT
ATOM      1  C   LIG d   1      -2.436  81.033 113.605  0.00  0.00     0.161 C 
ATOM      2  C   LIG d   1      -2.955  79.860 114.178  0.00  0.00     0.016 C 
ATOM      3  C   LIG d   1      -2.674  78.564 113.689  0.00  0.00     0.038 C 
ATOM      4  C   LIG d   1      -1.726  78.343 112.678  0.00  0.00     0.028 C 
ATOM      5  C   LIG d   1      -1.558  79.529 111.735  0.00  0.00    -0.047 C 
ATOM      6  C   LIG d   1      -1.312  80.805 112.572  0.00  0.00     0.091 C 
ENDROOT
BRANCH   1   7
ATOM      7  O   LIG d   1      -1.988  81.927 114.644  0.00  0.00    -0.368 OA
BRANCH   7   8
ATOM      8  C   LIG d   1      -0.637  81.719 115.125  0.00  0.00     0.119 C 
BRANCH   8   9
ATOM      9  C   LIG d   1      -0.728  81.382 116.626  0.00  0.00     0.028 C 
ATOM     10  C   LIG d   1      -2.032  81.890 117.264  0.00  0.00     0.006 C 
ENDBRANCH   8   9
BRANCH   8  11
ATOM     11  C   LIG d   1       0.186  83.008 115.047  0.00  0.00     0.028 C 
ATOM     12  C   LIG d   1      -0.644  84.220 114.596  0.00  0.00     0.006 C 
ENDBRANCH   8  11
ENDBRANCH   7   8
ENDBRANCH   1   7
BRANCH   6  13
ATOM     13  N   LIG d   1      -1.221  82.026 111.731  0.00  0.00    -0.311 N 
ATOM     14  C   LIG d   1      -0.067  82.552 111.324  0.00  0.00     0.210 C 
ATOM     15  C   LIG d   1      -0.197  83.824 110.481  0.00  0.00     0.109 C 
ATOM     16  O   LIG d   1       1.051  82.066 111.554  0.00  0.00    -0.276 OA
ATOM     17  H   LIG d   1      -2.082  82.467 111.471  0.00  0.00     0.149 HD
ENDBRANCH   6  13
BRANCH   5  18
ATOM     18  N   LIG d   1      -0.446  79.216 110.818  0.00  0.00     0.381 N 
ATOM     19  H   LIG d   1      -0.767  78.607 110.092  0.00  0.00    -0.090 HD
ATOM     20  H   LIG d   1       0.275  78.740 111.333  0.00  0.00    -0.090 HD
ATOM     21  H   LIG d   1      -0.083  80.055 110.423  0.00  0.00    -0.090 HD
ENDBRANCH   5  18
BRANCH   3  22
ATOM     22  C   LIG d   1      -3.374  77.475 114.185  0.00  0.00     0.382 C 
ATOM     23  O   LIG d   1      -2.978  76.310 113.940  0.00  0.00    -0.241 OA
ATOM     24  O   LIG d   1      -4.423  77.642 114.836  0.00  0.00    -0.241 OA
ENDBRANCH   3  22
TORSDOF 7
ENDMDL
MODEL 3
REMARK VINA RESULT:      -4.7      4.119      6.819
REMARK  7 active torsions:
REMARK  status: ('A' for Active; 'I' for Inactive)
REMARK    1  A    between atoms: C_2  and  C_3 
REMARK    2  A    between atoms: C_3  and  O_6 
REMARK    3  A    between atoms: C_3  and  C_4 
REMARK    4  A    between atoms: C_7  and  O_6 
REMARK    5  A    between atoms: C_9  and  C_10 
REMARK    6  A    between atoms: N_15  and  C_14 
REMARK    7  A    between atoms: N_20  and  C_19 
REMARK       I    between atoms: C_22  and  N_20 
ROOT
ATOM      1  C   LIG d   1      -2.098  78.242 114.483  0.00  0.00     0.161 C 
ATOM      2  C   LIG d   1      -2.472  79.166 113.493  0.00  0.00     0.016 C 
ATOM      3  C   LIG d   1      -1.824  80.408 113.304  0.00  0.00     0.038 C 
ATOM      4  C   LIG d   1      -0.655  80.748 114.000  0.00  0.00     0.028 C 
ATOM      5  C   LIG d   1      -0.539  80.066 115.359  0.00  0.00    -0.047 C 
ATOM      6  C   LIG d   1      -0.755  78.546 115.178  0.00  0.00     0.091 C 
ENDROOT
BRANCH   1   7
ATOM      7  O   LIG d   1      -2.086  76.911 113.930  0.00  0.00    -0.368 OA
BRANCH   7   8
ATOM      8  C   LIG d   1      -3.006  75.964 114.526  0.00  0.00     0.119 C 
BRANCH   8   9
ATOM      9  C   LIG d   1      -3.915  76.748 115.492  0.00  0.00     0.028 C 
ATOM     10  C   LIG d   1      -4.041  76.064 116.864  0.00  0.00     0.006 C 
ENDBRANCH   8   9
BRANCH   8  11
ATOM     11  C   LIG d   1      -2.268  74.945 115.400  0.00  0.00     0.028 C 
ATOM     12  C   LIG d   1      -0.905  74.537 114.818  0.00  0.00     0.006 C 
ENDBRANCH   8  11
ENDBRANCH   7   8
ENDBRANCH   1   7
BRANCH   6  13
ATOM     13  N   LIG d   1      -0.741  77.814 116.471  0.00  0.00    -0.311 N 
ATOM     14  C   LIG d   1       0.352  77.252 116.984  0.00  0.00     0.210 C 
ATOM     15  C   LIG d   1       0.142  76.528 118.318  0.00  0.00     0.109 C 
ATOM     16  O   LIG d   1       1.482  77.311 116.476  0.00  0.00    -0.276 OA
ATOM     17  H   LIG d   1      -1.609  77.744 116.965  0.00  0.00     0.149 HD
ENDBRANCH   6  13
BRANCH   5  18
ATOM     18  N   LIG d   1       0.787  80.400 115.913  0.00  0.00     0.381 N 
ATOM     19  H   LIG d   1       0.944  81.385 115.847  0.00  0.00    -0.090 HD
ATOM     20  H   LIG d   1       1.493  79.931 115.373  0.00  0.00    -0.090 HD
ATOM     21  H   LIG d   1       0.841  80.111 116.865  0.00  0.00    -0.090 HD
ENDBRANCH   5  18
BRANCH   3  22
ATOM     22  C   LIG d   1      -2.371  81.344 112.439  0.00  0.00     0.382 C 
ATOM     23  O   LIG d   1      -3.604  81.339 112.208  0.00  0.00    -0.241 OA
ATOM     24  O   LIG d   1      -1.640  82.164 111.852  0.00  0.00    -0.241 OA
ENDBRANCH   3  22
TORSDOF 7
ENDMDL
MODEL 4
REMARK VINA RESULT:      -4.5      3.161      4.856
REMARK  7 active torsions:
REMARK  status: ('A' for Active; 'I' for Inactive)
REMARK    1  A    between atoms: C_2  and  C_3 
REMARK    2  A    between atoms: C_3  and  O_6 
REMARK    3  A    between atoms: C_3  and  C_4 
REMARK    4  A    between atoms: C_7  and  O_6 
REMARK    5  A    between atoms: C_9  and  C_10 
REMARK    6  A    between atoms: N_15  and  C_14 
REMARK    7  A    between atoms: N_20  and  C_19 
REMARK       I    between atoms: C_22  and  N_20 
ROOT
ATOM      1  C   LIG d   1      -2.634  80.372 114.805  0.00  0.00     0.161 C 
ATOM      2  C   LIG d   1      -2.175  81.677 114.560  0.00  0.00     0.016 C 
ATOM      3  C   LIG d   1      -1.484  82.051 113.385  0.00  0.00     0.038 C 
ATOM      4  C   LIG d   1      -1.336  81.174 112.300  0.00  0.00     0.028 C 
ATOM      5  C   LIG d   1      -1.338  79.704 112.706  0.00  0.00    -0.047 C 
ATOM      6  C   LIG d   1      -2.579  79.428 113.586  0.00  0.00     0.091 C 
ENDROOT
BRANCH   1   7
ATOM      7  O   LIG d   1      -3.969  80.417 115.345  0.00  0.00    -0.368 OA
BRANCH   7   8
ATOM      8  C   LIG d   1      -4.115  79.988 116.721  0.00  0.00     0.119 C 
BRANCH   8   9
ATOM      9  C   LIG d   1      -4.277  81.253 117.586  0.00  0.00     0.028 C 
ATOM     10  C   LIG d   1      -2.997  81.596 118.367  0.00  0.00     0.006 C 
ENDBRANCH   8   9
BRANCH   8  11
ATOM     11  C   LIG d   1      -2.841  79.308 117.231  0.00  0.00     0.028 C 
ATOM     12  C   LIG d   1      -3.080  77.860 117.688  0.00  0.00     0.006 C 
ENDBRANCH   8  11
ENDBRANCH   7   8
ENDBRANCH   1   7
BRANCH   6  13
ATOM     13  N   LIG d   1      -2.614  78.033 114.096  0.00  0.00    -0.311 N 
ATOM     14  C   LIG d   1      -3.441  77.101 113.625  0.00  0.00     0.210 C 
ATOM     15  C   LIG d   1      -3.327  75.732 114.305  0.00  0.00     0.109 C 
ATOM     16  O   LIG d   1      -4.236  77.268 112.688  0.00  0.00    -0.276 OA
ATOM     17  H   LIG d   1      -1.981  77.801 114.836  0.00  0.00     0.149 HD
ENDBRANCH   6  13
BRANCH   5  18
ATOM     18  N   LIG d   1      -1.316  78.900 111.470  0.00  0.00     0.381 N 
ATOM     19  H   LIG d   1      -0.730  79.341 110.790  0.00  0.00    -0.090 HD
ATOM     20  H   LIG d   1      -2.248  78.850 111.097  0.00  0.00    -0.090 HD
ATOM     21  H   LIG d   1      -0.979  77.983 111.665  0.00  0.00    -0.090 HD
ENDBRANCH   5  18
BRANCH   3  22
ATOM     22  C   LIG d   1      -0.897  83.305 113.302  0.00  0.00     0.382 C 
ATOM     23  O   LIG d   1      -0.793  83.877 112.190  0.00  0.00    -0.241 OA
ATOM     24  O   LIG d   1      -0.429  83.852 114.319  0.00  0.00    -0.241 OA
ENDBRANCH   3  22
TORSDOF 7
ENDMDL
MODEL 5
REMARK VINA RESULT:      -4.4      4.253      5.784
REMARK  7 active torsions:
REMARK  status: ('A' for Active; 'I' for Inactive)
REMARK    1  A    between atoms: C_2  and  C_3 
REMARK    2  A    between atoms: C_3  and  O_6 
REMARK    3  A    between atoms: C_3  and  C_4 
REMARK    4  A    between atoms: C_7  and  O_6 
REMARK    5  A    between atoms: C_9  and  C_10 
REMARK    6  A    between atoms: N_15  and  C_14 
REMARK    7  A    between atoms: N_20  and  C_19 
REMARK       I    between atoms: C_22  and  N_20 
ROOT
ATOM      1  C   LIG d   1      -1.003  79.611 115.505  0.00  0.00     0.161 C 
ATOM      2  C   LIG d   1      -1.413  80.562 114.555  0.00  0.00     0.016 C 
ATOM      3  C   LIG d   1      -2.333  80.281 113.520  0.00  0.00     0.038 C 
ATOM      4  C   LIG d   1      -3.027  79.063 113.455  0.00  0.00     0.028 C 
ATOM      5  C   LIG d   1      -2.273  77.902 114.093  0.00  0.00    -0.047 C 
ATOM      6  C   LIG d   1      -1.833  78.311 115.517  0.00  0.00     0.091 C 
ENDROOT
BRANCH   1   7
ATOM      7  O   LIG d   1      -0.987  80.208 116.817  0.00  0.00    -0.368 OA
BRANCH   7   8
ATOM      8  C   LIG d   1      -1.461  81.574 116.902  0.00  0.00     0.119 C 
BRANCH   8   9
ATOM      9  C   LIG d   1      -0.374  82.397 117.622  0.00  0.00     0.028 C 
ATOM     10  C   LIG d   1      -0.492  82.311 119.153  0.00  0.00     0.006 C 
ENDBRANCH   8   9
BRANCH   8  11
ATOM     11  C   LIG d   1      -2.704  81.679 117.790  0.00  0.00     0.028 C 
ATOM     12  C   LIG d   1      -3.982  81.195 117.087  0.00  0.00     0.006 C 
ENDBRANCH   8  11
ENDBRANCH   7   8
ENDBRANCH   1   7
BRANCH   6  13
ATOM     13  N   LIG d   1      -1.016  77.262 116.181  0.00  0.00    -0.311 N 
ATOM     14  C   LIG d   1      -1.530  76.328 116.980  0.00  0.00     0.210 C 
ATOM     15  C   LIG d   1      -0.509  75.355 117.578  0.00  0.00     0.109 C 
ATOM     16  O   LIG d   1      -2.738  76.193 117.224  0.00  0.00    -0.276 OA
ATOM     17  H   LIG d   1      -0.029  77.278 116.013  0.00  0.00     0.149 HD
ENDBRANCH   6  13
BRANCH   5  18
ATOM     18  N   LIG d   1      -3.166  76.728 114.078  0.00  0.00     0.381 N 
ATOM     19  H   LIG d   1      -3.610  76.629 114.970  0.00  0.00    -0.090 HD
ATOM     20  H   LIG d   1      -2.618  75.904 113.905  0.00  0.00    -0.090 HD
ATOM     21  H   LIG d   1      -3.855  76.833 113.366  0.00  0.00    -0.090 HD
ENDBRANCH   5  18
BRANCH   3  22
ATOM     22  C   LIG d   1      -2.538  81.210 112.511  0.00  0.00     0.382 C 
ATOM     23  O   LIG d   1      -3.704  81.477 112.133  0.00  0.00    -0.241 OA
ATOM     24  O   LIG d   1      -1.570  81.751 111.945  0.00  0.00    -0.241 OA
ENDBRANCH   3  22
TORSDOF 7
ENDMDL
MODEL 6
REMARK VINA RESULT:      -4.2      3.344      5.462
REMARK  7 active torsions:
REMARK  status: ('A' for Active; 'I' for Inactive)
REMARK    1  A    between atoms: C_2  and  C_3 
REMARK    2  A    between atoms: C_3  and  O_6 
REMARK    3  A    between atoms: C_3  and  C_4 
REMARK    4  A    between atoms: C_7  and  O_6 
REMARK    5  A    between atoms: C_9  and  C_10 
REMARK    6  A    between atoms: N_15  and  C_14 
REMARK    7  A    between atoms: N_20  and  C_19 
REMARK       I    between atoms: C_22  and  N_20 
ROOT
ATOM      1  C   LIG d   1      -2.440  81.018 114.531  0.00  0.00     0.161 C 
ATOM      2  C   LIG d   1      -2.189  81.733 113.348  0.00  0.00     0.016 C 
ATOM      3  C   LIG d   1      -0.900  82.160 112.956  0.00  0.00     0.038 C 
ATOM      4  C   LIG d   1       0.254  81.768 113.650  0.00  0.00     0.028 C 
ATOM      5  C   LIG d   1       0.003  81.472 115.124  0.00  0.00    -0.047 C 
ATOM      6  C   LIG d   1      -1.180  80.484 115.244  0.00  0.00     0.091 C 
ENDROOT
BRANCH   1   7
ATOM      7  O   LIG d   1      -3.359  79.940 114.264  0.00  0.00    -0.368 OA
BRANCH   7   8
ATOM      8  C   LIG d   1      -2.768  78.631 114.072  0.00  0.00     0.119 C 
BRANCH   8   9
ATOM      9  C   LIG d   1      -2.915  78.272 112.581  0.00  0.00     0.028 C 
ATOM     10  C   LIG d   1      -1.674  78.658 111.759  0.00  0.00     0.006 C 
ENDBRANCH   8   9
BRANCH   8  11
ATOM     11  C   LIG d   1      -3.548  77.551 114.828  0.00  0.00     0.028 C 
ATOM     12  C   LIG d   1      -4.403  78.123 115.970  0.00  0.00     0.006 C 
ENDBRANCH   8  11
ENDBRANCH   7   8
ENDBRANCH   1   7
BRANCH   6  13
ATOM     13  N   LIG d   1      -1.546  80.207 116.657  0.00  0.00    -0.311 N 
ATOM     14  C   LIG d   1      -1.082  79.164 117.344  0.00  0.00     0.210 C 
ATOM     15  C   LIG d   1      -1.601  79.053 118.780  0.00  0.00     0.109 C 
ATOM     16  O   LIG d   1      -0.263  78.340 116.910  0.00  0.00    -0.276 OA
ATOM     17  H   LIG d   1      -2.182  80.843 117.097  0.00  0.00     0.149 HD
ENDBRANCH   6  13
BRANCH   5  18
ATOM     18  N   LIG d   1       1.257  80.942 115.692  0.00  0.00     0.381 N 
ATOM     19  H   LIG d   1       1.621  81.584 116.368  0.00  0.00    -0.090 HD
ATOM     20  H   LIG d   1       1.933  80.845 114.955  0.00  0.00    -0.090 HD
ATOM     21  H   LIG d   1       1.092  80.057 116.119  0.00  0.00    -0.090 HD
ENDBRANCH   5  18
BRANCH   3  22
ATOM     22  C   LIG d   1      -0.760  83.024 111.880  0.00  0.00     0.382 C 
ATOM     23  O   LIG d   1      -0.627  84.256 112.078  0.00  0.00    -0.241 OA
ATOM     24  O   LIG d   1      -0.809  82.592 110.713  0.00  0.00    -0.241 OA
ENDBRANCH   3  22
TORSDOF 7
ENDMDL
MODEL 7
REMARK VINA RESULT:      -4.2      2.886      5.647
REMARK  7 active torsions:
REMARK  status: ('A' for Active; 'I' for Inactive)
REMARK    1  A    between atoms: C_2  and  C_3 
REMARK    2  A    between atoms: C_3  and  O_6 
REMARK    3  A    between atoms: C_3  and  C_4 
REMARK    4  A    between atoms: C_7  and  O_6 
REMARK    5  A    between atoms: C_9  and  C_10 
REMARK    6  A    between atoms: N_15  and  C_14 
REMARK    7  A    between atoms: N_20  and  C_19 
REMARK       I    between atoms: C_22  and  N_20 
ROOT
ATOM      1  C   LIG d   1      -1.460  80.455 114.307  0.00  0.00     0.161 C 
ATOM      2  C   LIG d   1      -2.415  79.445 114.509  0.00  0.00     0.016 C 
ATOM      3  C   LIG d   1      -2.715  78.455 113.545  0.00  0.00     0.038 C 
ATOM      4  C   LIG d   1      -1.968  78.316 112.367  0.00  0.00     0.028 C 
ATOM      5  C   LIG d   1      -1.332  79.619 111.896  0.00  0.00    -0.047 C 
ATOM      6  C   LIG d   1      -0.556  80.253 113.073  0.00  0.00     0.091 C 
ENDROOT
BRANCH   1   7
ATOM      7  O   LIG d   1      -0.658  80.614 115.495  0.00  0.00    -0.368 OA
BRANCH   7   8
ATOM      8  C   LIG d   1      -1.109  81.617 116.438  0.00  0.00     0.119 C 
BRANCH   8   9
ATOM      9  C   LIG d   1       0.049  82.614 116.641  0.00  0.00     0.028 C 
ATOM     10  C   LIG d   1       1.370  82.111 116.035  0.00  0.00     0.006 C 
ENDBRANCH   8   9
BRANCH   8  11
ATOM     11  C   LIG d   1      -1.365  81.007 117.819  0.00  0.00     0.028 C 
ATOM     12  C   LIG d   1      -1.767  82.056 118.869  0.00  0.00     0.006 C 
ENDBRANCH   8  11
ENDBRANCH   7   8
ENDBRANCH   1   7
BRANCH   6  13
ATOM     13  N   LIG d   1       0.027  81.574 112.722  0.00  0.00    -0.311 N 
ATOM     14  C   LIG d   1      -0.639  82.516 112.056  0.00  0.00     0.210 C 
ATOM     15  C   LIG d   1       0.155  83.797 111.780  0.00  0.00     0.109 C 
ATOM     16  O   LIG d   1      -1.823  82.425 111.697  0.00  0.00    -0.276 OA
ATOM     17  H   LIG d   1       0.973  81.745 113.002  0.00  0.00     0.149 HD
ENDBRANCH   6  13
BRANCH   5  18
ATOM     18  N   LIG d   1      -0.472  79.304 110.740  0.00  0.00     0.381 N 
ATOM     19  H   LIG d   1      -0.811  79.776 109.926  0.00  0.00    -0.090 HD
ATOM     20  H   LIG d   1      -0.508  78.314 110.568  0.00  0.00    -0.090 HD
ATOM     21  H   LIG d   1       0.467  79.581 110.927  0.00  0.00    -0.090 HD
ENDBRANCH   5  18
BRANCH   3  22
ATOM     22  C   LIG d   1      -3.801  77.614 113.740  0.00  0.00     0.382 C 
ATOM     23  O   LIG d   1      -4.173  76.848 112.818  0.00  0.00    -0.241 OA
ATOM     24  O   LIG d   1      -4.440  77.644 114.808  0.00  0.00    -0.241 OA
ENDBRANCH   3  22
TORSDOF 7
ENDMDL
MODEL 8
REMARK VINA RESULT:      -4.2      4.493      7.252
REMARK  7 active torsions:
REMARK  status: ('A' for Active; 'I' for Inactive)
REMARK    1  A    between atoms: C_2  and  C_3 
REMARK    2  A    between atoms: C_3  and  O_6 
REMARK    3  A    between atoms: C_3  and  C_4 
REMARK    4  A    between atoms: C_7  and  O_6 
REMARK    5  A    between atoms: C_9  and  C_10 
REMARK    6  A    between atoms: N_15  and  C_14 
REMARK    7  A    between atoms: N_20  and  C_19 
REMARK       I    between atoms: C_22  and  N_20 
ROOT
ATOM      1  C   LIG d   1      -0.694  78.499 115.050  0.00  0.00     0.161 C 
ATOM      2  C   LIG d   1      -1.904  78.240 114.384  0.00  0.00     0.016 C 
ATOM      3  C   LIG d   1      -2.561  76.989 114.422  0.00  0.00     0.038 C 
ATOM      4  C   LIG d   1      -2.128  75.949 115.259  0.00  0.00     0.028 C 
ATOM      5  C   LIG d   1      -0.634  75.995 115.558  0.00  0.00    -0.047 C 
ATOM      6  C   LIG d   1      -0.265  77.411 116.057  0.00  0.00     0.091 C 
ENDROOT
BRANCH   1   7
ATOM      7  O   LIG d   1      -0.759  79.785 115.699  0.00  0.00    -0.368 OA
BRANCH   7   8
ATOM      8  C   LIG d   1      -1.100  80.909 114.852  0.00  0.00     0.119 C 
BRANCH   8   9
ATOM      9  C   LIG d   1       0.185  81.346 114.122  0.00  0.00     0.028 C 
ATOM     10  C   LIG d   1       0.059  81.234 112.593  0.00  0.00     0.006 C 
ENDBRANCH   8   9
BRANCH   8  11
ATOM     11  C   LIG d   1      -1.527  82.123 115.682  0.00  0.00     0.028 C 
ATOM     12  C   LIG d   1      -2.363  81.739 116.913  0.00  0.00     0.006 C 
ENDBRANCH   8  11
ENDBRANCH   7   8
ENDBRANCH   1   7
BRANCH   6  13
ATOM     13  N   LIG d   1       1.194  77.567 116.293  0.00  0.00    -0.311 N 
ATOM     14  C   LIG d   1       1.762  77.425 117.489  0.00  0.00     0.210 C 
ATOM     15  C   LIG d   1       3.278  77.648 117.515  0.00  0.00     0.109 C 
ATOM     16  O   LIG d   1       1.160  77.103 118.524  0.00  0.00    -0.276 OA
ATOM     17  H   LIG d   1       1.762  77.798 115.501  0.00  0.00     0.149 HD
ENDBRANCH   6  13
BRANCH   5  18
ATOM     18  N   LIG d   1      -0.345  74.940 116.547  0.00  0.00     0.381 N 
ATOM     19  H   LIG d   1      -1.013  74.981 117.291  0.00  0.00    -0.090 HD
ATOM     20  H   LIG d   1       0.569  75.099 116.935  0.00  0.00    -0.090 HD
ATOM     21  H   LIG d   1      -0.377  74.045 116.111  0.00  0.00    -0.090 HD
ENDBRANCH   5  18
BRANCH   3  22
ATOM     22  C   LIG d   1      -3.643  76.755 113.587  0.00  0.00     0.382 C 
ATOM     23  O   LIG d   1      -4.406  75.784 113.807  0.00  0.00    -0.241 OA
ATOM     24  O   LIG d   1      -3.839  77.477 112.590  0.00  0.00    -0.241 OA
ENDBRANCH   3  22
TORSDOF 7
ENDMDL
MODEL 9
REMARK VINA RESULT:      -4.1      4.291      6.597
REMARK  7 active torsions:
REMARK  status: ('A' for Active; 'I' for Inactive)
REMARK    1  A    between atoms: C_2  and  C_3 
REMARK    2  A    between atoms: C_3  and  O_6 
REMARK    3  A    between atoms: C_3  and  C_4 
REMARK    4  A    between atoms: C_7  and  O_6 
REMARK    5  A    between atoms: C_9  and  C_10 
REMARK    6  A    between atoms: N_15  and  C_14 
REMARK    7  A    between atoms: N_20  and  C_19 
REMARK       I    between atoms: C_22  and  N_20 
ROOT
ATOM      1  C   LIG d   1      -2.320  78.801 115.702  0.00  0.00     0.161 C 
ATOM      2  C   LIG d   1      -2.615  80.164 115.532  0.00  0.00     0.016 C 
ATOM      3  C   LIG d   1      -2.526  80.829 114.288  0.00  0.00     0.038 C 
ATOM      4  C   LIG d   1      -2.279  80.138 113.093  0.00  0.00     0.028 C 
ATOM      5  C   LIG d   1      -1.480  78.854 113.290  0.00  0.00    -0.047 C 
ATOM      6  C   LIG d   1      -2.157  78.005 114.390  0.00  0.00     0.091 C 
ENDROOT
BRANCH   1   7
ATOM      7  O   LIG d   1      -3.319  78.186 116.540  0.00  0.00    -0.368 OA
BRANCH   7   8
ATOM      8  C   LIG d   1      -2.983  78.059 117.944  0.00  0.00     0.119 C 
BRANCH   8   9
ATOM      9  C   LIG d   1      -1.489  77.690 118.031  0.00  0.00     0.028 C 
ATOM     10  C   LIG d   1      -0.745  78.508 119.100  0.00  0.00     0.006 C 
ENDBRANCH   8   9
BRANCH   8  11
ATOM     11  C   LIG d   1      -3.728  76.887 118.591  0.00  0.00     0.028 C 
ATOM     12  C   LIG d   1      -3.124  75.522 118.226  0.00  0.00     0.006 C 
ENDBRANCH   8  11
ENDBRANCH   7   8
ENDBRANCH   1   7
BRANCH   6  13
ATOM     13  N   LIG d   1      -1.392  76.770 114.705  0.00  0.00    -0.311 N 
ATOM     14  C   LIG d   1      -1.928  75.551 114.687  0.00  0.00     0.210 C 
ATOM     15  C   LIG d   1      -0.969  74.417 115.062  0.00  0.00     0.109 C 
ATOM     16  O   LIG d   1      -3.099  75.298 114.364  0.00  0.00    -0.276 OA
ATOM     17  H   LIG d   1      -0.427  76.881 114.947  0.00  0.00     0.149 HD
ENDBRANCH   6  13
BRANCH   5  18
ATOM     18  N   LIG d   1      -1.414  78.165 111.987  0.00  0.00     0.381 N 
ATOM     19  H   LIG d   1      -2.312  78.187 111.547  0.00  0.00    -0.090 HD
ATOM     20  H   LIG d   1      -1.161  77.205 112.139  0.00  0.00    -0.090 HD
ATOM     21  H   LIG d   1      -0.739  78.606 111.402  0.00  0.00    -0.090 HD
ENDBRANCH   5  18
BRANCH   3  22
ATOM     22  C   LIG d   1      -2.645  82.210 114.237  0.00  0.00     0.382 C 
ATOM     23  O   LIG d   1      -3.653  82.771 114.731  0.00  0.00    -0.241 OA
ATOM     24  O   LIG d   1      -1.779  82.898 113.665  0.00  0.00    -0.241 OA
ENDBRANCH   3  22
TORSDOF 7
ENDMDL
