MODEL 1
REMARK VINA RESULT:      -5.9      0.000      0.000
REMARK  7 active torsions:
REMARK  status: ('A' for Active; 'I' for Inactive)
REMARK    1  A    between atoms: C_2  and  C_3 
REMARK    2  A    between atoms: C_3  and  O_6 
REMARK    3  A    between atoms: C_3  and  C_4 
REMARK    4  A    between atoms: C_7  and  O_6 
REMARK    5  A    between atoms: C_9  and  C_10 
REMARK    6  A    between atoms: N_15  and  C_14 
REMARK    7  A    between atoms: N_20  and  C_19 
REMARK       I    between atoms: C_22  and  N_20 
ROOT
ATOM      1  C   LIG d   1       0.141  83.282 111.992  0.00  0.00     0.161 C 
ATOM      2  C   LIG d   1      -1.046  82.725 112.498  0.00  0.00     0.016 C 
ATOM      3  C   LIG d   1      -1.427  81.380 112.285  0.00  0.00     0.038 C 
ATOM      4  C   LIG d   1      -0.568  80.454 111.675  0.00  0.00     0.028 C 
ATOM      5  C   LIG d   1       0.421  81.092 110.705  0.00  0.00    -0.047 C 
ATOM      6  C   LIG d   1       1.143  82.257 111.419  0.00  0.00     0.091 C 
ENDROOT
BRANCH   1   7
ATOM      7  O   LIG d   1       0.773  84.088 113.005  0.00  0.00    -0.368 OA
BRANCH   7   8
ATOM      8  C   LIG d   1       1.974  83.538 113.600  0.00  0.00     0.119 C 
BRANCH   8   9
ATOM      9  C   LIG d   1       1.617  83.083 115.028  0.00  0.00     0.028 C 
ATOM     10  C   LIG d   1       1.560  81.552 115.159  0.00  0.00     0.006 C 
ENDBRANCH   8   9
BRANCH   8  11
ATOM     11  C   LIG d   1       3.052  84.613 113.774  0.00  0.00     0.028 C 
ATOM     12  C   LIG d   1       3.607  84.673 115.206  0.00  0.00     0.006 C 
ENDBRANCH   8  11
ENDBRANCH   7   8
ENDBRANCH   1   7
BRANCH   6  13
ATOM     13  N   LIG d   1       2.068  82.990 110.516  0.00  0.00    -0.311 N 
ATOM     14  C   LIG d   1       3.368  82.716 110.418  0.00  0.00     0.210 C 
ATOM     15  C   LIG d   1       4.144  83.604 109.441  0.00  0.00     0.109 C 
ATOM     16  O   LIG d   1       3.945  81.800 111.024  0.00  0.00    -0.276 OA
ATOM     17  H   LIG d   1       1.677  83.728 109.964  0.00  0.00     0.149 HD
ENDBRANCH   6  13
BRANCH   5  18
ATOM     18  N   LIG d   1       1.342  80.034 110.249  0.00  0.00     0.381 N 
ATOM     19  H   LIG d   1       2.110  80.444 109.755  0.00  0.00    -0.090 HD
ATOM     20  H   LIG d   1       0.851  79.425 109.618  0.00  0.00    -0.090 HD
ATOM     21  H   LIG d   1       1.679  79.515 111.029  0.00  0.00    -0.090 HD
ENDBRANCH   5  18
BRANCH   3  22
ATOM     22  C   LIG d   1      -2.697  80.960 112.649  0.00  0.00     0.382 C 
ATOM     23  O   LIG d   1      -2.859  79.829 113.167  0.00  0.00    -0.241 OA
ATOM     24  O   LIG d   1      -3.689  81.680 112.426  0.00  0.00    -0.241 OA
ENDBRANCH   3  22
TORSDOF 7
ENDMDL
MODEL 2
REMARK VINA RESULT:      -5.3      1.778      4.816
REMARK  7 active torsions:
REMARK  status: ('A' for Active; 'I' for Inactive)
REMARK    1  A    between atoms: C_2  and  C_3 
REMARK    2  A    between atoms: C_3  and  O_6 
REMARK    3  A    between atoms: C_3  and  C_4 
REMARK    4  A    between atoms: C_7  and  O_6 
REMARK    5  A    between atoms: C_9  and  C_10 
REMARK    6  A    between atoms: N_15  and  C_14 
REMARK    7  A    between atoms: N_20  and  C_19 
REMARK       I    between atoms: C_22  and  N_20 
ROOT
ATOM      1  C   LIG d   1       1.372  81.366 112.563  0.00  0.00     0.161 C 
ATOM      2  C   LIG d   1       2.296  82.142 111.844  0.00  0.00     0.016 C 
ATOM      3  C   LIG d   1       2.365  82.161 110.432  0.00  0.00     0.038 C 
ATOM      4  C   LIG d   1       1.408  81.516 109.635  0.00  0.00     0.028 C 
ATOM      5  C   LIG d   1       0.763  80.314 110.316  0.00  0.00    -0.047 C 
ATOM      6  C   LIG d   1       0.248  80.743 111.709  0.00  0.00     0.091 C 
ENDROOT
BRANCH   1   7
ATOM      7  O   LIG d   1       0.811  82.146 113.638  0.00  0.00    -0.368 OA
BRANCH   7   8
ATOM      8  C   LIG d   1       1.441  83.425 113.894  0.00  0.00     0.119 C 
BRANCH   8   9
ATOM      9  C   LIG d   1       1.919  83.421 115.358  0.00  0.00     0.028 C 
ATOM     10  C   LIG d   1       1.604  82.097 116.075  0.00  0.00     0.006 C 
ENDBRANCH   8   9
BRANCH   8  11
ATOM     11  C   LIG d   1       0.431  84.573 113.800  0.00  0.00     0.028 C 
ATOM     12  C   LIG d   1      -0.373  84.554 112.490  0.00  0.00     0.006 C 
ENDBRANCH   8  11
ENDBRANCH   7   8
ENDBRANCH   1   7
BRANCH   6  13
ATOM     13  N   LIG d   1      -0.322  79.606 112.478  0.00  0.00    -0.311 N 
ATOM     14  C   LIG d   1      -1.611  79.270 112.443  0.00  0.00     0.210 C 
ATOM     15  C   LIG d   1      -1.992  78.078 113.326  0.00  0.00     0.109 C 
ATOM     16  O   LIG d   1      -2.467  79.827 111.740  0.00  0.00    -0.276 OA
ATOM     17  H   LIG d   1       0.309  79.080 113.051  0.00  0.00     0.149 HD
ENDBRANCH   6  13
BRANCH   5  18
ATOM     18  N   LIG d   1      -0.310  79.822 109.430  0.00  0.00     0.381 N 
ATOM     19  H   LIG d   1       0.015  79.028 108.914  0.00  0.00    -0.090 HD
ATOM     20  H   LIG d   1      -0.549  80.546 108.777  0.00  0.00    -0.090 HD
ATOM     21  H   LIG d   1      -1.110  79.572 109.969  0.00  0.00    -0.090 HD
ENDBRANCH   5  18
BRANCH   3  22
ATOM     22  C   LIG d   1       3.424  82.798 109.803  0.00  0.00     0.382 C 
ATOM     23  O   LIG d   1       4.497  82.181 109.603  0.00  0.00    -0.241 OA
ATOM     24  O   LIG d   1       3.334  83.996 109.474  0.00  0.00    -0.241 OA
ENDBRANCH   3  22
TORSDOF 7
ENDMDL
MODEL 3
REMARK VINA RESULT:      -4.9      1.847      4.887
REMARK  7 active torsions:
REMARK  status: ('A' for Active; 'I' for Inactive)
REMARK    1  A    between atoms: C_2  and  C_3 
REMARK    2  A    between atoms: C_3  and  O_6 
REMARK    3  A    between atoms: C_3  and  C_4 
REMARK    4  A    between atoms: C_7  and  O_6 
REMARK    5  A    between atoms: C_9  and  C_10 
REMARK    6  A    between atoms: N_15  and  C_14 
REMARK    7  A    between atoms: N_20  and  C_19 
REMARK       I    between atoms: C_22  and  N_20 
ROOT
ATOM      1  C   LIG d   1       1.356  81.576 112.537  0.00  0.00     0.161 C 
ATOM      2  C   LIG d   1       2.280  82.345 111.810  0.00  0.00     0.016 C 
ATOM      3  C   LIG d   1       2.417  82.274 110.405  0.00  0.00     0.038 C 
ATOM      4  C   LIG d   1       1.529  81.534 109.610  0.00  0.00     0.028 C 
ATOM      5  C   LIG d   1       0.905  80.350 110.341  0.00  0.00    -0.047 C 
ATOM      6  C   LIG d   1       0.304  80.845 111.676  0.00  0.00     0.091 C 
ENDROOT
BRANCH   1   7
ATOM      7  O   LIG d   1       0.709  82.398 113.529  0.00  0.00    -0.368 OA
BRANCH   7   8
ATOM      8  C   LIG d   1       1.153  82.215 114.896  0.00  0.00     0.119 C 
BRANCH   8   9
ATOM      9  C   LIG d   1       2.129  83.362 115.222  0.00  0.00     0.028 C 
ATOM     10  C   LIG d   1       1.402  84.674 115.561  0.00  0.00     0.006 C 
ENDBRANCH   8   9
BRANCH   8  11
ATOM     11  C   LIG d   1       1.970  80.930 115.049  0.00  0.00     0.028 C 
ATOM     12  C   LIG d   1       2.523  80.741 116.471  0.00  0.00     0.006 C 
ENDBRANCH   8  11
ENDBRANCH   7   8
ENDBRANCH   1   7
BRANCH   6  13
ATOM     13  N   LIG d   1      -0.254  79.736 112.493  0.00  0.00    -0.311 N 
ATOM     14  C   LIG d   1      -1.531  79.361 112.445  0.00  0.00     0.210 C 
ATOM     15  C   LIG d   1      -1.901  78.208 113.384  0.00  0.00     0.109 C 
ATOM     16  O   LIG d   1      -2.384  79.851 111.692  0.00  0.00    -0.276 OA
ATOM     17  H   LIG d   1       0.377  79.262 113.110  0.00  0.00     0.149 HD
ENDBRANCH   6  13
BRANCH   5  18
ATOM     18  N   LIG d   1      -0.100  79.751 109.442  0.00  0.00     0.381 N 
ATOM     19  H   LIG d   1      -1.019  80.015 109.737  0.00  0.00    -0.090 HD
ATOM     20  H   LIG d   1      -0.027  78.750 109.494  0.00  0.00    -0.090 HD
ATOM     21  H   LIG d   1       0.056  80.055 108.506  0.00  0.00    -0.090 HD
ENDBRANCH   5  18
BRANCH   3  22
ATOM     22  C   LIG d   1       3.477  82.918 109.785  0.00  0.00     0.382 C 
ATOM     23  O   LIG d   1       4.533  82.288 109.534  0.00  0.00    -0.241 OA
ATOM     24  O   LIG d   1       3.407  84.131 109.513  0.00  0.00    -0.241 OA
ENDBRANCH   3  22
TORSDOF 7
ENDMDL
MODEL 4
REMARK VINA RESULT:      -4.7      6.211      8.189
REMARK  7 active torsions:
REMARK  status: ('A' for Active; 'I' for Inactive)
REMARK    1  A    between atoms: C_2  and  C_3 
REMARK    2  A    between atoms: C_3  and  O_6 
REMARK    3  A    between atoms: C_3  and  C_4 
REMARK    4  A    between atoms: C_7  and  O_6 
REMARK    5  A    between atoms: C_9  and  C_10 
REMARK    6  A    between atoms: N_15  and  C_14 
REMARK    7  A    between atoms: N_20  and  C_19 
REMARK       I    between atoms: C_22  and  N_20 
ROOT
ATOM      1  C   LIG d   1      -1.208  76.774 115.796  0.00  0.00     0.161 C 
ATOM      2  C   LIG d   1      -1.491  77.330 114.537  0.00  0.00     0.016 C 
ATOM      3  C   LIG d   1      -2.634  76.992 113.776  0.00  0.00     0.038 C 
ATOM      4  C   LIG d   1      -3.656  76.182 114.294  0.00  0.00     0.028 C 
ATOM      5  C   LIG d   1      -3.173  75.200 115.355  0.00  0.00    -0.047 C 
ATOM      6  C   LIG d   1      -2.368  75.974 116.425  0.00  0.00     0.091 C 
ENDROOT
BRANCH   1   7
ATOM      7  O   LIG d   1      -0.766  77.807 116.698  0.00  0.00    -0.368 OA
BRANCH   7   8
ATOM      8  C   LIG d   1       0.639  77.786 117.051  0.00  0.00     0.119 C 
BRANCH   8   9
ATOM      9  C   LIG d   1       0.736  77.412 118.543  0.00  0.00     0.028 C 
ATOM     10  C   LIG d   1       1.703  76.242 118.793  0.00  0.00     0.006 C 
ENDBRANCH   8   9
BRANCH   8  11
ATOM     11  C   LIG d   1       1.262  79.181 116.941  0.00  0.00     0.028 C 
ATOM     12  C   LIG d   1       2.752  79.140 116.566  0.00  0.00     0.006 C 
ENDBRANCH   8  11
ENDBRANCH   7   8
ENDBRANCH   1   7
BRANCH   6  13
ATOM     13  N   LIG d   1      -1.787  75.075 117.456  0.00  0.00    -0.311 N 
ATOM     14  C   LIG d   1      -2.035  75.198 118.759  0.00  0.00     0.210 C 
ATOM     15  C   LIG d   1      -1.319  74.181 119.653  0.00  0.00     0.109 C 
ATOM     16  O   LIG d   1      -2.805  76.033 119.257  0.00  0.00    -0.276 OA
ATOM     17  H   LIG d   1      -1.175  74.350 117.137  0.00  0.00     0.149 HD
ENDBRANCH   6  13
BRANCH   5  18
ATOM     18  N   LIG d   1      -4.360  74.519 115.905  0.00  0.00     0.381 N 
ATOM     19  H   LIG d   1      -4.188  73.535 115.965  0.00  0.00    -0.090 HD
ATOM     20  H   LIG d   1      -5.136  74.666 115.285  0.00  0.00    -0.090 HD
ATOM     21  H   LIG d   1      -4.573  74.881 116.808  0.00  0.00    -0.090 HD
ENDBRANCH   5  18
BRANCH   3  22
ATOM     22  C   LIG d   1      -2.743  77.434 112.467  0.00  0.00     0.382 C 
ATOM     23  O   LIG d   1      -2.243  76.760 111.534  0.00  0.00    -0.241 OA
ATOM     24  O   LIG d   1      -3.296  78.520 112.211  0.00  0.00    -0.241 OA
ENDBRANCH   3  22
TORSDOF 7
ENDMDL
MODEL 5
REMARK VINA RESULT:      -4.2      2.593      5.582
REMARK  7 active torsions:
REMARK  status: ('A' for Active; 'I' for Inactive)
REMARK    1  A    between atoms: C_2  and  C_3 
REMARK    2  A    between atoms: C_3  and  O_6 
REMARK    3  A    between atoms: C_3  and  C_4 
REMARK    4  A    between atoms: C_7  and  O_6 
REMARK    5  A    between atoms: C_9  and  C_10 
REMARK    6  A    between atoms: N_15  and  C_14 
REMARK    7  A    between atoms: N_20  and  C_19 
REMARK       I    between atoms: C_22  and  N_20 
ROOT
ATOM      1  C   LIG d   1       1.353  84.056 113.857  0.00  0.00     0.161 C 
ATOM      2  C   LIG d   1       2.418  84.509 114.652  0.00  0.00     0.016 C 
ATOM      3  C   LIG d   1       3.054  83.710 115.630  0.00  0.00     0.038 C 
ATOM      4  C   LIG d   1       2.764  82.346 115.775  0.00  0.00     0.028 C 
ATOM      5  C   LIG d   1       1.349  81.977 115.342  0.00  0.00    -0.047 C 
ATOM      6  C   LIG d   1       1.097  82.536 113.923  0.00  0.00     0.091 C 
ENDROOT
BRANCH   1   7
ATOM      7  O   LIG d   1       1.552  84.471 112.491  0.00  0.00    -0.368 OA
BRANCH   7   8
ATOM      8  C   LIG d   1       2.113  83.478 111.598  0.00  0.00     0.119 C 
BRANCH   8   9
ATOM      9  C   LIG d   1       3.498  83.986 111.152  0.00  0.00     0.028 C 
ATOM     10  C   LIG d   1       4.292  82.921 110.377  0.00  0.00     0.006 C 
ENDBRANCH   8   9
BRANCH   8  11
ATOM     11  C   LIG d   1       1.292  83.358 110.311  0.00  0.00     0.028 C 
ATOM     12  C   LIG d   1       0.026  84.230 110.328  0.00  0.00     0.006 C 
ENDBRANCH   8  11
ENDBRANCH   7   8
ENDBRANCH   1   7
BRANCH   6  13
ATOM     13  N   LIG d   1      -0.293  82.293 113.457  0.00  0.00    -0.311 N 
ATOM     14  C   LIG d   1      -0.633  81.279 112.663  0.00  0.00     0.210 C 
ATOM     15  C   LIG d   1      -2.117  81.223 112.285  0.00  0.00     0.109 C 
ATOM     16  O   LIG d   1       0.147  80.402 112.263  0.00  0.00    -0.276 OA
ATOM     17  H   LIG d   1      -0.995  82.939 113.760  0.00  0.00     0.149 HD
ENDBRANCH   6  13
BRANCH   5  18
ATOM     18  N   LIG d   1       1.228  80.509 115.416  0.00  0.00     0.381 N 
ATOM     19  H   LIG d   1       0.433  80.262 115.969  0.00  0.00    -0.090 HD
ATOM     20  H   LIG d   1       2.049  80.137 115.860  0.00  0.00    -0.090 HD
ATOM     21  H   LIG d   1       1.136  80.128 114.500  0.00  0.00    -0.090 HD
ENDBRANCH   5  18
BRANCH   3  22
ATOM     22  C   LIG d   1       3.963  84.287 116.504  0.00  0.00     0.382 C 
ATOM     23  O   LIG d   1       3.627  84.531 117.688  0.00  0.00    -0.241 OA
ATOM     24  O   LIG d   1       5.101  84.608 116.111  0.00  0.00    -0.241 OA
ENDBRANCH   3  22
TORSDOF 7
ENDMDL
MODEL 6
REMARK VINA RESULT:      -4.0      4.678      7.512
REMARK  7 active torsions:
REMARK  status: ('A' for Active; 'I' for Inactive)
REMARK    1  A    between atoms: C_2  and  C_3 
REMARK    2  A    between atoms: C_3  and  O_6 
REMARK    3  A    between atoms: C_3  and  C_4 
REMARK    4  A    between atoms: C_7  and  O_6 
REMARK    5  A    between atoms: C_9  and  C_10 
REMARK    6  A    between atoms: N_15  and  C_14 
REMARK    7  A    between atoms: N_20  and  C_19 
REMARK       I    between atoms: C_22  and  N_20 
ROOT
ATOM      1  C   LIG d   1       1.809  79.849 116.516  0.00  0.00     0.161 C 
ATOM      2  C   LIG d   1       3.139  79.773 116.069  0.00  0.00     0.016 C 
ATOM      3  C   LIG d   1       3.960  78.638 116.259  0.00  0.00     0.038 C 
ATOM      4  C   LIG d   1       3.455  77.437 116.780  0.00  0.00     0.028 C 
ATOM      5  C   LIG d   1       2.259  77.633 117.705  0.00  0.00    -0.047 C 
ATOM      6  C   LIG d   1       1.207  78.508 116.987  0.00  0.00     0.091 C 
ENDROOT
BRANCH   1   7
ATOM      7  O   LIG d   1       0.982  80.437 115.492  0.00  0.00    -0.368 OA
BRANCH   7   8
ATOM      8  C   LIG d   1       1.630  81.401 114.626  0.00  0.00     0.119 C 
BRANCH   8   9
ATOM      9  C   LIG d   1       1.231  82.806 115.116  0.00  0.00     0.028 C 
ATOM     10  C   LIG d   1       2.325  83.853 114.850  0.00  0.00     0.006 C 
ENDBRANCH   8   9
BRANCH   8  11
ATOM     11  C   LIG d   1       1.100  81.306 113.192  0.00  0.00     0.028 C 
ATOM     12  C   LIG d   1       2.217  81.361 112.138  0.00  0.00     0.006 C 
ENDBRANCH   8  11
ENDBRANCH   7   8
ENDBRANCH   1   7
BRANCH   6  13
ATOM     13  N   LIG d   1       0.041  78.819 117.854  0.00  0.00    -0.311 N 
ATOM     14  C   LIG d   1      -1.044  78.050 117.926  0.00  0.00     0.210 C 
ATOM     15  C   LIG d   1      -2.139  78.563 118.866  0.00  0.00     0.109 C 
ATOM     16  O   LIG d   1      -1.191  76.975 117.325  0.00  0.00    -0.276 OA
ATOM     17  H   LIG d   1       0.089  79.657 118.400  0.00  0.00     0.149 HD
ENDBRANCH   6  13
BRANCH   5  18
ATOM     18  N   LIG d   1       1.750  76.296 118.065  0.00  0.00     0.381 N 
ATOM     19  H   LIG d   1       0.893  76.118 117.581  0.00  0.00    -0.090 HD
ATOM     20  H   LIG d   1       1.566  76.273 119.052  0.00  0.00    -0.090 HD
ATOM     21  H   LIG d   1       2.423  75.600 117.829  0.00  0.00    -0.090 HD
ENDBRANCH   5  18
BRANCH   3  22
ATOM     22  C   LIG d   1       5.313  78.711 115.964  0.00  0.00     0.382 C 
ATOM     23  O   LIG d   1       6.060  79.467 116.629  0.00  0.00    -0.241 OA
ATOM     24  O   LIG d   1       5.787  78.064 115.011  0.00  0.00    -0.241 OA
ENDBRANCH   3  22
TORSDOF 7
ENDMDL
MODEL 7
REMARK VINA RESULT:      -3.8      6.164      8.867
REMARK  7 active torsions:
REMARK  status: ('A' for Active; 'I' for Inactive)
REMARK    1  A    between atoms: C_2  and  C_3 
REMARK    2  A    between atoms: C_3  and  O_6 
REMARK    3  A    between atoms: C_3  and  C_4 
REMARK    4  A    between atoms: C_7  and  O_6 
REMARK    5  A    between atoms: C_9  and  C_10 
REMARK    6  A    between atoms: N_15  and  C_14 
REMARK    7  A    between atoms: N_20  and  C_19 
REMARK       I    between atoms: C_22  and  N_20 
ROOT
ATOM      1  C   LIG d   1      -0.754  75.492 116.287  0.00  0.00     0.161 C 
ATOM      2  C   LIG d   1      -0.193  75.307 117.562  0.00  0.00     0.016 C 
ATOM      3  C   LIG d   1       0.606  76.278 118.209  0.00  0.00     0.038 C 
ATOM      4  C   LIG d   1       0.776  77.568 117.685  0.00  0.00     0.028 C 
ATOM      5  C   LIG d   1       0.646  77.627 116.166  0.00  0.00    -0.047 C 
ATOM      6  C   LIG d   1      -0.672  76.936 115.748  0.00  0.00     0.091 C 
ENDROOT
BRANCH   1   7
ATOM      7  O   LIG d   1      -2.120  75.033 116.282  0.00  0.00    -0.368 OA
BRANCH   7   8
ATOM      8  C   LIG d   1      -3.135  76.050 116.463  0.00  0.00     0.119 C 
BRANCH   8   9
ATOM      9  C   LIG d   1      -3.480  76.098 117.964  0.00  0.00     0.028 C 
ATOM     10  C   LIG d   1      -3.022  77.406 118.631  0.00  0.00     0.006 C 
ENDBRANCH   8   9
BRANCH   8  11
ATOM     11  C   LIG d   1      -4.440  75.666 115.759  0.00  0.00     0.028 C 
ATOM     12  C   LIG d   1      -4.252  74.541 114.729  0.00  0.00     0.006 C 
ENDBRANCH   8  11
ENDBRANCH   7   8
ENDBRANCH   1   7
BRANCH   6  13
ATOM     13  N   LIG d   1      -0.836  76.875 114.272  0.00  0.00    -0.311 N 
ATOM     14  C   LIG d   1      -1.594  77.726 113.583  0.00  0.00     0.210 C 
ATOM     15  C   LIG d   1      -1.641  77.474 112.073  0.00  0.00     0.109 C 
ATOM     16  O   LIG d   1      -2.207  78.686 114.075  0.00  0.00    -0.276 OA
ATOM     17  H   LIG d   1      -0.349  76.146 113.789  0.00  0.00     0.149 HD
ENDBRANCH   6  13
BRANCH   5  18
ATOM     18  N   LIG d   1       0.707  79.046 115.769  0.00  0.00     0.381 N 
ATOM     19  H   LIG d   1       0.055  79.578 116.310  0.00  0.00    -0.090 HD
ATOM     20  H   LIG d   1       0.450  79.123 114.800  0.00  0.00    -0.090 HD
ATOM     21  H   LIG d   1       1.628  79.399 115.905  0.00  0.00    -0.090 HD
ENDBRANCH   5  18
BRANCH   3  22
ATOM     22  C   LIG d   1       1.279  75.947 119.375  0.00  0.00     0.382 C 
ATOM     23  O   LIG d   1       2.028  76.789 119.927  0.00  0.00    -0.241 OA
ATOM     24  O   LIG d   1       1.182  74.803 119.858  0.00  0.00    -0.241 OA
ENDBRANCH   3  22
TORSDOF 7
ENDMDL
MODEL 8
REMARK VINA RESULT:      -3.7      2.083      4.708
REMARK  7 active torsions:
REMARK  status: ('A' for Active; 'I' for Inactive)
REMARK    1  A    between atoms: C_2  and  C_3 
REMARK    2  A    between atoms: C_3  and  O_6 
REMARK    3  A    between atoms: C_3  and  C_4 
REMARK    4  A    between atoms: C_7  and  O_6 
REMARK    5  A    between atoms: C_9  and  C_10 
REMARK    6  A    between atoms: N_15  and  C_14 
REMARK    7  A    between atoms: N_20  and  C_19 
REMARK       I    between atoms: C_22  and  N_20 
ROOT
ATOM      1  C   LIG d   1       0.917  81.923 113.259  0.00  0.00     0.161 C 
ATOM      2  C   LIG d   1       2.186  82.389 112.879  0.00  0.00     0.016 C 
ATOM      3  C   LIG d   1       2.428  83.099 111.681  0.00  0.00     0.038 C 
ATOM      4  C   LIG d   1       1.383  83.527 110.849  0.00  0.00     0.028 C 
ATOM      5  C   LIG d   1       0.141  82.646 110.934  0.00  0.00    -0.047 C 
ATOM      6  C   LIG d   1      -0.253  82.477 112.419  0.00  0.00     0.091 C 
ENDROOT
BRANCH   1   7
ATOM      7  O   LIG d   1       0.698  82.189 114.659  0.00  0.00    -0.368 OA
BRANCH   7   8
ATOM      8  C   LIG d   1       1.884  82.251 115.489  0.00  0.00     0.119 C 
BRANCH   8   9
ATOM      9  C   LIG d   1       1.812  81.081 116.488  0.00  0.00     0.028 C 
ATOM     10  C   LIG d   1       2.913  80.034 116.246  0.00  0.00     0.006 C 
ENDBRANCH   8   9
BRANCH   8  11
ATOM     11  C   LIG d   1       1.896  83.519 116.349  0.00  0.00     0.028 C 
ATOM     12  C   LIG d   1       1.044  84.651 115.754  0.00  0.00     0.006 C 
ENDBRANCH   8  11
ENDBRANCH   7   8
ENDBRANCH   1   7
BRANCH   6  13
ATOM     13  N   LIG d   1      -1.409  81.560 112.598  0.00  0.00    -0.311 N 
ATOM     14  C   LIG d   1      -1.429  80.308 112.143  0.00  0.00     0.210 C 
ATOM     15  C   LIG d   1      -2.726  79.541 112.417  0.00  0.00     0.109 C 
ATOM     16  O   LIG d   1      -0.483  79.750 111.566  0.00  0.00    -0.276 OA
ATOM     17  H   LIG d   1      -2.207  81.921 113.083  0.00  0.00     0.149 HD
ENDBRANCH   6  13
BRANCH   5  18
ATOM     18  N   LIG d   1      -0.914  83.283 110.124  0.00  0.00     0.381 N 
ATOM     19  H   LIG d   1      -1.263  82.632 109.450  0.00  0.00    -0.090 HD
ATOM     20  H   LIG d   1      -0.519  84.065 109.633  0.00  0.00    -0.090 HD
ATOM     21  H   LIG d   1      -1.656  83.592 110.713  0.00  0.00    -0.090 HD
ENDBRANCH   5  18
BRANCH   3  22
ATOM     22  C   LIG d   1       3.732  83.354 111.284  0.00  0.00     0.382 C 
ATOM     23  O   LIG d   1       4.542  83.873 112.089  0.00  0.00    -0.241 OA
ATOM     24  O   LIG d   1       4.096  83.113 110.117  0.00  0.00    -0.241 OA
ENDBRANCH   3  22
TORSDOF 7
ENDMDL
MODEL 9
REMARK VINA RESULT:      -3.7      2.924      5.785
REMARK  7 active torsions:
REMARK  status: ('A' for Active; 'I' for Inactive)
REMARK    1  A    between atoms: C_2  and  C_3 
REMARK    2  A    between atoms: C_3  and  O_6 
REMARK    3  A    between atoms: C_3  and  C_4 
REMARK    4  A    between atoms: C_7  and  O_6 
REMARK    5  A    between atoms: C_9  and  C_10 
REMARK    6  A    between atoms: N_15  and  C_14 
REMARK    7  A    between atoms: N_20  and  C_19 
REMARK       I    between atoms: C_22  and  N_20 
ROOT
ATOM      1  C   LIG d   1       1.730  81.060 115.115  0.00  0.00     0.161 C 
ATOM      2  C   LIG d   1       2.503  81.944 115.887  0.00  0.00     0.016 C 
ATOM      3  C   LIG d   1       2.580  83.333 115.636  0.00  0.00     0.038 C 
ATOM      4  C   LIG d   1       1.766  83.960 114.682  0.00  0.00     0.028 C 
ATOM      5  C   LIG d   1       1.346  83.037 113.543  0.00  0.00    -0.047 C 
ATOM      6  C   LIG d   1       0.749  81.743 114.140  0.00  0.00     0.091 C 
ENDROOT
BRANCH   1   7
ATOM      7  O   LIG d   1       1.025  80.146 115.978  0.00  0.00    -0.368 OA
BRANCH   7   8
ATOM      8  C   LIG d   1       1.617  79.912 117.279  0.00  0.00     0.119 C 
BRANCH   8   9
ATOM      9  C   LIG d   1       2.109  78.451 117.308  0.00  0.00     0.028 C 
ATOM     10  C   LIG d   1       3.540  78.303 116.766  0.00  0.00     0.006 C 
ENDBRANCH   8   9
BRANCH   8  11
ATOM     11  C   LIG d   1       0.572  80.010 118.394  0.00  0.00     0.028 C 
ATOM     12  C   LIG d   1       0.228  81.462 118.762  0.00  0.00     0.006 C 
ENDBRANCH   8  11
ENDBRANCH   7   8
ENDBRANCH   1   7
BRANCH   6  13
ATOM     13  N   LIG d   1       0.390  80.749 113.094  0.00  0.00    -0.311 N 
ATOM     14  C   LIG d   1      -0.819  80.672 112.540  0.00  0.00     0.210 C 
ATOM     15  C   LIG d   1      -0.982  79.562 111.497  0.00  0.00     0.109 C 
ATOM     16  O   LIG d   1      -1.762  81.437 112.791  0.00  0.00    -0.276 OA
ATOM     17  H   LIG d   1       1.105  80.109 112.809  0.00  0.00     0.149 HD
ENDBRANCH   6  13
BRANCH   5  18
ATOM     18  N   LIG d   1       0.391  83.778 112.697  0.00  0.00     0.381 N 
ATOM     19  H   LIG d   1      -0.449  83.246 112.588  0.00  0.00    -0.090 HD
ATOM     20  H   LIG d   1       0.799  83.913 111.788  0.00  0.00    -0.090 HD
ATOM     21  H   LIG d   1       0.183  84.661 113.110  0.00  0.00    -0.090 HD
ENDBRANCH   5  18
BRANCH   3  22
ATOM     22  C   LIG d   1       3.510  84.104 116.318  0.00  0.00     0.382 C 
ATOM     23  O   LIG d   1       4.666  84.248 115.853  0.00  0.00    -0.241 OA
ATOM     24  O   LIG d   1       3.220  84.621 117.413  0.00  0.00    -0.241 OA
ENDBRANCH   3  22
TORSDOF 7
ENDMDL
