MODEL 1
REMARK VINA RESULT:      -5.4      0.000      0.000
REMARK  7 active torsions:
REMARK  status: ('A' for Active; 'I' for Inactive)
REMARK    1  A    between atoms: C_2  and  C_3 
REMARK    2  A    between atoms: C_3  and  O_6 
REMARK    3  A    between atoms: C_3  and  C_4 
REMARK    4  A    between atoms: C_7  and  O_6 
REMARK    5  A    between atoms: C_9  and  C_10 
REMARK    6  A    between atoms: N_15  and  C_14 
REMARK    7  A    between atoms: N_20  and  C_19 
REMARK       I    between atoms: C_22  and  N_20 
ROOT
ATOM      1  C   LIG d   1       1.457  81.353 112.473  0.00  0.00     0.161 C 
ATOM      2  C   LIG d   1       2.691  81.563 111.834  0.00  0.00     0.016 C 
ATOM      3  C   LIG d   1       2.953  81.174 110.500  0.00  0.00     0.038 C 
ATOM      4  C   LIG d   1       1.943  80.681 109.660  0.00  0.00     0.028 C 
ATOM      5  C   LIG d   1       0.815  79.984 110.413  0.00  0.00    -0.047 C 
ATOM      6  C   LIG d   1       0.310  80.918 111.537  0.00  0.00     0.091 C 
ENDROOT
BRANCH   1   7
ATOM      7  O   LIG d   1       1.081  82.533 113.210  0.00  0.00    -0.368 OA
BRANCH   7   8
ATOM      8  C   LIG d   1       1.433  83.801 112.605  0.00  0.00     0.119 C 
BRANCH   8   9
ATOM      9  C   LIG d   1       2.062  84.680 113.704  0.00  0.00     0.028 C 
ATOM     10  C   LIG d   1       3.588  84.513 113.787  0.00  0.00     0.006 C 
ENDBRANCH   8   9
BRANCH   8  11
ATOM     11  C   LIG d   1       0.187  84.562 112.141  0.00  0.00     0.028 C 
ATOM     12  C   LIG d   1      -0.138  84.324 110.658  0.00  0.00     0.006 C 
ENDBRANCH   8  11
ENDBRANCH   7   8
ENDBRANCH   1   7
BRANCH   6  13
ATOM     13  N   LIG d   1      -0.738  80.279 112.376  0.00  0.00    -0.311 N 
ATOM     14  C   LIG d   1      -1.921  80.839 112.622  0.00  0.00     0.210 C 
ATOM     15  C   LIG d   1      -2.847  80.021 113.528  0.00  0.00     0.109 C 
ATOM     16  O   LIG d   1      -2.304  81.920 112.150  0.00  0.00    -0.276 OA
ATOM     17  H   LIG d   1      -0.522  79.386 112.773  0.00  0.00     0.149 HD
ENDBRANCH   6  13
BRANCH   5  18
ATOM     18  N   LIG d   1      -0.232  79.643 109.431  0.00  0.00     0.381 N 
ATOM     19  H   LIG d   1      -0.996  80.283 109.514  0.00  0.00    -0.090 HD
ATOM     20  H   LIG d   1      -0.572  78.718 109.626  0.00  0.00    -0.090 HD
ATOM     21  H   LIG d   1       0.142  79.679 108.508  0.00  0.00    -0.090 HD
ENDBRANCH   5  18
BRANCH   3  22
ATOM     22  C   LIG d   1       4.247  81.240 110.007  0.00  0.00     0.382 C 
ATOM     23  O   LIG d   1       4.719  82.339 109.631  0.00  0.00    -0.241 OA
ATOM     24  O   LIG d   1       4.932  80.206 109.892  0.00  0.00    -0.241 OA
ENDBRANCH   3  22
TORSDOF 7
ENDMDL
MODEL 2
REMARK VINA RESULT:      -5.0      1.598      4.854
REMARK  7 active torsions:
REMARK  status: ('A' for Active; 'I' for Inactive)
REMARK    1  A    between atoms: C_2  and  C_3 
REMARK    2  A    between atoms: C_3  and  O_6 
REMARK    3  A    between atoms: C_3  and  C_4 
REMARK    4  A    between atoms: C_7  and  O_6 
REMARK    5  A    between atoms: C_9  and  C_10 
REMARK    6  A    between atoms: N_15  and  C_14 
REMARK    7  A    between atoms: N_20  and  C_19 
REMARK       I    between atoms: C_22  and  N_20 
ROOT
ATOM      1  C   LIG d   1       0.736  82.096 112.003  0.00  0.00     0.161 C 
ATOM      2  C   LIG d   1      -0.528  81.853 112.566  0.00  0.00     0.016 C 
ATOM      3  C   LIG d   1      -1.298  80.702 112.281  0.00  0.00     0.038 C 
ATOM      4  C   LIG d   1      -0.787  79.635 111.527  0.00  0.00     0.028 C 
ATOM      5  C   LIG d   1       0.284  80.059 110.527  0.00  0.00    -0.047 C 
ATOM      6  C   LIG d   1       1.358  80.892 111.264  0.00  0.00     0.091 C 
ENDROOT
BRANCH   1   7
ATOM      7  O   LIG d   1       1.637  82.582 113.017  0.00  0.00    -0.368 OA
BRANCH   7   8
ATOM      8  C   LIG d   1       1.621  84.011 113.253  0.00  0.00     0.119 C 
BRANCH   8   9
ATOM      9  C   LIG d   1       2.428  84.676 112.121  0.00  0.00     0.028 C 
ATOM     10  C   LIG d   1       3.947  84.547 112.329  0.00  0.00     0.006 C 
ENDBRANCH   8   9
BRANCH   8  11
ATOM     11  C   LIG d   1       2.362  84.371 114.544  0.00  0.00     0.028 C 
ATOM     12  C   LIG d   1       2.198  83.307 115.642  0.00  0.00     0.006 C 
ENDBRANCH   8  11
ENDBRANCH   7   8
ENDBRANCH   1   7
BRANCH   6  13
ATOM     13  N   LIG d   1       2.399  81.418 110.343  0.00  0.00    -0.311 N 
ATOM     14  C   LIG d   1       3.696  81.447 110.644  0.00  0.00     0.210 C 
ATOM     15  C   LIG d   1       4.597  82.048 109.560  0.00  0.00     0.109 C 
ATOM     16  O   LIG d   1       4.190  81.003 111.691  0.00  0.00    -0.276 OA
ATOM     17  H   LIG d   1       2.089  81.770 109.459  0.00  0.00     0.149 HD
ENDBRANCH   6  13
BRANCH   5  18
ATOM     18  N   LIG d   1       0.826  78.835 109.908  0.00  0.00     0.381 N 
ATOM     19  H   LIG d   1       0.840  78.936 108.913  0.00  0.00    -0.090 HD
ATOM     20  H   LIG d   1       0.227  78.062 110.139  0.00  0.00    -0.090 HD
ATOM     21  H   LIG d   1       1.748  78.662 110.244  0.00  0.00    -0.090 HD
ENDBRANCH   5  18
BRANCH   3  22
ATOM     22  C   LIG d   1      -2.611  80.627 112.722  0.00  0.00     0.382 C 
ATOM     23  O   LIG d   1      -3.254  81.678 112.955  0.00  0.00    -0.241 OA
ATOM     24  O   LIG d   1      -3.144  79.521 112.932  0.00  0.00    -0.241 OA
ENDBRANCH   3  22
TORSDOF 7
ENDMDL
MODEL 3
REMARK VINA RESULT:      -4.8      2.488      4.512
REMARK  7 active torsions:
REMARK  status: ('A' for Active; 'I' for Inactive)
REMARK    1  A    between atoms: C_2  and  C_3 
REMARK    2  A    between atoms: C_3  and  O_6 
REMARK    3  A    between atoms: C_3  and  C_4 
REMARK    4  A    between atoms: C_7  and  O_6 
REMARK    5  A    between atoms: C_9  and  C_10 
REMARK    6  A    between atoms: N_15  and  C_14 
REMARK    7  A    between atoms: N_20  and  C_19 
REMARK       I    between atoms: C_22  and  N_20 
ROOT
ATOM      1  C   LIG d   1       0.733  80.706 110.958  0.00  0.00     0.161 C 
ATOM      2  C   LIG d   1       0.221  79.475 110.517  0.00  0.00     0.016 C 
ATOM      3  C   LIG d   1      -1.019  78.949 110.946  0.00  0.00     0.038 C 
ATOM      4  C   LIG d   1      -1.907  79.694 111.736  0.00  0.00     0.028 C 
ATOM      5  C   LIG d   1      -1.214  80.731 112.613  0.00  0.00    -0.047 C 
ATOM      6  C   LIG d   1      -0.272  81.584 111.733  0.00  0.00     0.091 C 
ENDROOT
BRANCH   1   7
ATOM      7  O   LIG d   1       1.280  81.436 109.842  0.00  0.00    -0.368 OA
BRANCH   7   8
ATOM      8  C   LIG d   1       2.723  81.563 109.808  0.00  0.00     0.119 C 
BRANCH   8   9
ATOM      9  C   LIG d   1       3.248  81.243 111.221  0.00  0.00     0.028 C 
ATOM     10  C   LIG d   1       4.706  81.693 111.421  0.00  0.00     0.006 C 
ENDBRANCH   8   9
BRANCH   8  11
ATOM     11  C   LIG d   1       3.149  83.008 109.534  0.00  0.00     0.028 C 
ATOM     12  C   LIG d   1       1.956  83.972 109.434  0.00  0.00     0.006 C 
ENDBRANCH   8  11
ENDBRANCH   7   8
ENDBRANCH   1   7
BRANCH   6  13
ATOM     13  N   LIG d   1       0.509  82.568 112.527  0.00  0.00    -0.311 N 
ATOM     14  C   LIG d   1       0.119  83.826 112.724  0.00  0.00     0.210 C 
ATOM     15  C   LIG d   1       1.082  84.679 113.556  0.00  0.00     0.109 C 
ATOM     16  O   LIG d   1      -0.949  84.307 112.317  0.00  0.00    -0.276 OA
ATOM     17  H   LIG d   1       1.374  82.253 112.920  0.00  0.00     0.149 HD
ENDBRANCH   6  13
BRANCH   5  18
ATOM     18  N   LIG d   1      -2.263  81.527 113.277  0.00  0.00     0.381 N 
ATOM     19  H   LIG d   1      -2.688  82.146 112.615  0.00  0.00    -0.090 HD
ATOM     20  H   LIG d   1      -1.842  82.081 114.001  0.00  0.00    -0.090 HD
ATOM     21  H   LIG d   1      -2.952  80.924 113.669  0.00  0.00    -0.090 HD
ENDBRANCH   5  18
BRANCH   3  22
ATOM     22  C   LIG d   1      -1.364  77.647 110.618  0.00  0.00     0.382 C 
ATOM     23  O   LIG d   1      -0.509  76.732 110.700  0.00  0.00    -0.241 OA
ATOM     24  O   LIG d   1      -2.507  77.383 110.198  0.00  0.00    -0.241 OA
ENDBRANCH   3  22
TORSDOF 7
ENDMDL
MODEL 4
REMARK VINA RESULT:      -4.8      4.686      7.336
REMARK  7 active torsions:
REMARK  status: ('A' for Active; 'I' for Inactive)
REMARK    1  A    between atoms: C_2  and  C_3 
REMARK    2  A    between atoms: C_3  and  O_6 
REMARK    3  A    between atoms: C_3  and  C_4 
REMARK    4  A    between atoms: C_7  and  O_6 
REMARK    5  A    between atoms: C_9  and  C_10 
REMARK    6  A    between atoms: N_15  and  C_14 
REMARK    7  A    between atoms: N_20  and  C_19 
REMARK       I    between atoms: C_22  and  N_20 
ROOT
ATOM      1  C   LIG d   1      -2.141  78.323 114.965  0.00  0.00     0.161 C 
ATOM      2  C   LIG d   1      -2.571  79.523 114.373  0.00  0.00     0.016 C 
ATOM      3  C   LIG d   1      -2.292  79.872 113.032  0.00  0.00     0.038 C 
ATOM      4  C   LIG d   1      -1.691  78.971 112.141  0.00  0.00     0.028 C 
ATOM      5  C   LIG d   1      -0.792  77.949 112.828  0.00  0.00    -0.047 C 
ATOM      6  C   LIG d   1      -1.580  77.280 113.977  0.00  0.00     0.091 C 
ENDROOT
BRANCH   1   7
ATOM      7  O   LIG d   1      -3.211  77.752 115.743  0.00  0.00    -0.368 OA
BRANCH   7   8
ATOM      8  C   LIG d   1      -3.150  77.976 117.173  0.00  0.00     0.119 C 
BRANCH   8   9
ATOM      9  C   LIG d   1      -3.365  76.616 117.865  0.00  0.00     0.028 C 
ATOM     10  C   LIG d   1      -2.121  76.149 118.639  0.00  0.00     0.006 C 
ENDBRANCH   8   9
BRANCH   8  11
ATOM     11  C   LIG d   1      -4.307  78.860 117.648  0.00  0.00     0.028 C 
ATOM     12  C   LIG d   1      -4.009  79.566 118.981  0.00  0.00     0.006 C 
ENDBRANCH   8  11
ENDBRANCH   7   8
ENDBRANCH   1   7
BRANCH   6  13
ATOM     13  N   LIG d   1      -0.747  76.326 114.755  0.00  0.00    -0.311 N 
ATOM     14  C   LIG d   1      -1.186  75.139 115.171  0.00  0.00     0.210 C 
ATOM     15  C   LIG d   1      -0.171  74.320 115.975  0.00  0.00     0.109 C 
ATOM     16  O   LIG d   1      -2.308  74.674 114.923  0.00  0.00    -0.276 OA
ATOM     17  H   LIG d   1       0.188  76.610 114.974  0.00  0.00     0.149 HD
ENDBRANCH   6  13
BRANCH   5  18
ATOM     18  N   LIG d   1      -0.341  76.990 111.801  0.00  0.00     0.381 N 
ATOM     19  H   LIG d   1      -0.972  76.215 111.761  0.00  0.00    -0.090 HD
ATOM     20  H   LIG d   1       0.568  76.645 112.055  0.00  0.00    -0.090 HD
ATOM     21  H   LIG d   1      -0.297  77.439 110.912  0.00  0.00    -0.090 HD
ENDBRANCH   5  18
BRANCH   3  22
ATOM     22  C   LIG d   1      -2.582  81.151 112.581  0.00  0.00     0.382 C 
ATOM     23  O   LIG d   1      -3.677  81.687 112.876  0.00  0.00    -0.241 OA
ATOM     24  O   LIG d   1      -1.781  81.757 111.844  0.00  0.00    -0.241 OA
ENDBRANCH   3  22
TORSDOF 7
ENDMDL
MODEL 5
REMARK VINA RESULT:      -4.7      2.048      2.599
REMARK  7 active torsions:
REMARK  status: ('A' for Active; 'I' for Inactive)
REMARK    1  A    between atoms: C_2  and  C_3 
REMARK    2  A    between atoms: C_3  and  O_6 
REMARK    3  A    between atoms: C_3  and  C_4 
REMARK    4  A    between atoms: C_7  and  O_6 
REMARK    5  A    between atoms: C_9  and  C_10 
REMARK    6  A    between atoms: N_15  and  C_14 
REMARK    7  A    between atoms: N_20  and  C_19 
REMARK       I    between atoms: C_22  and  N_20 
ROOT
ATOM      1  C   LIG d   1       1.707  81.314 112.625  0.00  0.00     0.161 C 
ATOM      2  C   LIG d   1       2.876  81.870 112.079  0.00  0.00     0.016 C 
ATOM      3  C   LIG d   1       2.872  82.793 111.009  0.00  0.00     0.038 C 
ATOM      4  C   LIG d   1       1.683  83.342 110.507  0.00  0.00     0.028 C 
ATOM      5  C   LIG d   1       0.473  82.432 110.687  0.00  0.00    -0.047 C 
ATOM      6  C   LIG d   1       0.396  81.986 112.165  0.00  0.00     0.091 C 
ENDROOT
BRANCH   1   7
ATOM      7  O   LIG d   1       1.791  81.314 114.064  0.00  0.00    -0.368 OA
BRANCH   7   8
ATOM      8  C   LIG d   1       2.911  82.034 114.637  0.00  0.00     0.119 C 
BRANCH   8   9
ATOM      9  C   LIG d   1       3.659  81.060 115.568  0.00  0.00     0.028 C 
ATOM     10  C   LIG d   1       4.159  81.744 116.852  0.00  0.00     0.006 C 
ENDBRANCH   8   9
BRANCH   8  11
ATOM     11  C   LIG d   1       2.436  83.176 115.540  0.00  0.00     0.028 C 
ATOM     12  C   LIG d   1       1.837  84.350 114.750  0.00  0.00     0.006 C 
ENDBRANCH   8  11
ENDBRANCH   7   8
ENDBRANCH   1   7
BRANCH   6  13
ATOM     13  N   LIG d   1      -0.712  81.025 112.410  0.00  0.00    -0.311 N 
ATOM     14  C   LIG d   1      -1.947  81.399 112.737  0.00  0.00     0.210 C 
ATOM     15  C   LIG d   1      -2.932  80.248 112.965  0.00  0.00     0.109 C 
ATOM     16  O   LIG d   1      -2.330  82.576 112.828  0.00  0.00    -0.276 OA
ATOM     17  H   LIG d   1      -0.497  80.051 112.327  0.00  0.00     0.149 HD
ENDBRANCH   6  13
BRANCH   5  18
ATOM     18  N   LIG d   1      -0.719  83.183 110.247  0.00  0.00     0.381 N 
ATOM     19  H   LIG d   1      -1.144  82.718 109.470  0.00  0.00    -0.090 HD
ATOM     20  H   LIG d   1      -0.434  84.099 109.950  0.00  0.00    -0.090 HD
ATOM     21  H   LIG d   1      -1.371  83.256 110.996  0.00  0.00    -0.090 HD
ENDBRANCH   5  18
BRANCH   3  22
ATOM     22  C   LIG d   1       4.068  83.145 110.401  0.00  0.00     0.382 C 
ATOM     23  O   LIG d   1       4.129  84.176 109.689  0.00  0.00    -0.241 OA
ATOM     24  O   LIG d   1       5.075  82.422 110.521  0.00  0.00    -0.241 OA
ENDBRANCH   3  22
TORSDOF 7
ENDMDL
MODEL 6
REMARK VINA RESULT:      -4.1      3.318      5.631
REMARK  7 active torsions:
REMARK  status: ('A' for Active; 'I' for Inactive)
REMARK    1  A    between atoms: C_2  and  C_3 
REMARK    2  A    between atoms: C_3  and  O_6 
REMARK    3  A    between atoms: C_3  and  C_4 
REMARK    4  A    between atoms: C_7  and  O_6 
REMARK    5  A    between atoms: C_9  and  C_10 
REMARK    6  A    between atoms: N_15  and  C_14 
REMARK    7  A    between atoms: N_20  and  C_19 
REMARK       I    between atoms: C_22  and  N_20 
ROOT
ATOM      1  C   LIG d   1      -0.305  79.347 113.465  0.00  0.00     0.161 C 
ATOM      2  C   LIG d   1      -1.248  79.054 112.465  0.00  0.00     0.016 C 
ATOM      3  C   LIG d   1      -2.447  78.345 112.709  0.00  0.00     0.038 C 
ATOM      4  C   LIG d   1      -2.859  78.011 114.007  0.00  0.00     0.028 C 
ATOM      5  C   LIG d   1      -1.702  77.842 114.986  0.00  0.00    -0.047 C 
ATOM      6  C   LIG d   1      -0.791  79.088 114.907  0.00  0.00     0.091 C 
ENDROOT
BRANCH   1   7
ATOM      7  O   LIG d   1       0.147  80.708 113.326  0.00  0.00    -0.368 OA
BRANCH   7   8
ATOM      8  C   LIG d   1      -0.110  81.338 112.046  0.00  0.00     0.119 C 
BRANCH   8   9
ATOM      9  C   LIG d   1       1.253  81.707 111.430  0.00  0.00     0.028 C 
ATOM     10  C   LIG d   1       2.400  81.633 112.453  0.00  0.00     0.006 C 
ENDBRANCH   8   9
BRANCH   8  11
ATOM     11  C   LIG d   1      -0.851  82.667 112.219  0.00  0.00     0.028 C 
ATOM     12  C   LIG d   1      -0.626  83.631 111.043  0.00  0.00     0.006 C 
ENDBRANCH   8  11
ENDBRANCH   7   8
ENDBRANCH   1   7
BRANCH   6  13
ATOM     13  N   LIG d   1       0.412  78.966 115.771  0.00  0.00    -0.311 N 
ATOM     14  C   LIG d   1       0.454  79.392 117.033  0.00  0.00     0.210 C 
ATOM     15  C   LIG d   1       1.798  79.188 117.739  0.00  0.00     0.109 C 
ATOM     16  O   LIG d   1      -0.504  79.889 117.644  0.00  0.00    -0.276 OA
ATOM     17  H   LIG d   1       1.225  78.546 115.365  0.00  0.00     0.149 HD
ENDBRANCH   6  13
BRANCH   5  18
ATOM     18  N   LIG d   1      -2.280  77.632 116.327  0.00  0.00     0.381 N 
ATOM     19  H   LIG d   1      -1.619  77.906 117.027  0.00  0.00    -0.090 HD
ATOM     20  H   LIG d   1      -2.478  76.654 116.446  0.00  0.00    -0.090 HD
ATOM     21  H   LIG d   1      -3.117  78.163 116.424  0.00  0.00    -0.090 HD
ENDBRANCH   5  18
BRANCH   3  22
ATOM     22  C   LIG d   1      -3.228  77.929 111.642  0.00  0.00     0.382 C 
ATOM     23  O   LIG d   1      -4.437  77.647 111.822  0.00  0.00    -0.241 OA
ATOM     24  O   LIG d   1      -2.728  77.789 110.510  0.00  0.00    -0.241 OA
ENDBRANCH   3  22
TORSDOF 7
ENDMDL
MODEL 7
REMARK VINA RESULT:      -4.1      4.516      7.289
REMARK  7 active torsions:
REMARK  status: ('A' for Active; 'I' for Inactive)
REMARK    1  A    between atoms: C_2  and  C_3 
REMARK    2  A    between atoms: C_3  and  O_6 
REMARK    3  A    between atoms: C_3  and  C_4 
REMARK    4  A    between atoms: C_7  and  O_6 
REMARK    5  A    between atoms: C_9  and  C_10 
REMARK    6  A    between atoms: N_15  and  C_14 
REMARK    7  A    between atoms: N_20  and  C_19 
REMARK       I    between atoms: C_22  and  N_20 
ROOT
ATOM      1  C   LIG d   1      -1.888  77.709 114.185  0.00  0.00     0.161 C 
ATOM      2  C   LIG d   1      -2.071  77.542 112.802  0.00  0.00     0.016 C 
ATOM      3  C   LIG d   1      -1.391  78.309 111.829  0.00  0.00     0.038 C 
ATOM      4  C   LIG d   1      -0.361  79.198 112.172  0.00  0.00     0.028 C 
ATOM      5  C   LIG d   1      -0.495  79.765 113.581  0.00  0.00    -0.047 C 
ATOM      6  C   LIG d   1      -0.688  78.597 114.576  0.00  0.00     0.091 C 
ENDROOT
BRANCH   1   7
ATOM      7  O   LIG d   1      -1.788  76.421 114.824  0.00  0.00    -0.368 OA
BRANCH   7   8
ATOM      8  C   LIG d   1      -3.026  75.861 115.327  0.00  0.00     0.119 C 
BRANCH   8   9
ATOM      9  C   LIG d   1      -3.745  76.968 116.122  0.00  0.00     0.028 C 
ATOM     10  C   LIG d   1      -3.711  76.719 117.639  0.00  0.00     0.006 C 
ENDBRANCH   8   9
BRANCH   8  11
ATOM     11  C   LIG d   1      -2.760  74.743 116.340  0.00  0.00     0.028 C 
ATOM     12  C   LIG d   1      -1.332  74.182 116.247  0.00  0.00     0.006 C 
ENDBRANCH   8  11
ENDBRANCH   7   8
ENDBRANCH   1   7
BRANCH   6  13
ATOM     13  N   LIG d   1      -0.911  79.068 115.967  0.00  0.00    -0.311 N 
ATOM     14  C   LIG d   1      -0.366  78.487 117.034  0.00  0.00     0.210 C 
ATOM     15  C   LIG d   1      -0.742  79.120 118.378  0.00  0.00     0.109 C 
ATOM     16  O   LIG d   1       0.419  77.528 116.994  0.00  0.00    -0.276 OA
ATOM     17  H   LIG d   1      -1.511  79.861 116.090  0.00  0.00     0.149 HD
ENDBRANCH   6  13
BRANCH   5  18
ATOM     18  N   LIG d   1       0.713  80.565 113.857  0.00  0.00     0.381 N 
ATOM     19  H   LIG d   1       0.453  81.504 114.085  0.00  0.00    -0.090 HD
ATOM     20  H   LIG d   1       1.283  80.588 113.029  0.00  0.00    -0.090 HD
ATOM     21  H   LIG d   1       1.225  80.162 114.610  0.00  0.00    -0.090 HD
ENDBRANCH   5  18
BRANCH   3  22
ATOM     22  C   LIG d   1      -1.766  78.219 110.497  0.00  0.00     0.382 C 
ATOM     23  O   LIG d   1      -1.058  78.751 109.608  0.00  0.00    -0.241 OA
ATOM     24  O   LIG d   1      -2.827  77.651 110.177  0.00  0.00    -0.241 OA
ENDBRANCH   3  22
TORSDOF 7
ENDMDL
MODEL 8
REMARK VINA RESULT:      -4.1      4.650      7.662
REMARK  7 active torsions:
REMARK  status: ('A' for Active; 'I' for Inactive)
REMARK    1  A    between atoms: C_2  and  C_3 
REMARK    2  A    between atoms: C_3  and  O_6 
REMARK    3  A    between atoms: C_3  and  C_4 
REMARK    4  A    between atoms: C_7  and  O_6 
REMARK    5  A    between atoms: C_9  and  C_10 
REMARK    6  A    between atoms: N_15  and  C_14 
REMARK    7  A    between atoms: N_20  and  C_19 
REMARK       I    between atoms: C_22  and  N_20 
ROOT
ATOM      1  C   LIG d   1      -0.850  77.780 114.563  0.00  0.00     0.161 C 
ATOM      2  C   LIG d   1      -2.002  77.033 114.268  0.00  0.00     0.016 C 
ATOM      3  C   LIG d   1      -2.845  76.478 115.259  0.00  0.00     0.038 C 
ATOM      4  C   LIG d   1      -2.674  76.764 116.621  0.00  0.00     0.028 C 
ATOM      5  C   LIG d   1      -1.234  77.096 116.995  0.00  0.00    -0.047 C 
ATOM      6  C   LIG d   1      -0.709  78.195 116.042  0.00  0.00     0.091 C 
ENDROOT
BRANCH   1   7
ATOM      7  O   LIG d   1      -0.787  78.940 113.709  0.00  0.00    -0.368 OA
BRANCH   7   8
ATOM      8  C   LIG d   1      -1.911  79.134 112.816  0.00  0.00     0.119 C 
BRANCH   8   9
ATOM      9  C   LIG d   1      -1.350  79.257 111.386  0.00  0.00     0.028 C 
ATOM     10  C   LIG d   1      -1.654  78.017 110.528  0.00  0.00     0.006 C 
ENDBRANCH   8   9
BRANCH   8  11
ATOM     11  C   LIG d   1      -2.617  80.466 113.090  0.00  0.00     0.028 C 
ATOM     12  C   LIG d   1      -1.893  81.665 112.458  0.00  0.00     0.006 C 
ENDBRANCH   8  11
ENDBRANCH   7   8
ENDBRANCH   1   7
BRANCH   6  13
ATOM     13  N   LIG d   1       0.720  78.520 116.285  0.00  0.00    -0.311 N 
ATOM     14  C   LIG d   1       1.122  79.525 117.061  0.00  0.00     0.210 C 
ATOM     15  C   LIG d   1       2.641  79.699 117.159  0.00  0.00     0.109 C 
ATOM     16  O   LIG d   1       0.366  80.269 117.703  0.00  0.00    -0.276 OA
ATOM     17  H   LIG d   1       1.402  77.948 115.827  0.00  0.00     0.149 HD
ENDBRANCH   6  13
BRANCH   5  18
ATOM     18  N   LIG d   1      -1.224  77.507 118.412  0.00  0.00     0.381 N 
ATOM     19  H   LIG d   1      -1.848  76.926 118.937  0.00  0.00    -0.090 HD
ATOM     20  H   LIG d   1      -1.546  78.456 118.478  0.00  0.00    -0.090 HD
ATOM     21  H   LIG d   1      -0.302  77.435 118.781  0.00  0.00    -0.090 HD
ENDBRANCH   5  18
BRANCH   3  22
ATOM     22  C   LIG d   1      -3.849  75.595 114.891  0.00  0.00     0.382 C 
ATOM     23  O   LIG d   1      -4.161  74.649 115.653  0.00  0.00    -0.241 OA
ATOM     24  O   LIG d   1      -4.416  75.707 113.788  0.00  0.00    -0.241 OA
ENDBRANCH   3  22
TORSDOF 7
ENDMDL
MODEL 9
REMARK VINA RESULT:      -3.9      5.516      8.097
REMARK  7 active torsions:
REMARK  status: ('A' for Active; 'I' for Inactive)
REMARK    1  A    between atoms: C_2  and  C_3 
REMARK    2  A    between atoms: C_3  and  O_6 
REMARK    3  A    between atoms: C_3  and  C_4 
REMARK    4  A    between atoms: C_7  and  O_6 
REMARK    5  A    between atoms: C_9  and  C_10 
REMARK    6  A    between atoms: N_15  and  C_14 
REMARK    7  A    between atoms: N_20  and  C_19 
REMARK       I    between atoms: C_22  and  N_20 
ROOT
ATOM      1  C   LIG d   1      -2.136  76.978 115.560  0.00  0.00     0.161 C 
ATOM      2  C   LIG d   1      -2.673  76.951 114.262  0.00  0.00     0.016 C 
ATOM      3  C   LIG d   1      -2.213  77.779 113.212  0.00  0.00     0.038 C 
ATOM      4  C   LIG d   1      -1.076  78.589 113.351  0.00  0.00     0.028 C 
ATOM      5  C   LIG d   1      -0.814  79.024 114.789  0.00  0.00    -0.047 C 
ATOM      6  C   LIG d   1      -0.822  77.775 115.700  0.00  0.00     0.091 C 
ENDROOT
BRANCH   1   7
ATOM      7  O   LIG d   1      -1.959  75.631 116.043  0.00  0.00    -0.368 OA
BRANCH   7   8
ATOM      8  C   LIG d   1      -0.590  75.168 116.151  0.00  0.00     0.119 C 
BRANCH   8   9
ATOM      9  C   LIG d   1      -0.343  74.180 114.994  0.00  0.00     0.028 C 
ATOM     10  C   LIG d   1       0.511  74.794 113.872  0.00  0.00     0.006 C 
ENDBRANCH   8   9
BRANCH   8  11
ATOM     11  C   LIG d   1      -0.377  74.354 117.431  0.00  0.00     0.028 C 
ATOM     12  C   LIG d   1       1.025  74.545 118.032  0.00  0.00     0.006 C 
ENDBRANCH   8  11
ENDBRANCH   7   8
ENDBRANCH   1   7
BRANCH   6  13
ATOM     13  N   LIG d   1      -0.657  78.120 117.136  0.00  0.00    -0.311 N 
ATOM     14  C   LIG d   1       0.529  78.208 117.737  0.00  0.00     0.210 C 
ATOM     15  C   LIG d   1       0.474  78.556 119.227  0.00  0.00     0.109 C 
ATOM     16  O   LIG d   1       1.622  78.062 117.169  0.00  0.00    -0.276 OA
ATOM     17  H   LIG d   1      -1.491  78.285 117.665  0.00  0.00     0.149 HD
ENDBRANCH   6  13
BRANCH   5  18
ATOM     18  N   LIG d   1       0.473  79.745 114.809  0.00  0.00     0.381 N 
ATOM     19  H   LIG d   1       0.863  79.717 115.730  0.00  0.00    -0.090 HD
ATOM     20  H   LIG d   1       0.311  80.706 114.564  0.00  0.00    -0.090 HD
ATOM     21  H   LIG d   1       1.106  79.331 114.160  0.00  0.00    -0.090 HD
ENDBRANCH   5  18
BRANCH   3  22
ATOM     22  C   LIG d   1      -2.918  77.832 112.019  0.00  0.00     0.382 C 
ATOM     23  O   LIG d   1      -4.171  77.884 112.034  0.00  0.00    -0.241 OA
ATOM     24  O   LIG d   1      -2.318  77.784 110.929  0.00  0.00    -0.241 OA
ENDBRANCH   3  22
TORSDOF 7
ENDMDL
