MODEL 1
REMARK VINA RESULT:      -5.6      0.000      0.000
REMARK  7 active torsions:
REMARK  status: ('A' for Active; 'I' for Inactive)
REMARK    1  A    between atoms: C_2  and  C_3 
REMARK    2  A    between atoms: C_3  and  O_6 
REMARK    3  A    between atoms: C_3  and  C_4 
REMARK    4  A    between atoms: C_7  and  O_6 
REMARK    5  A    between atoms: C_9  and  C_10 
REMARK    6  A    between atoms: N_15  and  C_14 
REMARK    7  A    between atoms: N_20  and  C_19 
REMARK       I    between atoms: C_22  and  N_20 
ROOT
ATOM      1  C   LIG d   1       1.206  81.336 112.784  0.00  0.00     0.161 C 
ATOM      2  C   LIG d   1       2.219  81.218 111.817  0.00  0.00     0.016 C 
ATOM      3  C   LIG d   1       2.082  80.452 110.637  0.00  0.00     0.038 C 
ATOM      4  C   LIG d   1       0.860  79.870 110.268  0.00  0.00     0.028 C 
ATOM      5  C   LIG d   1      -0.038  79.542 111.456  0.00  0.00    -0.047 C 
ATOM      6  C   LIG d   1      -0.172  80.799 112.345  0.00  0.00     0.091 C 
ENDROOT
BRANCH   1   7
ATOM      7  O   LIG d   1       1.097  82.708 113.211  0.00  0.00    -0.368 OA
BRANCH   7   8
ATOM      8  C   LIG d   1       1.798  83.685 112.404  0.00  0.00     0.119 C 
BRANCH   8   9
ATOM      9  C   LIG d   1       2.651  84.546 113.355  0.00  0.00     0.028 C 
ATOM     10  C   LIG d   1       3.573  83.696 114.246  0.00  0.00     0.006 C 
ENDBRANCH   8   9
BRANCH   8  11
ATOM     11  C   LIG d   1       0.822  84.662 111.739  0.00  0.00     0.028 C 
ATOM     12  C   LIG d   1       0.076  84.040 110.548  0.00  0.00     0.006 C 
ENDBRANCH   8  11
ENDBRANCH   7   8
ENDBRANCH   1   7
BRANCH   6  13
ATOM     13  N   LIG d   1      -0.967  80.541 113.574  0.00  0.00    -0.311 N 
ATOM     14  C   LIG d   1      -2.264  80.822 113.681  0.00  0.00     0.210 C 
ATOM     15  C   LIG d   1      -2.887  80.495 115.042  0.00  0.00     0.109 C 
ATOM     16  O   LIG d   1      -2.966  81.280 112.767  0.00  0.00    -0.276 OA
ATOM     17  H   LIG d   1      -0.483  80.142 114.355  0.00  0.00     0.149 HD
ENDBRANCH   6  13
BRANCH   5  18
ATOM     18  N   LIG d   1      -1.329  79.071 110.921  0.00  0.00     0.381 N 
ATOM     19  H   LIG d   1      -2.033  79.764 111.077  0.00  0.00    -0.090 HD
ATOM     20  H   LIG d   1      -1.597  78.234 111.409  0.00  0.00    -0.090 HD
ATOM     21  H   LIG d   1      -1.247  78.883 109.946  0.00  0.00    -0.090 HD
ENDBRANCH   5  18
BRANCH   3  22
ATOM     22  C   LIG d   1       3.188  80.228 109.831  0.00  0.00     0.382 C 
ATOM     23  O   LIG d   1       3.448  79.068 109.430  0.00  0.00    -0.241 OA
ATOM     24  O   LIG d   1       3.955  81.165 109.536  0.00  0.00    -0.241 OA
ENDBRANCH   3  22
TORSDOF 7
ENDMDL
MODEL 2
REMARK VINA RESULT:      -5.5      2.370      5.167
REMARK  7 active torsions:
REMARK  status: ('A' for Active; 'I' for Inactive)
REMARK    1  A    between atoms: C_2  and  C_3 
REMARK    2  A    between atoms: C_3  and  O_6 
REMARK    3  A    between atoms: C_3  and  C_4 
REMARK    4  A    between atoms: C_7  and  O_6 
REMARK    5  A    between atoms: C_9  and  C_10 
REMARK    6  A    between atoms: N_15  and  C_14 
REMARK    7  A    between atoms: N_20  and  C_19 
REMARK       I    between atoms: C_22  and  N_20 
ROOT
ATOM      1  C   LIG d   1      -0.569  80.964 112.318  0.00  0.00     0.161 C 
ATOM      2  C   LIG d   1      -1.618  80.040 112.463  0.00  0.00     0.016 C 
ATOM      3  C   LIG d   1      -1.712  78.846 111.711  0.00  0.00     0.038 C 
ATOM      4  C   LIG d   1      -0.677  78.419 110.865  0.00  0.00     0.028 C 
ATOM      5  C   LIG d   1       0.163  79.565 110.309  0.00  0.00    -0.047 C 
ATOM      6  C   LIG d   1       0.625  80.461 111.480  0.00  0.00     0.091 C 
ENDROOT
BRANCH   1   7
ATOM      7  O   LIG d   1      -0.122  81.402 113.616  0.00  0.00    -0.368 OA
BRANCH   7   8
ATOM      8  C   LIG d   1       0.347  80.364 114.512  0.00  0.00     0.119 C 
BRANCH   8   9
ATOM      9  C   LIG d   1      -0.420  80.517 115.840  0.00  0.00     0.028 C 
ATOM     10  C   LIG d   1      -1.350  79.325 116.120  0.00  0.00     0.006 C 
ENDBRANCH   8   9
BRANCH   8  11
ATOM     11  C   LIG d   1       1.823  80.564 114.872  0.00  0.00     0.028 C 
ATOM     12  C   LIG d   1       2.285  82.020 114.706  0.00  0.00     0.006 C 
ENDBRANCH   8  11
ENDBRANCH   7   8
ENDBRANCH   1   7
BRANCH   6  13
ATOM     13  N   LIG d   1       1.382  81.653 111.017  0.00  0.00    -0.311 N 
ATOM     14  C   LIG d   1       2.713  81.723 111.020  0.00  0.00     0.210 C 
ATOM     15  C   LIG d   1       3.291  83.050 110.520  0.00  0.00     0.109 C 
ATOM     16  O   LIG d   1       3.469  80.801 111.360  0.00  0.00    -0.276 OA
ATOM     17  H   LIG d   1       0.848  82.436 110.695  0.00  0.00     0.149 HD
ENDBRANCH   6  13
BRANCH   5  18
ATOM     18  N   LIG d   1       1.284  78.971 109.558  0.00  0.00     0.381 N 
ATOM     19  H   LIG d   1       0.970  78.158 109.066  0.00  0.00    -0.090 HD
ATOM     20  H   LIG d   1       1.998  78.690 110.207  0.00  0.00    -0.090 HD
ATOM     21  H   LIG d   1       1.653  79.636 108.914  0.00  0.00    -0.090 HD
ENDBRANCH   5  18
BRANCH   3  22
ATOM     22  C   LIG d   1      -2.869  78.085 111.771  0.00  0.00     0.382 C 
ATOM     23  O   LIG d   1      -3.253  77.446 110.762  0.00  0.00    -0.241 OA
ATOM     24  O   LIG d   1      -3.559  78.065 112.809  0.00  0.00    -0.241 OA
ENDBRANCH   3  22
TORSDOF 7
ENDMDL
MODEL 3
REMARK VINA RESULT:      -5.5      2.218      4.555
REMARK  7 active torsions:
REMARK  status: ('A' for Active; 'I' for Inactive)
REMARK    1  A    between atoms: C_2  and  C_3 
REMARK    2  A    between atoms: C_3  and  O_6 
REMARK    3  A    between atoms: C_3  and  C_4 
REMARK    4  A    between atoms: C_7  and  O_6 
REMARK    5  A    between atoms: C_9  and  C_10 
REMARK    6  A    between atoms: N_15  and  C_14 
REMARK    7  A    between atoms: N_20  and  C_19 
REMARK       I    between atoms: C_22  and  N_20 
ROOT
ATOM      1  C   LIG d   1       0.729  80.397 111.401  0.00  0.00     0.161 C 
ATOM      2  C   LIG d   1      -0.224  79.382 111.211  0.00  0.00     0.016 C 
ATOM      3  C   LIG d   1      -1.047  78.883 112.247  0.00  0.00     0.038 C 
ATOM      4  C   LIG d   1      -1.078  79.475 113.519  0.00  0.00     0.028 C 
ATOM      5  C   LIG d   1       0.226  80.170 113.896  0.00  0.00    -0.047 C 
ATOM      6  C   LIG d   1       0.631  81.131 112.755  0.00  0.00     0.091 C 
ENDROOT
BRANCH   1   7
ATOM      7  O   LIG d   1       0.660  81.341 110.314  0.00  0.00    -0.368 OA
BRANCH   7   8
ATOM      8  C   LIG d   1       1.809  81.380 109.431  0.00  0.00     0.119 C 
BRANCH   8   9
ATOM      9  C   LIG d   1       2.853  80.392 109.985  0.00  0.00     0.028 C 
ATOM     10  C   LIG d   1       4.233  81.042 110.175  0.00  0.00     0.006 C 
ENDBRANCH   8   9
BRANCH   8  11
ATOM     11  C   LIG d   1       2.490  82.751 109.464  0.00  0.00     0.028 C 
ATOM     12  C   LIG d   1       1.488  83.916 109.430  0.00  0.00     0.006 C 
ENDBRANCH   8  11
ENDBRANCH   7   8
ENDBRANCH   1   7
BRANCH   6  13
ATOM     13  N   LIG d   1       1.940  81.789 113.006  0.00  0.00    -0.311 N 
ATOM     14  C   LIG d   1       2.112  83.109 112.983  0.00  0.00     0.210 C 
ATOM     15  C   LIG d   1       3.547  83.578 113.248  0.00  0.00     0.109 C 
ATOM     16  O   LIG d   1       1.208  83.938 112.800  0.00  0.00    -0.276 OA
ATOM     17  H   LIG d   1       2.721  81.192 113.193  0.00  0.00     0.149 HD
ENDBRANCH   6  13
BRANCH   5  18
ATOM     18  N   LIG d   1       0.008  80.858 115.182  0.00  0.00     0.381 N 
ATOM     19  H   LIG d   1      -0.926  80.694 115.500  0.00  0.00    -0.090 HD
ATOM     20  H   LIG d   1       0.125  81.847 115.046  0.00  0.00    -0.090 HD
ATOM     21  H   LIG d   1       0.660  80.530 115.860  0.00  0.00    -0.090 HD
ENDBRANCH   5  18
BRANCH   3  22
ATOM     22  C   LIG d   1      -1.821  77.755 112.026  0.00  0.00     0.382 C 
ATOM     23  O   LIG d   1      -1.707  76.759 112.781  0.00  0.00    -0.241 OA
ATOM     24  O   LIG d   1      -2.600  77.703 111.055  0.00  0.00    -0.241 OA
ENDBRANCH   3  22
TORSDOF 7
ENDMDL
MODEL 4
REMARK VINA RESULT:      -5.2      2.638      5.500
REMARK  7 active torsions:
REMARK  status: ('A' for Active; 'I' for Inactive)
REMARK    1  A    between atoms: C_2  and  C_3 
REMARK    2  A    between atoms: C_3  and  O_6 
REMARK    3  A    between atoms: C_3  and  C_4 
REMARK    4  A    between atoms: C_7  and  O_6 
REMARK    5  A    between atoms: C_9  and  C_10 
REMARK    6  A    between atoms: N_15  and  C_14 
REMARK    7  A    between atoms: N_20  and  C_19 
REMARK       I    between atoms: C_22  and  N_20 
ROOT
ATOM      1  C   LIG d   1      -0.876  80.620 112.778  0.00  0.00     0.161 C 
ATOM      2  C   LIG d   1      -1.834  79.627 113.041  0.00  0.00     0.016 C 
ATOM      3  C   LIG d   1      -1.943  78.433 112.291  0.00  0.00     0.038 C 
ATOM      4  C   LIG d   1      -0.998  78.080 111.317  0.00  0.00     0.028 C 
ATOM      5  C   LIG d   1      -0.312  79.281 110.675  0.00  0.00    -0.047 C 
ATOM      6  C   LIG d   1       0.234  80.202 111.790  0.00  0.00     0.091 C 
ENDROOT
BRANCH   1   7
ATOM      7  O   LIG d   1      -0.298  81.081 114.015  0.00  0.00    -0.368 OA
BRANCH   7   8
ATOM      8  C   LIG d   1      -0.221  80.107 115.085  0.00  0.00     0.119 C 
BRANCH   8   9
ATOM      9  C   LIG d   1      -0.734  80.788 116.369  0.00  0.00     0.028 C 
ATOM     10  C   LIG d   1      -2.158  80.341 116.741  0.00  0.00     0.006 C 
ENDBRANCH   8   9
BRANCH   8  11
ATOM     11  C   LIG d   1       1.231  79.721 115.383  0.00  0.00     0.028 C 
ATOM     12  C   LIG d   1       1.345  78.555 116.378  0.00  0.00     0.006 C 
ENDBRANCH   8  11
ENDBRANCH   7   8
ENDBRANCH   1   7
BRANCH   6  13
ATOM     13  N   LIG d   1       0.846  81.444 111.251  0.00  0.00    -0.311 N 
ATOM     14  C   LIG d   1       2.119  81.782 111.453  0.00  0.00     0.210 C 
ATOM     15  C   LIG d   1       2.542  83.114 110.825  0.00  0.00     0.109 C 
ATOM     16  O   LIG d   1       2.946  81.089 112.065  0.00  0.00    -0.276 OA
ATOM     17  H   LIG d   1       0.255  82.049 110.715  0.00  0.00     0.149 HD
ENDBRANCH   6  13
BRANCH   5  18
ATOM     18  N   LIG d   1       0.743  78.768 109.781  0.00  0.00     0.381 N 
ATOM     19  H   LIG d   1       0.419  77.944 109.314  0.00  0.00    -0.090 HD
ATOM     20  H   LIG d   1       1.545  78.522 110.334  0.00  0.00    -0.090 HD
ATOM     21  H   LIG d   1       0.991  79.463 109.112  0.00  0.00    -0.090 HD
ENDBRANCH   5  18
BRANCH   3  22
ATOM     22  C   LIG d   1      -3.031  77.596 112.487  0.00  0.00     0.382 C 
ATOM     23  O   LIG d   1      -4.107  77.813 111.879  0.00  0.00    -0.241 OA
ATOM     24  O   LIG d   1      -2.964  76.652 113.297  0.00  0.00    -0.241 OA
ENDBRANCH   3  22
TORSDOF 7
ENDMDL
MODEL 5
REMARK VINA RESULT:      -5.2      3.090      5.841
REMARK  7 active torsions:
REMARK  status: ('A' for Active; 'I' for Inactive)
REMARK    1  A    between atoms: C_2  and  C_3 
REMARK    2  A    between atoms: C_3  and  O_6 
REMARK    3  A    between atoms: C_3  and  C_4 
REMARK    4  A    between atoms: C_7  and  O_6 
REMARK    5  A    between atoms: C_9  and  C_10 
REMARK    6  A    between atoms: N_15  and  C_14 
REMARK    7  A    between atoms: N_20  and  C_19 
REMARK       I    between atoms: C_22  and  N_20 
ROOT
ATOM      1  C   LIG d   1      -2.087  80.162 114.287  0.00  0.00     0.161 C 
ATOM      2  C   LIG d   1      -1.867  81.045 113.216  0.00  0.00     0.016 C 
ATOM      3  C   LIG d   1      -0.580  81.384 112.738  0.00  0.00     0.038 C 
ATOM      4  C   LIG d   1       0.576  80.741 113.205  0.00  0.00     0.028 C 
ATOM      5  C   LIG d   1       0.444  80.215 114.630  0.00  0.00    -0.047 C 
ATOM      6  C   LIG d   1      -0.843  79.367 114.735  0.00  0.00     0.091 C 
ENDROOT
BRANCH   1   7
ATOM      7  O   LIG d   1      -3.167  79.264 113.965  0.00  0.00    -0.368 OA
BRANCH   7   8
ATOM      8  C   LIG d   1      -2.786  77.980 113.412  0.00  0.00     0.119 C 
BRANCH   8   9
ATOM      9  C   LIG d   1      -3.086  78.020 111.901  0.00  0.00     0.028 C 
ATOM     10  C   LIG d   1      -1.806  78.041 111.049  0.00  0.00     0.006 C 
ENDBRANCH   8   9
BRANCH   8  11
ATOM     11  C   LIG d   1      -3.659  76.852 113.969  0.00  0.00     0.028 C 
ATOM     12  C   LIG d   1      -4.239  77.176 115.355  0.00  0.00     0.006 C 
ENDBRANCH   8  11
ENDBRANCH   7   8
ENDBRANCH   1   7
BRANCH   6  13
ATOM     13  N   LIG d   1      -1.093  78.883 116.118  0.00  0.00    -0.311 N 
ATOM     14  C   LIG d   1      -0.736  77.674 116.547  0.00  0.00     0.210 C 
ATOM     15  C   LIG d   1      -1.105  77.370 118.003  0.00  0.00     0.109 C 
ATOM     16  O   LIG d   1      -0.120  76.837 115.871  0.00  0.00    -0.276 OA
ATOM     17  H   LIG d   1      -1.560  79.511 116.743  0.00  0.00     0.149 HD
ENDBRANCH   6  13
BRANCH   5  18
ATOM     18  N   LIG d   1       1.668  79.451 114.938  0.00  0.00     0.381 N 
ATOM     19  H   LIG d   1       1.451  78.703 115.567  0.00  0.00    -0.090 HD
ATOM     20  H   LIG d   1       2.327  80.060 115.389  0.00  0.00    -0.090 HD
ATOM     21  H   LIG d   1       2.062  79.085 114.099  0.00  0.00    -0.090 HD
ENDBRANCH   5  18
BRANCH   3  22
ATOM     22  C   LIG d   1      -0.438  82.404 111.811  0.00  0.00     0.382 C 
ATOM     23  O   LIG d   1      -0.674  83.591 112.143  0.00  0.00    -0.241 OA
ATOM     24  O   LIG d   1      -0.120  82.149 110.634  0.00  0.00    -0.241 OA
ENDBRANCH   3  22
TORSDOF 7
ENDMDL
MODEL 6
REMARK VINA RESULT:      -5.1      2.197      3.548
REMARK  7 active torsions:
REMARK  status: ('A' for Active; 'I' for Inactive)
REMARK    1  A    between atoms: C_2  and  C_3 
REMARK    2  A    between atoms: C_3  and  O_6 
REMARK    3  A    between atoms: C_3  and  C_4 
REMARK    4  A    between atoms: C_7  and  O_6 
REMARK    5  A    between atoms: C_9  and  C_10 
REMARK    6  A    between atoms: N_15  and  C_14 
REMARK    7  A    between atoms: N_20  and  C_19 
REMARK       I    between atoms: C_22  and  N_20 
ROOT
ATOM      1  C   LIG d   1       0.838  80.251 112.981  0.00  0.00     0.161 C 
ATOM      2  C   LIG d   1       2.007  80.896 112.543  0.00  0.00     0.016 C 
ATOM      3  C   LIG d   1       2.365  81.015 111.180  0.00  0.00     0.038 C 
ATOM      4  C   LIG d   1       1.498  80.627 110.148  0.00  0.00     0.028 C 
ATOM      5  C   LIG d   1       0.535  79.516 110.553  0.00  0.00    -0.047 C 
ATOM      6  C   LIG d   1      -0.175  79.920 111.865  0.00  0.00     0.091 C 
ENDROOT
BRANCH   1   7
ATOM      7  O   LIG d   1       0.207  81.033 114.014  0.00  0.00    -0.368 OA
BRANCH   7   8
ATOM      8  C   LIG d   1       0.164  80.432 115.332  0.00  0.00     0.119 C 
BRANCH   8   9
ATOM      9  C   LIG d   1      -1.272  80.594 115.868  0.00  0.00     0.028 C 
ATOM     10  C   LIG d   1      -1.841  79.280 116.429  0.00  0.00     0.006 C 
ENDBRANCH   8   9
BRANCH   8  11
ATOM     11  C   LIG d   1       1.054  81.191 116.320  0.00  0.00     0.028 C 
ATOM     12  C   LIG d   1       2.428  80.530 116.513  0.00  0.00     0.006 C 
ENDBRANCH   8  11
ENDBRANCH   7   8
ENDBRANCH   1   7
BRANCH   6  13
ATOM     13  N   LIG d   1      -1.073  78.851 112.376  0.00  0.00    -0.311 N 
ATOM     14  C   LIG d   1      -2.362  79.046 112.648  0.00  0.00     0.210 C 
ATOM     15  C   LIG d   1      -3.103  77.816 113.184  0.00  0.00     0.109 C 
ATOM     16  O   LIG d   1      -2.971  80.111 112.466  0.00  0.00    -0.276 OA
ATOM     17  H   LIG d   1      -0.669  77.947 112.523  0.00  0.00     0.149 HD
ENDBRANCH   6  13
BRANCH   5  18
ATOM     18  N   LIG d   1      -0.400  79.306 109.431  0.00  0.00     0.381 N 
ATOM     19  H   LIG d   1      -1.057  78.589 109.667  0.00  0.00    -0.090 HD
ATOM     20  H   LIG d   1       0.121  79.004 108.626  0.00  0.00    -0.090 HD
ATOM     21  H   LIG d   1      -0.881  80.153 109.225  0.00  0.00    -0.090 HD
ENDBRANCH   5  18
BRANCH   3  22
ATOM     22  C   LIG d   1       3.622  81.491 110.840  0.00  0.00     0.382 C 
ATOM     23  O   LIG d   1       4.221  82.284 111.606  0.00  0.00    -0.241 OA
ATOM     24  O   LIG d   1       4.146  81.173 109.755  0.00  0.00    -0.241 OA
ENDBRANCH   3  22
TORSDOF 7
ENDMDL
MODEL 7
REMARK VINA RESULT:      -4.8      4.111      7.084
REMARK  7 active torsions:
REMARK  status: ('A' for Active; 'I' for Inactive)
REMARK    1  A    between atoms: C_2  and  C_3 
REMARK    2  A    between atoms: C_3  and  O_6 
REMARK    3  A    between atoms: C_3  and  C_4 
REMARK    4  A    between atoms: C_7  and  O_6 
REMARK    5  A    between atoms: C_9  and  C_10 
REMARK    6  A    between atoms: N_15  and  C_14 
REMARK    7  A    between atoms: N_20  and  C_19 
REMARK       I    between atoms: C_22  and  N_20 
ROOT
ATOM      1  C   LIG d   1      -1.419  78.611 115.367  0.00  0.00     0.161 C 
ATOM      2  C   LIG d   1      -1.991  79.434 114.383  0.00  0.00     0.016 C 
ATOM      3  C   LIG d   1      -1.328  80.548 113.819  0.00  0.00     0.038 C 
ATOM      4  C   LIG d   1       0.019  80.827 114.094  0.00  0.00     0.028 C 
ATOM      5  C   LIG d   1       0.475  80.324 115.459  0.00  0.00    -0.047 C 
ATOM      6  C   LIG d   1       0.090  78.833 115.599  0.00  0.00     0.091 C 
ENDROOT
BRANCH   1   7
ATOM      7  O   LIG d   1      -1.680  77.227 115.060  0.00  0.00    -0.368 OA
BRANCH   7   8
ATOM      8  C   LIG d   1      -2.401  76.476 116.066  0.00  0.00     0.119 C 
BRANCH   8   9
ATOM      9  C   LIG d   1      -2.014  74.993 115.903  0.00  0.00     0.028 C 
ATOM     10  C   LIG d   1      -0.814  74.599 116.780  0.00  0.00     0.006 C 
ENDBRANCH   8   9
BRANCH   8  11
ATOM     11  C   LIG d   1      -3.913  76.529 115.826  0.00  0.00     0.028 C 
ATOM     12  C   LIG d   1      -4.310  76.045 114.422  0.00  0.00     0.006 C 
ENDBRANCH   8  11
ENDBRANCH   7   8
ENDBRANCH   1   7
BRANCH   6  13
ATOM     13  N   LIG d   1       0.425  78.285 116.939  0.00  0.00    -0.311 N 
ATOM     14  C   LIG d   1       1.611  77.758 117.240  0.00  0.00     0.210 C 
ATOM     15  C   LIG d   1       1.740  77.232 118.673  0.00  0.00     0.109 C 
ATOM     16  O   LIG d   1       2.579  77.705 116.466  0.00  0.00    -0.276 OA
ATOM     17  H   LIG d   1      -0.292  78.315 117.637  0.00  0.00     0.149 HD
ENDBRANCH   6  13
BRANCH   5  18
ATOM     18  N   LIG d   1       1.928  80.558 115.558  0.00  0.00     0.381 N 
ATOM     19  H   LIG d   1       2.336  80.543 114.645  0.00  0.00    -0.090 HD
ATOM     20  H   LIG d   1       2.340  79.819 116.100  0.00  0.00    -0.090 HD
ATOM     21  H   LIG d   1       2.103  81.437 115.994  0.00  0.00    -0.090 HD
ENDBRANCH   5  18
BRANCH   3  22
ATOM     22  C   LIG d   1      -2.027  81.421 112.999  0.00  0.00     0.382 C 
ATOM     23  O   LIG d   1      -3.187  81.131 112.619  0.00  0.00    -0.241 OA
ATOM     24  O   LIG d   1      -1.496  82.474 112.599  0.00  0.00    -0.241 OA
ENDBRANCH   3  22
TORSDOF 7
ENDMDL
MODEL 8
REMARK VINA RESULT:      -4.8      3.889      6.912
REMARK  7 active torsions:
REMARK  status: ('A' for Active; 'I' for Inactive)
REMARK    1  A    between atoms: C_2  and  C_3 
REMARK    2  A    between atoms: C_3  and  O_6 
REMARK    3  A    between atoms: C_3  and  C_4 
REMARK    4  A    between atoms: C_7  and  O_6 
REMARK    5  A    between atoms: C_9  and  C_10 
REMARK    6  A    between atoms: N_15  and  C_14 
REMARK    7  A    between atoms: N_20  and  C_19 
REMARK       I    between atoms: C_22  and  N_20 
ROOT
ATOM      1  C   LIG d   1      -1.803  79.588 116.046  0.00  0.00     0.161 C 
ATOM      2  C   LIG d   1      -2.326  80.261 114.930  0.00  0.00     0.016 C 
ATOM      3  C   LIG d   1      -1.527  80.753 113.872  0.00  0.00     0.038 C 
ATOM      4  C   LIG d   1      -0.156  80.471 113.786  0.00  0.00     0.028 C 
ATOM      5  C   LIG d   1       0.499  80.230 115.141  0.00  0.00    -0.047 C 
ATOM      6  C   LIG d   1      -0.322  79.173 115.915  0.00  0.00     0.091 C 
ENDROOT
BRANCH   1   7
ATOM      7  O   LIG d   1      -2.619  78.441 116.353  0.00  0.00    -0.368 OA
BRANCH   7   8
ATOM      8  C   LIG d   1      -2.256  77.205 115.690  0.00  0.00     0.119 C 
BRANCH   8   9
ATOM      9  C   LIG d   1      -3.451  76.781 114.814  0.00  0.00     0.028 C 
ATOM     10  C   LIG d   1      -3.301  77.240 113.354  0.00  0.00     0.006 C 
ENDBRANCH   8   9
BRANCH   8  11
ATOM     11  C   LIG d   1      -2.068  76.066 116.697  0.00  0.00     0.028 C 
ATOM     12  C   LIG d   1      -1.023  75.035 116.242  0.00  0.00     0.006 C 
ENDBRANCH   8  11
ENDBRANCH   7   8
ENDBRANCH   1   7
BRANCH   6  13
ATOM     13  N   LIG d   1       0.203  78.940 117.286  0.00  0.00    -0.311 N 
ATOM     14  C   LIG d   1       1.122  78.020 117.572  0.00  0.00     0.210 C 
ATOM     15  C   LIG d   1       1.509  77.931 119.052  0.00  0.00     0.109 C 
ATOM     16  O   LIG d   1       1.678  77.291 116.737  0.00  0.00    -0.276 OA
ATOM     17  H   LIG d   1      -0.171  79.509 118.020  0.00  0.00     0.149 HD
ENDBRANCH   6  13
BRANCH   5  18
ATOM     18  N   LIG d   1       1.892  79.812 114.895  0.00  0.00     0.381 N 
ATOM     19  H   LIG d   1       1.915  78.847 114.630  0.00  0.00    -0.090 HD
ATOM     20  H   LIG d   1       2.419  79.918 115.744  0.00  0.00    -0.090 HD
ATOM     21  H   LIG d   1       2.294  80.371 114.175  0.00  0.00    -0.090 HD
ENDBRANCH   5  18
BRANCH   3  22
ATOM     22  C   LIG d   1      -2.094  81.571 112.907  0.00  0.00     0.382 C 
ATOM     23  O   LIG d   1      -3.308  81.450 112.615  0.00  0.00    -0.241 OA
ATOM     24  O   LIG d   1      -1.395  82.400 112.292  0.00  0.00    -0.241 OA
ENDBRANCH   3  22
TORSDOF 7
ENDMDL
MODEL 9
REMARK VINA RESULT:      -4.7      2.809      4.928
REMARK  7 active torsions:
REMARK  status: ('A' for Active; 'I' for Inactive)
REMARK    1  A    between atoms: C_2  and  C_3 
REMARK    2  A    between atoms: C_3  and  O_6 
REMARK    3  A    between atoms: C_3  and  C_4 
REMARK    4  A    between atoms: C_7  and  O_6 
REMARK    5  A    between atoms: C_9  and  C_10 
REMARK    6  A    between atoms: N_15  and  C_14 
REMARK    7  A    between atoms: N_20  and  C_19 
REMARK       I    between atoms: C_22  and  N_20 
ROOT
ATOM      1  C   LIG d   1      -0.193  80.178 113.391  0.00  0.00     0.161 C 
ATOM      2  C   LIG d   1      -0.863  79.027 112.944  0.00  0.00     0.016 C 
ATOM      3  C   LIG d   1      -0.830  78.578 111.604  0.00  0.00     0.038 C 
ATOM      4  C   LIG d   1       0.005  79.170 110.644  0.00  0.00     0.028 C 
ATOM      5  C   LIG d   1       0.308  80.637 110.928  0.00  0.00    -0.047 C 
ATOM      6  C   LIG d   1       0.812  80.773 112.383  0.00  0.00     0.091 C 
ENDROOT
BRANCH   1   7
ATOM      7  O   LIG d   1       0.458  79.907 114.648  0.00  0.00    -0.368 OA
BRANCH   7   8
ATOM      8  C   LIG d   1      -0.110  80.555 115.813  0.00  0.00     0.119 C 
BRANCH   8   9
ATOM      9  C   LIG d   1       1.032  81.298 116.532  0.00  0.00     0.028 C 
ATOM     10  C   LIG d   1       2.417  80.929 115.973  0.00  0.00     0.006 C 
ENDBRANCH   8   9
BRANCH   8  11
ATOM     11  C   LIG d   1      -0.626  79.528 116.824  0.00  0.00     0.028 C 
ATOM     12  C   LIG d   1      -0.032  78.127 116.608  0.00  0.00     0.006 C 
ENDBRANCH   8  11
ENDBRANCH   7   8
ENDBRANCH   1   7
BRANCH   6  13
ATOM     13  N   LIG d   1       1.052  82.188 112.769  0.00  0.00    -0.311 N 
ATOM     14  C   LIG d   1       2.254  82.762 112.742  0.00  0.00     0.210 C 
ATOM     15  C   LIG d   1       2.283  84.224 113.200  0.00  0.00     0.109 C 
ATOM     16  O   LIG d   1       3.293  82.209 112.352  0.00  0.00    -0.276 OA
ATOM     17  H   LIG d   1       0.258  82.720 113.069  0.00  0.00     0.149 HD
ENDBRANCH   6  13
BRANCH   5  18
ATOM     18  N   LIG d   1       1.296  81.089 109.929  0.00  0.00     0.381 N 
ATOM     19  H   LIG d   1       2.128  80.539 110.004  0.00  0.00    -0.090 HD
ATOM     20  H   LIG d   1       1.533  82.047 110.117  0.00  0.00    -0.090 HD
ATOM     21  H   LIG d   1       0.915  81.007 109.012  0.00  0.00    -0.090 HD
ENDBRANCH   5  18
BRANCH   3  22
ATOM     22  C   LIG d   1      -1.669  77.549 111.202  0.00  0.00     0.382 C 
ATOM     23  O   LIG d   1      -1.201  76.404 110.994  0.00  0.00    -0.241 OA
ATOM     24  O   LIG d   1      -2.880  77.763 111.003  0.00  0.00    -0.241 OA
ENDBRANCH   3  22
TORSDOF 7
ENDMDL
