MODEL 1
REMARK VINA RESULT:      -4.3      0.000      0.000
REMARK  7 active torsions:
REMARK  status: ('A' for Active; 'I' for Inactive)
REMARK    1  A    between atoms: C_2  and  C_3 
REMARK    2  A    between atoms: C_3  and  O_6 
REMARK    3  A    between atoms: C_3  and  C_4 
REMARK    4  A    between atoms: C_7  and  O_6 
REMARK    5  A    between atoms: C_9  and  C_10 
REMARK    6  A    between atoms: N_15  and  C_14 
REMARK    7  A    between atoms: N_20  and  C_19 
REMARK       I    between atoms: C_22  and  N_20 
ROOT
ATOM      1  C   LIG d   1       1.565  82.153 112.735  0.00  0.00     0.161 C 
ATOM      2  C   LIG d   1       2.553  82.831 112.002  0.00  0.00     0.016 C 
ATOM      3  C   LIG d   1       2.566  82.898 110.590  0.00  0.00     0.038 C 
ATOM      4  C   LIG d   1       1.501  82.414 109.815  0.00  0.00     0.028 C 
ATOM      5  C   LIG d   1       0.732  81.279 110.483  0.00  0.00    -0.047 C 
ATOM      6  C   LIG d   1       0.336  81.714 111.912  0.00  0.00     0.091 C 
ENDROOT
BRANCH   1   7
ATOM      7  O   LIG d   1       1.155  82.954 113.860  0.00  0.00    -0.368 OA
BRANCH   7   8
ATOM      8  C   LIG d   1       2.195  83.307 114.805  0.00  0.00     0.119 C 
BRANCH   8   9
ATOM      9  C   LIG d   1       2.119  82.304 115.973  0.00  0.00     0.028 C 
ATOM     10  C   LIG d   1       3.135  81.159 115.830  0.00  0.00     0.006 C 
ENDBRANCH   8   9
BRANCH   8  11
ATOM     11  C   LIG d   1       1.937  84.680 115.432  0.00  0.00     0.028 C 
ATOM     12  C   LIG d   1       1.916  84.639 116.968  0.00  0.00     0.006 C 
ENDBRANCH   8  11
ENDBRANCH   7   8
ENDBRANCH   1   7
BRANCH   6  13
ATOM     13  N   LIG d   1      -0.347  80.631 112.666  0.00  0.00    -0.311 N 
ATOM     14  C   LIG d   1      -1.671  80.531 112.768  0.00  0.00     0.210 C 
ATOM     15  C   LIG d   1      -2.168  79.350 113.608  0.00  0.00     0.109 C 
ATOM     16  O   LIG d   1      -2.483  81.290 112.217  0.00  0.00    -0.276 OA
ATOM     17  H   LIG d   1       0.235  79.953 113.118  0.00  0.00     0.149 HD
ENDBRANCH   6  13
BRANCH   5  18
ATOM     18  N   LIG d   1      -0.430  80.966 109.630  0.00  0.00     0.381 N 
ATOM     19  H   LIG d   1      -0.144  80.918 108.673  0.00  0.00    -0.090 HD
ATOM     20  H   LIG d   1      -1.107  81.703 109.721  0.00  0.00    -0.090 HD
ATOM     21  H   LIG d   1      -0.833  80.098 109.908  0.00  0.00    -0.090 HD
ENDBRANCH   5  18
BRANCH   3  22
ATOM     22  C   LIG d   1       3.673  83.418 109.937  0.00  0.00     0.382 C 
ATOM     23  O   LIG d   1       3.802  84.659 109.813  0.00  0.00    -0.241 OA
ATOM     24  O   LIG d   1       4.522  82.659 109.430  0.00  0.00    -0.241 OA
ENDBRANCH   3  22
TORSDOF 7
ENDMDL
MODEL 2
REMARK VINA RESULT:      -4.2      6.282      7.550
REMARK  7 active torsions:
REMARK  status: ('A' for Active; 'I' for Inactive)
REMARK    1  A    between atoms: C_2  and  C_3 
REMARK    2  A    between atoms: C_3  and  O_6 
REMARK    3  A    between atoms: C_3  and  C_4 
REMARK    4  A    between atoms: C_7  and  O_6 
REMARK    5  A    between atoms: C_9  and  C_10 
REMARK    6  A    between atoms: N_15  and  C_14 
REMARK    7  A    between atoms: N_20  and  C_19 
REMARK       I    between atoms: C_22  and  N_20 
ROOT
ATOM      1  C   LIG d   1      -1.424  77.605 116.273  0.00  0.00     0.161 C 
ATOM      2  C   LIG d   1      -1.779  78.142 115.025  0.00  0.00     0.016 C 
ATOM      3  C   LIG d   1      -2.599  77.468 114.092  0.00  0.00     0.038 C 
ATOM      4  C   LIG d   1      -3.248  76.265 114.409  0.00  0.00     0.028 C 
ATOM      5  C   LIG d   1      -2.517  75.442 115.464  0.00  0.00    -0.047 C 
ATOM      6  C   LIG d   1      -2.212  76.343 116.682  0.00  0.00     0.091 C 
ENDROOT
BRANCH   1   7
ATOM      7  O   LIG d   1      -1.537  78.618 117.292  0.00  0.00    -0.368 OA
BRANCH   7   8
ATOM      8  C   LIG d   1      -0.320  79.334 117.616  0.00  0.00     0.119 C 
BRANCH   8   9
ATOM      9  C   LIG d   1       0.837  78.317 117.592  0.00  0.00     0.028 C 
ATOM     10  C   LIG d   1       1.297  77.918 119.004  0.00  0.00     0.006 C 
ENDBRANCH   8   9
BRANCH   8  11
ATOM     11  C   LIG d   1      -0.356  79.873 119.049  0.00  0.00     0.028 C 
ATOM     12  C   LIG d   1      -0.386  81.409 119.108  0.00  0.00     0.006 C 
ENDBRANCH   8  11
ENDBRANCH   7   8
ENDBRANCH   1   7
BRANCH   6  13
ATOM     13  N   LIG d   1      -1.424  75.638 117.726  0.00  0.00    -0.311 N 
ATOM     14  C   LIG d   1      -1.741  75.652 119.019  0.00  0.00     0.210 C 
ATOM     15  C   LIG d   1      -0.783  74.877 119.929  0.00  0.00     0.109 C 
ATOM     16  O   LIG d   1      -2.744  76.206 119.495  0.00  0.00    -0.276 OA
ATOM     17  H   LIG d   1      -0.611  75.137 117.423  0.00  0.00     0.149 HD
ENDBRANCH   6  13
BRANCH   5  18
ATOM     18  N   LIG d   1      -3.370  74.286 115.798  0.00  0.00     0.381 N 
ATOM     19  H   LIG d   1      -3.144  73.514 115.204  0.00  0.00    -0.090 HD
ATOM     20  H   LIG d   1      -4.331  74.535 115.640  0.00  0.00    -0.090 HD
ATOM     21  H   LIG d   1      -3.239  74.030 116.752  0.00  0.00    -0.090 HD
ENDBRANCH   5  18
BRANCH   3  22
ATOM     22  C   LIG d   1      -2.745  77.977 112.810  0.00  0.00     0.382 C 
ATOM     23  O   LIG d   1      -3.104  79.168 112.646  0.00  0.00    -0.241 OA
ATOM     24  O   LIG d   1      -2.565  77.248 111.817  0.00  0.00    -0.241 OA
ENDBRANCH   3  22
TORSDOF 7
ENDMDL
MODEL 3
REMARK VINA RESULT:      -4.2      6.555      8.041
REMARK  7 active torsions:
REMARK  status: ('A' for Active; 'I' for Inactive)
REMARK    1  A    between atoms: C_2  and  C_3 
REMARK    2  A    between atoms: C_3  and  O_6 
REMARK    3  A    between atoms: C_3  and  C_4 
REMARK    4  A    between atoms: C_7  and  O_6 
REMARK    5  A    between atoms: C_9  and  C_10 
REMARK    6  A    between atoms: N_15  and  C_14 
REMARK    7  A    between atoms: N_20  and  C_19 
REMARK       I    between atoms: C_22  and  N_20 
ROOT
ATOM      1  C   LIG d   1      -0.836  78.001 116.297  0.00  0.00     0.161 C 
ATOM      2  C   LIG d   1      -1.715  78.433 115.290  0.00  0.00     0.016 C 
ATOM      3  C   LIG d   1      -2.373  77.552 114.401  0.00  0.00     0.038 C 
ATOM      4  C   LIG d   1      -2.312  76.159 114.558  0.00  0.00     0.028 C 
ATOM      5  C   LIG d   1      -1.037  75.682 115.245  0.00  0.00    -0.047 C 
ATOM      6  C   LIG d   1      -0.843  76.480 116.554  0.00  0.00     0.091 C 
ENDROOT
BRANCH   1   7
ATOM      7  O   LIG d   1      -1.103  78.717 117.519  0.00  0.00    -0.368 OA
BRANCH   7   8
ATOM      8  C   LIG d   1      -2.009  78.075 118.449  0.00  0.00     0.119 C 
BRANCH   8   9
ATOM      9  C   LIG d   1      -3.296  78.920 118.501  0.00  0.00     0.028 C 
ATOM     10  C   LIG d   1      -4.438  78.303 117.676  0.00  0.00     0.006 C 
ENDBRANCH   8   9
BRANCH   8  11
ATOM     11  C   LIG d   1      -1.451  78.097 119.876  0.00  0.00     0.028 C 
ATOM     12  C   LIG d   1       0.030  78.501 119.930  0.00  0.00     0.006 C 
ENDBRANCH   8  11
ENDBRANCH   7   8
ENDBRANCH   1   7
BRANCH   6  13
ATOM     13  N   LIG d   1       0.426  76.134 117.246  0.00  0.00    -0.311 N 
ATOM     14  C   LIG d   1       0.507  75.225 118.216  0.00  0.00     0.210 C 
ATOM     15  C   LIG d   1       1.907  75.036 118.809  0.00  0.00     0.109 C 
ATOM     16  O   LIG d   1      -0.440  74.534 118.619  0.00  0.00    -0.276 OA
ATOM     17  H   LIG d   1       1.250  76.626 116.960  0.00  0.00     0.149 HD
ENDBRANCH   6  13
BRANCH   5  18
ATOM     18  N   LIG d   1      -1.167  74.229 115.467  0.00  0.00     0.381 N 
ATOM     19  H   LIG d   1      -1.863  73.854 114.853  0.00  0.00    -0.090 HD
ATOM     20  H   LIG d   1      -1.463  74.071 116.414  0.00  0.00    -0.090 HD
ATOM     21  H   LIG d   1      -0.293  73.780 115.305  0.00  0.00    -0.090 HD
ENDBRANCH   5  18
BRANCH   3  22
ATOM     22  C   LIG d   1      -3.070  78.063 113.317  0.00  0.00     0.382 C 
ATOM     23  O   LIG d   1      -3.880  77.336 112.693  0.00  0.00    -0.241 OA
ATOM     24  O   LIG d   1      -2.866  79.229 112.928  0.00  0.00    -0.241 OA
ENDBRANCH   3  22
TORSDOF 7
ENDMDL
MODEL 4
REMARK VINA RESULT:      -4.2      6.168      8.219
REMARK  7 active torsions:
REMARK  status: ('A' for Active; 'I' for Inactive)
REMARK    1  A    between atoms: C_2  and  C_3 
REMARK    2  A    between atoms: C_3  and  O_6 
REMARK    3  A    between atoms: C_3  and  C_4 
REMARK    4  A    between atoms: C_7  and  O_6 
REMARK    5  A    between atoms: C_9  and  C_10 
REMARK    6  A    between atoms: N_15  and  C_14 
REMARK    7  A    between atoms: N_20  and  C_19 
REMARK       I    between atoms: C_22  and  N_20 
ROOT
ATOM      1  C   LIG d   1      -0.675  77.752 117.101  0.00  0.00     0.161 C 
ATOM      2  C   LIG d   1      -1.315  78.496 116.096  0.00  0.00     0.016 C 
ATOM      3  C   LIG d   1      -1.834  77.922 114.912  0.00  0.00     0.038 C 
ATOM      4  C   LIG d   1      -1.881  76.533 114.722  0.00  0.00     0.028 C 
ATOM      5  C   LIG d   1      -0.794  75.779 115.481  0.00  0.00    -0.047 C 
ATOM      6  C   LIG d   1      -0.817  76.222 116.962  0.00  0.00     0.091 C 
ENDROOT
BRANCH   1   7
ATOM      7  O   LIG d   1      -1.137  78.182 118.397  0.00  0.00    -0.368 OA
BRANCH   7   8
ATOM      8  C   LIG d   1      -2.520  78.609 118.471  0.00  0.00     0.119 C 
BRANCH   8   9
ATOM      9  C   LIG d   1      -2.573  79.845 119.390  0.00  0.00     0.028 C 
ATOM     10  C   LIG d   1      -4.014  80.266 119.723  0.00  0.00     0.006 C 
ENDBRANCH   8   9
BRANCH   8  11
ATOM     11  C   LIG d   1      -3.393  77.555 119.158  0.00  0.00     0.028 C 
ATOM     12  C   LIG d   1      -4.234  76.739 118.164  0.00  0.00     0.006 C 
ENDBRANCH   8  11
ENDBRANCH   7   8
ENDBRANCH   1   7
BRANCH   6  13
ATOM     13  N   LIG d   1       0.270  75.595 117.757  0.00  0.00    -0.311 N 
ATOM     14  C   LIG d   1       0.073  75.017 118.941  0.00  0.00     0.210 C 
ATOM     15  C   LIG d   1       1.334  74.450 119.602  0.00  0.00     0.109 C 
ATOM     16  O   LIG d   1      -1.031  74.891 119.491  0.00  0.00    -0.276 OA
ATOM     17  H   LIG d   1       1.194  75.624 117.371  0.00  0.00     0.149 HD
ENDBRANCH   6  13
BRANCH   5  18
ATOM     18  N   LIG d   1      -1.045  74.337 115.304  0.00  0.00     0.381 N 
ATOM     19  H   LIG d   1      -1.852  74.201 114.728  0.00  0.00    -0.090 HD
ATOM     20  H   LIG d   1      -1.226  73.926 116.203  0.00  0.00    -0.090 HD
ATOM     21  H   LIG d   1      -0.253  73.901 114.885  0.00  0.00    -0.090 HD
ENDBRANCH   5  18
BRANCH   3  22
ATOM     22  C   LIG d   1      -2.275  78.743 113.886  0.00  0.00     0.382 C 
ATOM     23  O   LIG d   1      -1.739  79.862 113.704  0.00  0.00    -0.241 OA
ATOM     24  O   LIG d   1      -3.233  78.397 113.168  0.00  0.00    -0.241 OA
ENDBRANCH   3  22
TORSDOF 7
ENDMDL
MODEL 5
REMARK VINA RESULT:      -3.7      4.792      8.523
REMARK  7 active torsions:
REMARK  status: ('A' for Active; 'I' for Inactive)
REMARK    1  A    between atoms: C_2  and  C_3 
REMARK    2  A    between atoms: C_3  and  O_6 
REMARK    3  A    between atoms: C_3  and  C_4 
REMARK    4  A    between atoms: C_7  and  O_6 
REMARK    5  A    between atoms: C_9  and  C_10 
REMARK    6  A    between atoms: N_15  and  C_14 
REMARK    7  A    between atoms: N_20  and  C_19 
REMARK       I    between atoms: C_22  and  N_20 
ROOT
ATOM      1  C   LIG d   1      -1.939  78.030 115.052  0.00  0.00     0.161 C 
ATOM      2  C   LIG d   1      -2.905  77.028 114.858  0.00  0.00     0.016 C 
ATOM      3  C   LIG d   1      -3.158  76.000 115.794  0.00  0.00     0.038 C 
ATOM      4  C   LIG d   1      -2.564  75.991 117.065  0.00  0.00     0.028 C 
ATOM      5  C   LIG d   1      -1.212  76.695 117.106  0.00  0.00    -0.047 C 
ATOM      6  C   LIG d   1      -1.359  78.101 116.480  0.00  0.00     0.091 C 
ENDROOT
BRANCH   1   7
ATOM      7  O   LIG d   1      -2.478  79.310 114.666  0.00  0.00    -0.368 OA
BRANCH   7   8
ATOM      8  C   LIG d   1      -2.866  79.445 113.276  0.00  0.00     0.119 C 
BRANCH   8   9
ATOM      9  C   LIG d   1      -1.892  78.595 112.439  0.00  0.00     0.028 C 
ATOM     10  C   LIG d   1      -2.599  77.848 111.295  0.00  0.00     0.006 C 
ENDBRANCH   8   9
BRANCH   8  11
ATOM     11  C   LIG d   1      -2.678  80.883 112.783  0.00  0.00     0.028 C 
ATOM     12  C   LIG d   1      -1.231  81.182 112.359  0.00  0.00     0.006 C 
ENDBRANCH   8  11
ENDBRANCH   7   8
ENDBRANCH   1   7
BRANCH   6  13
ATOM     13  N   LIG d   1      -0.064  78.826 116.404  0.00  0.00    -0.311 N 
ATOM     14  C   LIG d   1       0.416  79.575 117.395  0.00  0.00     0.210 C 
ATOM     15  C   LIG d   1       1.759  80.252 117.103  0.00  0.00     0.109 C 
ATOM     16  O   LIG d   1      -0.127  79.717 118.501  0.00  0.00    -0.276 OA
ATOM     17  H   LIG d   1       0.457  78.741 115.554  0.00  0.00     0.149 HD
ENDBRANCH   6  13
BRANCH   5  18
ATOM     18  N   LIG d   1      -0.772  76.732 118.513  0.00  0.00     0.381 N 
ATOM     19  H   LIG d   1      -1.174  75.965 119.014  0.00  0.00    -0.090 HD
ATOM     20  H   LIG d   1      -1.094  77.587 118.932  0.00  0.00    -0.090 HD
ATOM     21  H   LIG d   1       0.222  76.685 118.561  0.00  0.00    -0.090 HD
ENDBRANCH   5  18
BRANCH   3  22
ATOM     22  C   LIG d   1      -3.986  74.943 115.446  0.00  0.00     0.382 C 
ATOM     23  O   LIG d   1      -4.318  74.775 114.248  0.00  0.00    -0.241 OA
ATOM     24  O   LIG d   1      -4.440  74.182 116.322  0.00  0.00    -0.241 OA
ENDBRANCH   3  22
TORSDOF 7
ENDMDL
MODEL 6
REMARK VINA RESULT:      -3.7      6.907      9.474
REMARK  7 active torsions:
REMARK  status: ('A' for Active; 'I' for Inactive)
REMARK    1  A    between atoms: C_2  and  C_3 
REMARK    2  A    between atoms: C_3  and  O_6 
REMARK    3  A    between atoms: C_3  and  C_4 
REMARK    4  A    between atoms: C_7  and  O_6 
REMARK    5  A    between atoms: C_9  and  C_10 
REMARK    6  A    between atoms: N_15  and  C_14 
REMARK    7  A    between atoms: N_20  and  C_19 
REMARK       I    between atoms: C_22  and  N_20 
ROOT
ATOM      1  C   LIG d   1      -1.027  76.419 118.268  0.00  0.00     0.161 C 
ATOM      2  C   LIG d   1      -2.200  77.187 118.364  0.00  0.00     0.016 C 
ATOM      3  C   LIG d   1      -2.201  78.598 118.446  0.00  0.00     0.038 C 
ATOM      4  C   LIG d   1      -1.029  79.351 118.286  0.00  0.00     0.028 C 
ATOM      5  C   LIG d   1       0.235  78.600 118.692  0.00  0.00    -0.047 C 
ATOM      6  C   LIG d   1       0.254  77.228 117.980  0.00  0.00     0.091 C 
ENDROOT
BRANCH   1   7
ATOM      7  O   LIG d   1      -1.200  75.384 117.280  0.00  0.00    -0.368 OA
BRANCH   7   8
ATOM      8  C   LIG d   1      -2.162  75.659 116.231  0.00  0.00     0.119 C 
BRANCH   8   9
ATOM      9  C   LIG d   1      -2.796  74.316 115.822  0.00  0.00     0.028 C 
ATOM     10  C   LIG d   1      -4.089  74.501 115.009  0.00  0.00     0.006 C 
ENDBRANCH   8   9
BRANCH   8  11
ATOM     11  C   LIG d   1      -1.474  76.184 114.968  0.00  0.00     0.028 C 
ATOM     12  C   LIG d   1      -1.921  77.606 114.594  0.00  0.00     0.006 C 
ENDBRANCH   8  11
ENDBRANCH   7   8
ENDBRANCH   1   7
BRANCH   6  13
ATOM     13  N   LIG d   1       1.415  76.394 118.387  0.00  0.00    -0.311 N 
ATOM     14  C   LIG d   1       2.548  76.325 117.691  0.00  0.00     0.210 C 
ATOM     15  C   LIG d   1       3.610  75.389 118.278  0.00  0.00     0.109 C 
ATOM     16  O   LIG d   1       2.787  76.973 116.662  0.00  0.00    -0.276 OA
ATOM     17  H   LIG d   1       1.319  75.859 119.228  0.00  0.00     0.149 HD
ENDBRANCH   6  13
BRANCH   5  18
ATOM     18  N   LIG d   1       1.390  79.449 118.345  0.00  0.00     0.381 N 
ATOM     19  H   LIG d   1       2.048  79.451 119.098  0.00  0.00    -0.090 HD
ATOM     20  H   LIG d   1       1.070  80.391 118.203  0.00  0.00    -0.090 HD
ATOM     21  H   LIG d   1       1.825  79.109 117.515  0.00  0.00    -0.090 HD
ENDBRANCH   5  18
BRANCH   3  22
ATOM     22  C   LIG d   1      -3.381  79.269 118.732  0.00  0.00     0.382 C 
ATOM     23  O   LIG d   1      -3.395  80.165 119.610  0.00  0.00    -0.241 OA
ATOM     24  O   LIG d   1      -4.440  78.958 118.155  0.00  0.00    -0.241 OA
ENDBRANCH   3  22
TORSDOF 7
ENDMDL
MODEL 7
REMARK VINA RESULT:      -3.6      6.382      8.073
REMARK  7 active torsions:
REMARK  status: ('A' for Active; 'I' for Inactive)
REMARK    1  A    between atoms: C_2  and  C_3 
REMARK    2  A    between atoms: C_3  and  O_6 
REMARK    3  A    between atoms: C_3  and  C_4 
REMARK    4  A    between atoms: C_7  and  O_6 
REMARK    5  A    between atoms: C_9  and  C_10 
REMARK    6  A    between atoms: N_15  and  C_14 
REMARK    7  A    between atoms: N_20  and  C_19 
REMARK       I    between atoms: C_22  and  N_20 
ROOT
ATOM      1  C   LIG d   1       0.419  78.084 117.185  0.00  0.00     0.161 C 
ATOM      2  C   LIG d   1      -0.850  78.476 116.729  0.00  0.00     0.016 C 
ATOM      3  C   LIG d   1      -1.910  77.568 116.503  0.00  0.00     0.038 C 
ATOM      4  C   LIG d   1      -1.818  76.216 116.863  0.00  0.00     0.028 C 
ATOM      5  C   LIG d   1      -0.389  75.683 116.854  0.00  0.00    -0.047 C 
ATOM      6  C   LIG d   1       0.504  76.628 117.689  0.00  0.00     0.091 C 
ENDROOT
BRANCH   1   7
ATOM      7  O   LIG d   1       0.875  78.995 118.204  0.00  0.00    -0.368 OA
BRANCH   7   8
ATOM      8  C   LIG d   1       1.601  80.160 117.740  0.00  0.00     0.119 C 
BRANCH   8   9
ATOM      9  C   LIG d   1       3.097  79.911 118.009  0.00  0.00     0.028 C 
ATOM     10  C   LIG d   1       3.853  79.458 116.749  0.00  0.00     0.006 C 
ENDBRANCH   8   9
BRANCH   8  11
ATOM     11  C   LIG d   1       1.243  81.403 118.561  0.00  0.00     0.028 C 
ATOM     12  C   LIG d   1      -0.224  81.412 119.019  0.00  0.00     0.006 C 
ENDBRANCH   8  11
ENDBRANCH   7   8
ENDBRANCH   1   7
BRANCH   6  13
ATOM     13  N   LIG d   1       1.935  76.226 117.663  0.00  0.00    -0.311 N 
ATOM     14  C   LIG d   1       2.498  75.461 118.596  0.00  0.00     0.210 C 
ATOM     15  C   LIG d   1       3.990  75.182 118.390  0.00  0.00     0.109 C 
ATOM     16  O   LIG d   1       1.896  74.960 119.558  0.00  0.00    -0.276 OA
ATOM     17  H   LIG d   1       2.489  76.562 116.901  0.00  0.00     0.149 HD
ENDBRANCH   6  13
BRANCH   5  18
ATOM     18  N   LIG d   1      -0.424  74.305 117.381  0.00  0.00     0.381 N 
ATOM     19  H   LIG d   1      -1.337  74.102 117.736  0.00  0.00    -0.090 HD
ATOM     20  H   LIG d   1       0.233  74.230 118.138  0.00  0.00    -0.090 HD
ATOM     21  H   LIG d   1      -0.188  73.659 116.661  0.00  0.00    -0.090 HD
ENDBRANCH   5  18
BRANCH   3  22
ATOM     22  C   LIG d   1      -3.066  78.004 115.872  0.00  0.00     0.382 C 
ATOM     23  O   LIG d   1      -4.187  77.611 116.275  0.00  0.00    -0.241 OA
ATOM     24  O   LIG d   1      -2.999  78.751 114.877  0.00  0.00    -0.241 OA
ENDBRANCH   3  22
TORSDOF 7
ENDMDL
MODEL 8
REMARK VINA RESULT:      -3.5      6.490      8.279
REMARK  7 active torsions:
REMARK  status: ('A' for Active; 'I' for Inactive)
REMARK    1  A    between atoms: C_2  and  C_3 
REMARK    2  A    between atoms: C_3  and  O_6 
REMARK    3  A    between atoms: C_3  and  C_4 
REMARK    4  A    between atoms: C_7  and  O_6 
REMARK    5  A    between atoms: C_9  and  C_10 
REMARK    6  A    between atoms: N_15  and  C_14 
REMARK    7  A    between atoms: N_20  and  C_19 
REMARK       I    between atoms: C_22  and  N_20 
ROOT
ATOM      1  C   LIG d   1       0.155  78.024 117.538  0.00  0.00     0.161 C 
ATOM      2  C   LIG d   1      -1.120  78.413 117.095  0.00  0.00     0.016 C 
ATOM      3  C   LIG d   1      -2.112  77.496 116.678  0.00  0.00     0.038 C 
ATOM      4  C   LIG d   1      -1.948  76.110 116.820  0.00  0.00     0.028 C 
ATOM      5  C   LIG d   1      -0.489  75.667 116.789  0.00  0.00    -0.047 C 
ATOM      6  C   LIG d   1       0.314  76.512 117.804  0.00  0.00     0.091 C 
ENDROOT
BRANCH   1   7
ATOM      7  O   LIG d   1       0.517  78.780 118.710  0.00  0.00    -0.368 OA
BRANCH   7   8
ATOM      8  C   LIG d   1       1.531  79.798 118.524  0.00  0.00     0.119 C 
BRANCH   8   9
ATOM      9  C   LIG d   1       0.828  81.168 118.589  0.00  0.00     0.028 C 
ATOM     10  C   LIG d   1       1.667  82.289 117.953  0.00  0.00     0.006 C 
ENDBRANCH   8   9
BRANCH   8  11
ATOM     11  C   LIG d   1       2.145  79.724 117.124  0.00  0.00     0.028 C 
ATOM     12  C   LIG d   1       3.603  79.236 117.137  0.00  0.00     0.006 C 
ENDBRANCH   8  11
ENDBRANCH   7   8
ENDBRANCH   1   7
BRANCH   6  13
ATOM     13  N   LIG d   1       1.767  76.201 117.778  0.00  0.00    -0.311 N 
ATOM     14  C   LIG d   1       2.345  75.332 118.605  0.00  0.00     0.210 C 
ATOM     15  C   LIG d   1       3.858  75.174 118.422  0.00  0.00     0.109 C 
ATOM     16  O   LIG d   1       1.744  74.653 119.451  0.00  0.00    -0.276 OA
ATOM     17  H   LIG d   1       2.325  76.684 117.101  0.00  0.00     0.149 HD
ENDBRANCH   6  13
BRANCH   5  18
ATOM     18  N   LIG d   1      -0.456  74.223 117.085  0.00  0.00     0.381 N 
ATOM     19  H   LIG d   1       0.170  74.047 117.845  0.00  0.00    -0.090 HD
ATOM     20  H   LIG d   1      -0.115  73.733 116.276  0.00  0.00    -0.090 HD
ATOM     21  H   LIG d   1      -1.370  73.901 117.316  0.00  0.00    -0.090 HD
ENDBRANCH   5  18
BRANCH   3  22
ATOM     22  C   LIG d   1      -3.270  77.964 116.074  0.00  0.00     0.382 C 
ATOM     23  O   LIG d   1      -4.104  78.621 116.743  0.00  0.00    -0.241 OA
ATOM     24  O   LIG d   1      -3.511  77.700 114.881  0.00  0.00    -0.241 OA
ENDBRANCH   3  22
TORSDOF 7
ENDMDL
MODEL 9
REMARK VINA RESULT:      -3.5      4.725      6.084
REMARK  7 active torsions:
REMARK  status: ('A' for Active; 'I' for Inactive)
REMARK    1  A    between atoms: C_2  and  C_3 
REMARK    2  A    between atoms: C_3  and  O_6 
REMARK    3  A    between atoms: C_3  and  C_4 
REMARK    4  A    between atoms: C_7  and  O_6 
REMARK    5  A    between atoms: C_9  and  C_10 
REMARK    6  A    between atoms: N_15  and  C_14 
REMARK    7  A    between atoms: N_20  and  C_19 
REMARK       I    between atoms: C_22  and  N_20 
ROOT
ATOM      1  C   LIG d   1       2.556  80.468 117.045  0.00  0.00     0.161 C 
ATOM      2  C   LIG d   1       3.703  80.039 116.358  0.00  0.00     0.016 C 
ATOM      3  C   LIG d   1       4.024  78.677 116.153  0.00  0.00     0.038 C 
ATOM      4  C   LIG d   1       3.135  77.647 116.492  0.00  0.00     0.028 C 
ATOM      5  C   LIG d   1       2.198  78.008 117.640  0.00  0.00    -0.047 C 
ATOM      6  C   LIG d   1       1.518  79.360 117.326  0.00  0.00     0.091 C 
ENDROOT
BRANCH   1   7
ATOM      7  O   LIG d   1       1.942  81.562 116.336  0.00  0.00    -0.368 OA
BRANCH   7   8
ATOM      8  C   LIG d   1       2.687  82.804 116.312  0.00  0.00     0.119 C 
BRANCH   8   9
ATOM      9  C   LIG d   1       1.838  83.868 117.035  0.00  0.00     0.028 C 
ATOM     10  C   LIG d   1       1.397  83.413 118.436  0.00  0.00     0.006 C 
ENDBRANCH   8   9
BRANCH   8  11
ATOM     11  C   LIG d   1       2.857  83.324 114.882  0.00  0.00     0.028 C 
ATOM     12  C   LIG d   1       1.812  84.386 114.505  0.00  0.00     0.006 C 
ENDBRANCH   8  11
ENDBRANCH   7   8
ENDBRANCH   1   7
BRANCH   6  13
ATOM     13  N   LIG d   1       0.649  79.829 118.436  0.00  0.00    -0.311 N 
ATOM     14  C   LIG d   1      -0.668  79.631 118.470  0.00  0.00     0.210 C 
ATOM     15  C   LIG d   1      -1.378  80.213 119.696  0.00  0.00     0.109 C 
ATOM     16  O   LIG d   1      -1.310  78.999 117.618  0.00  0.00    -0.276 OA
ATOM     17  H   LIG d   1       1.092  80.324 119.185  0.00  0.00     0.149 HD
ENDBRANCH   6  13
BRANCH   5  18
ATOM     18  N   LIG d   1       1.237  76.900 117.797  0.00  0.00     0.381 N 
ATOM     19  H   LIG d   1       0.954  76.568 116.897  0.00  0.00    -0.090 HD
ATOM     20  H   LIG d   1       0.423  77.242 118.277  0.00  0.00    -0.090 HD
ATOM     21  H   LIG d   1       1.653  76.159 118.317  0.00  0.00    -0.090 HD
ENDBRANCH   5  18
BRANCH   3  22
ATOM     22  C   LIG d   1       5.265  78.333 115.638  0.00  0.00     0.382 C 
ATOM     23  O   LIG d   1       6.057  77.641 116.321  0.00  0.00    -0.241 OA
ATOM     24  O   LIG d   1       5.619  78.744 114.516  0.00  0.00    -0.241 OA
ENDBRANCH   3  22
TORSDOF 7
ENDMDL
