MODEL 1
REMARK VINA RESULT:      -4.5      0.000      0.000
REMARK  7 active torsions:
REMARK  status: ('A' for Active; 'I' for Inactive)
REMARK    1  A    between atoms: C_2  and  C_3 
REMARK    2  A    between atoms: C_3  and  O_6 
REMARK    3  A    between atoms: C_3  and  C_4 
REMARK    4  A    between atoms: C_7  and  O_6 
REMARK    5  A    between atoms: C_9  and  C_10 
REMARK    6  A    between atoms: N_15  and  C_14 
REMARK    7  A    between atoms: N_20  and  C_19 
REMARK       I    between atoms: C_22  and  N_20 
ROOT
ATOM      1  C   LIG d   1       1.243  81.850 112.824  0.00  0.00     0.161 C 
ATOM      2  C   LIG d   1       0.100  81.213 113.334  0.00  0.00     0.016 C 
ATOM      3  C   LIG d   1      -0.631  80.236 112.619  0.00  0.00     0.038 C 
ATOM      4  C   LIG d   1      -0.178  79.718 111.397  0.00  0.00     0.028 C 
ATOM      5  C   LIG d   1       0.695  80.692 110.613  0.00  0.00    -0.047 C 
ATOM      6  C   LIG d   1       1.816  81.218 111.538  0.00  0.00     0.091 C 
ENDROOT
BRANCH   1   7
ATOM      7  O   LIG d   1       2.259  81.921 113.844  0.00  0.00    -0.368 OA
BRANCH   7   8
ATOM      8  C   LIG d   1       1.948  82.740 114.998  0.00  0.00     0.119 C 
BRANCH   8   9
ATOM      9  C   LIG d   1       1.903  84.206 114.526  0.00  0.00     0.028 C 
ATOM     10  C   LIG d   1       3.230  84.661 113.895  0.00  0.00     0.006 C 
ENDBRANCH   8   9
BRANCH   8  11
ATOM     11  C   LIG d   1       3.069  82.684 116.039  0.00  0.00     0.028 C 
ATOM     12  C   LIG d   1       3.054  81.385 116.862  0.00  0.00     0.006 C 
ENDBRANCH   8  11
ENDBRANCH   7   8
ENDBRANCH   1   7
BRANCH   6  13
ATOM     13  N   LIG d   1       2.666  82.241 110.875  0.00  0.00    -0.311 N 
ATOM     14  C   LIG d   1       3.712  81.939 110.107  0.00  0.00     0.210 C 
ATOM     15  C   LIG d   1       4.464  83.145 109.536  0.00  0.00     0.109 C 
ATOM     16  O   LIG d   1       4.069  80.787 109.819  0.00  0.00    -0.276 OA
ATOM     17  H   LIG d   1       2.429  83.201 111.029  0.00  0.00     0.149 HD
ENDBRANCH   6  13
BRANCH   5  18
ATOM     18  N   LIG d   1       1.210  79.977 109.430  0.00  0.00     0.381 N 
ATOM     19  H   LIG d   1       2.209  80.032 109.409  0.00  0.00    -0.090 HD
ATOM     20  H   LIG d   1       0.852  80.418 108.602  0.00  0.00    -0.090 HD
ATOM     21  H   LIG d   1       0.924  79.023 109.457  0.00  0.00    -0.090 HD
ENDBRANCH   5  18
BRANCH   3  22
ATOM     22  C   LIG d   1      -1.852  79.797 113.108  0.00  0.00     0.382 C 
ATOM     23  O   LIG d   1      -2.707  79.320 112.323  0.00  0.00    -0.241 OA
ATOM     24  O   LIG d   1      -2.127  79.912 114.318  0.00  0.00    -0.241 OA
ENDBRANCH   3  22
TORSDOF 7
ENDMDL
MODEL 2
REMARK VINA RESULT:      -4.4      6.078      7.444
REMARK  7 active torsions:
REMARK  status: ('A' for Active; 'I' for Inactive)
REMARK    1  A    between atoms: C_2  and  C_3 
REMARK    2  A    between atoms: C_3  and  O_6 
REMARK    3  A    between atoms: C_3  and  C_4 
REMARK    4  A    between atoms: C_7  and  O_6 
REMARK    5  A    between atoms: C_9  and  C_10 
REMARK    6  A    between atoms: N_15  and  C_14 
REMARK    7  A    between atoms: N_20  and  C_19 
REMARK       I    between atoms: C_22  and  N_20 
ROOT
ATOM      1  C   LIG d   1      -0.535  77.845 116.589  0.00  0.00     0.161 C 
ATOM      2  C   LIG d   1      -1.481  78.350 115.682  0.00  0.00     0.016 C 
ATOM      3  C   LIG d   1      -2.122  77.555 114.703  0.00  0.00     0.038 C 
ATOM      4  C   LIG d   1      -1.970  76.161 114.664  0.00  0.00     0.028 C 
ATOM      5  C   LIG d   1      -0.639  75.681 115.235  0.00  0.00    -0.047 C 
ATOM      6  C   LIG d   1      -0.439  76.306 116.635  0.00  0.00     0.091 C 
ENDROOT
BRANCH   1   7
ATOM      7  O   LIG d   1      -0.793  78.371 117.906  0.00  0.00    -0.368 OA
BRANCH   7   8
ATOM      8  C   LIG d   1      -2.180  78.638 118.226  0.00  0.00     0.119 C 
BRANCH   8   9
ATOM      9  C   LIG d   1      -2.226  79.954 119.026  0.00  0.00     0.028 C 
ATOM     10  C   LIG d   1      -1.349  81.051 118.401  0.00  0.00     0.006 C 
ENDBRANCH   8   9
BRANCH   8  11
ATOM     11  C   LIG d   1      -2.751  77.571 119.165  0.00  0.00     0.028 C 
ATOM     12  C   LIG d   1      -3.662  76.566 118.443  0.00  0.00     0.006 C 
ENDBRANCH   8  11
ENDBRANCH   7   8
ENDBRANCH   1   7
BRANCH   6  13
ATOM     13  N   LIG d   1       0.877  75.955 117.229  0.00  0.00    -0.311 N 
ATOM     14  C   LIG d   1       1.010  75.324 118.394  0.00  0.00     0.210 C 
ATOM     15  C   LIG d   1       2.457  75.076 118.834  0.00  0.00     0.109 C 
ATOM     16  O   LIG d   1       0.068  74.917 119.090  0.00  0.00    -0.276 OA
ATOM     17  H   LIG d   1       1.695  76.220 116.716  0.00  0.00     0.149 HD
ENDBRANCH   6  13
BRANCH   5  18
ATOM     18  N   LIG d   1      -0.672  74.206 115.260  0.00  0.00     0.381 N 
ATOM     19  H   LIG d   1      -0.155  73.843 114.484  0.00  0.00    -0.090 HD
ATOM     20  H   LIG d   1      -1.625  73.900 115.176  0.00  0.00    -0.090 HD
ATOM     21  H   LIG d   1      -0.282  73.871 116.113  0.00  0.00    -0.090 HD
ENDBRANCH   5  18
BRANCH   3  22
ATOM     22  C   LIG d   1      -2.894  78.161 113.724  0.00  0.00     0.382 C 
ATOM     23  O   LIG d   1      -3.262  79.352 113.863  0.00  0.00    -0.241 OA
ATOM     24  O   LIG d   1      -3.265  77.517 112.724  0.00  0.00    -0.241 OA
ENDBRANCH   3  22
TORSDOF 7
ENDMDL
MODEL 3
REMARK VINA RESULT:      -4.3      2.564      6.153
REMARK  7 active torsions:
REMARK  status: ('A' for Active; 'I' for Inactive)
REMARK    1  A    between atoms: C_2  and  C_3 
REMARK    2  A    between atoms: C_3  and  O_6 
REMARK    3  A    between atoms: C_3  and  C_4 
REMARK    4  A    between atoms: C_7  and  O_6 
REMARK    5  A    between atoms: C_9  and  C_10 
REMARK    6  A    between atoms: N_15  and  C_14 
REMARK    7  A    between atoms: N_20  and  C_19 
REMARK       I    between atoms: C_22  and  N_20 
ROOT
ATOM      1  C   LIG d   1       0.199  81.884 110.889  0.00  0.00     0.161 C 
ATOM      2  C   LIG d   1       1.365  82.575 110.517  0.00  0.00     0.016 C 
ATOM      3  C   LIG d   1       2.373  82.949 111.434  0.00  0.00     0.038 C 
ATOM      4  C   LIG d   1       2.356  82.523 112.770  0.00  0.00     0.028 C 
ATOM      5  C   LIG d   1       0.952  82.255 113.302  0.00  0.00    -0.047 C 
ATOM      6  C   LIG d   1       0.215  81.314 112.322  0.00  0.00     0.091 C 
ENDROOT
BRANCH   1   7
ATOM      7  O   LIG d   1      -0.074  80.838 109.936  0.00  0.00    -0.368 OA
BRANCH   7   8
ATOM      8  C   LIG d   1       0.223  79.488 110.370  0.00  0.00     0.119 C 
BRANCH   8   9
ATOM      9  C   LIG d   1       1.308  78.928 109.430  0.00  0.00     0.028 C 
ATOM     10  C   LIG d   1       2.715  79.431 109.793  0.00  0.00     0.006 C 
ENDBRANCH   8   9
BRANCH   8  11
ATOM     11  C   LIG d   1      -0.986  78.565 110.188  0.00  0.00     0.028 C 
ATOM     12  C   LIG d   1      -0.756  77.160 110.767  0.00  0.00     0.006 C 
ENDBRANCH   8  11
ENDBRANCH   7   8
ENDBRANCH   1   7
BRANCH   6  13
ATOM     13  N   LIG d   1      -1.194  81.068 112.724  0.00  0.00    -0.311 N 
ATOM     14  C   LIG d   1      -1.579  80.013 113.442  0.00  0.00     0.210 C 
ATOM     15  C   LIG d   1      -3.082  79.941 113.730  0.00  0.00     0.109 C 
ATOM     16  O   LIG d   1      -0.813  79.149 113.894  0.00  0.00    -0.276 OA
ATOM     17  H   LIG d   1      -1.877  81.737 112.426  0.00  0.00     0.149 HD
ENDBRANCH   6  13
BRANCH   5  18
ATOM     18  N   LIG d   1       1.090  81.687 114.657  0.00  0.00     0.381 N 
ATOM     19  H   LIG d   1       0.325  81.070 114.844  0.00  0.00    -0.090 HD
ATOM     20  H   LIG d   1       1.063  82.435 115.327  0.00  0.00    -0.090 HD
ATOM     21  H   LIG d   1       1.951  81.193 114.733  0.00  0.00    -0.090 HD
ENDBRANCH   5  18
BRANCH   3  22
ATOM     22  C   LIG d   1       3.395  83.793 111.025  0.00  0.00     0.382 C 
ATOM     23  O   LIG d   1       3.500  84.110 109.815  0.00  0.00    -0.241 OA
ATOM     24  O   LIG d   1       4.239  84.205 111.843  0.00  0.00    -0.241 OA
ENDBRANCH   3  22
TORSDOF 7
ENDMDL
MODEL 4
REMARK VINA RESULT:      -4.2      5.365      7.400
REMARK  7 active torsions:
REMARK  status: ('A' for Active; 'I' for Inactive)
REMARK    1  A    between atoms: C_2  and  C_3 
REMARK    2  A    between atoms: C_3  and  O_6 
REMARK    3  A    between atoms: C_3  and  C_4 
REMARK    4  A    between atoms: C_7  and  O_6 
REMARK    5  A    between atoms: C_9  and  C_10 
REMARK    6  A    between atoms: N_15  and  C_14 
REMARK    7  A    between atoms: N_20  and  C_19 
REMARK       I    between atoms: C_22  and  N_20 
ROOT
ATOM      1  C   LIG d   1      -1.025  78.270 116.579  0.00  0.00     0.161 C 
ATOM      2  C   LIG d   1      -1.496  79.129 115.572  0.00  0.00     0.016 C 
ATOM      3  C   LIG d   1      -2.372  78.715 114.542  0.00  0.00     0.038 C 
ATOM      4  C   LIG d   1      -2.960  77.442 114.537  0.00  0.00     0.028 C 
ATOM      5  C   LIG d   1      -2.123  76.385 115.249  0.00  0.00    -0.047 C 
ATOM      6  C   LIG d   1      -1.744  76.907 116.654  0.00  0.00     0.091 C 
ENDROOT
BRANCH   1   7
ATOM      7  O   LIG d   1      -1.082  78.937 117.856  0.00  0.00    -0.368 OA
BRANCH   7   8
ATOM      8  C   LIG d   1      -1.933  80.107 117.927  0.00  0.00     0.119 C 
BRANCH   8   9
ATOM      9  C   LIG d   1      -1.201  81.160 118.781  0.00  0.00     0.028 C 
ATOM     10  C   LIG d   1       0.023  81.752 118.061  0.00  0.00     0.006 C 
ENDBRANCH   8   9
BRANCH   8  11
ATOM     11  C   LIG d   1      -3.232  79.806 118.679  0.00  0.00     0.028 C 
ATOM     12  C   LIG d   1      -4.440  79.645 117.742  0.00  0.00     0.006 C 
ENDBRANCH   8  11
ENDBRANCH   7   8
ENDBRANCH   1   7
BRANCH   6  13
ATOM     13  N   LIG d   1      -0.854  75.968 117.386  0.00  0.00    -0.311 N 
ATOM     14  C   LIG d   1      -1.303  75.027 118.214  0.00  0.00     0.210 C 
ATOM     15  C   LIG d   1      -0.215  74.180 118.882  0.00  0.00     0.109 C 
ATOM     16  O   LIG d   1      -2.501  74.791 118.433  0.00  0.00    -0.276 OA
ATOM     17  H   LIG d   1       0.132  76.069 117.242  0.00  0.00     0.149 HD
ENDBRANCH   6  13
BRANCH   5  18
ATOM     18  N   LIG d   1      -2.915  75.141 115.288  0.00  0.00     0.381 N 
ATOM     19  H   LIG d   1      -3.732  75.241 114.720  0.00  0.00    -0.090 HD
ATOM     20  H   LIG d   1      -3.209  74.972 116.235  0.00  0.00    -0.090 HD
ATOM     21  H   LIG d   1      -2.366  74.376 114.962  0.00  0.00    -0.090 HD
ENDBRANCH   5  18
BRANCH   3  22
ATOM     22  C   LIG d   1      -2.636  79.567 113.481  0.00  0.00     0.382 C 
ATOM     23  O   LIG d   1      -3.358  80.579 113.653  0.00  0.00    -0.241 OA
ATOM     24  O   LIG d   1      -2.197  79.313 112.343  0.00  0.00    -0.241 OA
ENDBRANCH   3  22
TORSDOF 7
ENDMDL
MODEL 5
REMARK VINA RESULT:      -4.2      3.645      4.988
REMARK  7 active torsions:
REMARK  status: ('A' for Active; 'I' for Inactive)
REMARK    1  A    between atoms: C_2  and  C_3 
REMARK    2  A    between atoms: C_3  and  O_6 
REMARK    3  A    between atoms: C_3  and  C_4 
REMARK    4  A    between atoms: C_7  and  O_6 
REMARK    5  A    between atoms: C_9  and  C_10 
REMARK    6  A    between atoms: N_15  and  C_14 
REMARK    7  A    between atoms: N_20  and  C_19 
REMARK       I    between atoms: C_22  and  N_20 
ROOT
ATOM      1  C   LIG d   1      -2.150  79.453 114.772  0.00  0.00     0.161 C 
ATOM      2  C   LIG d   1      -2.843  78.309 115.203  0.00  0.00     0.016 C 
ATOM      3  C   LIG d   1      -3.189  77.240 114.346  0.00  0.00     0.038 C 
ATOM      4  C   LIG d   1      -2.730  77.173 113.022  0.00  0.00     0.028 C 
ATOM      5  C   LIG d   1      -2.457  78.541 112.405  0.00  0.00    -0.047 C 
ATOM      6  C   LIG d   1      -1.545  79.347 113.357  0.00  0.00     0.091 C 
ENDROOT
BRANCH   1   7
ATOM      7  O   LIG d   1      -1.129  79.796 115.730  0.00  0.00    -0.368 OA
BRANCH   7   8
ATOM      8  C   LIG d   1      -1.273  79.216 117.050  0.00  0.00     0.119 C 
BRANCH   8   9
ATOM      9  C   LIG d   1      -1.457  80.376 118.047  0.00  0.00     0.028 C 
ATOM     10  C   LIG d   1      -2.810  80.314 118.776  0.00  0.00     0.006 C 
ENDBRANCH   8   9
BRANCH   8  11
ATOM     11  C   LIG d   1       0.011  78.505 117.488  0.00  0.00     0.028 C 
ATOM     12  C   LIG d   1      -0.055  76.982 117.290  0.00  0.00     0.006 C 
ENDBRANCH   8  11
ENDBRANCH   7   8
ENDBRANCH   1   7
BRANCH   6  13
ATOM     13  N   LIG d   1      -1.298  80.729 112.869  0.00  0.00    -0.311 N 
ATOM     14  C   LIG d   1      -0.294  81.050 112.054  0.00  0.00     0.210 C 
ATOM     15  C   LIG d   1      -0.208  82.536 111.689  0.00  0.00     0.109 C 
ATOM     16  O   LIG d   1       0.513  80.241 111.573  0.00  0.00    -0.276 OA
ATOM     17  H   LIG d   1      -1.924  81.443 113.185  0.00  0.00     0.149 HD
ENDBRANCH   6  13
BRANCH   5  18
ATOM     18  N   LIG d   1      -1.856  78.319 111.077  0.00  0.00     0.381 N 
ATOM     19  H   LIG d   1      -2.568  78.342 110.374  0.00  0.00    -0.090 HD
ATOM     20  H   LIG d   1      -1.427  77.410 111.062  0.00  0.00    -0.090 HD
ATOM     21  H   LIG d   1      -1.173  79.020 110.890  0.00  0.00    -0.090 HD
ENDBRANCH   5  18
BRANCH   3  22
ATOM     22  C   LIG d   1      -4.036  76.241 114.800  0.00  0.00     0.382 C 
ATOM     23  O   LIG d   1      -4.439  75.353 114.011  0.00  0.00    -0.241 OA
ATOM     24  O   LIG d   1      -4.438  76.242 115.979  0.00  0.00    -0.241 OA
ENDBRANCH   3  22
TORSDOF 7
ENDMDL
MODEL 6
REMARK VINA RESULT:      -4.1      5.726      6.929
REMARK  7 active torsions:
REMARK  status: ('A' for Active; 'I' for Inactive)
REMARK    1  A    between atoms: C_2  and  C_3 
REMARK    2  A    between atoms: C_3  and  O_6 
REMARK    3  A    between atoms: C_3  and  C_4 
REMARK    4  A    between atoms: C_7  and  O_6 
REMARK    5  A    between atoms: C_9  and  C_10 
REMARK    6  A    between atoms: N_15  and  C_14 
REMARK    7  A    between atoms: N_20  and  C_19 
REMARK       I    between atoms: C_22  and  N_20 
ROOT
ATOM      1  C   LIG d   1      -0.746  77.970 116.606  0.00  0.00     0.161 C 
ATOM      2  C   LIG d   1      -1.712  78.389 115.676  0.00  0.00     0.016 C 
ATOM      3  C   LIG d   1      -2.298  77.526 114.721  0.00  0.00     0.038 C 
ATOM      4  C   LIG d   1      -2.066  76.143 114.731  0.00  0.00     0.028 C 
ATOM      5  C   LIG d   1      -0.716  75.758 115.326  0.00  0.00    -0.047 C 
ATOM      6  C   LIG d   1      -0.563  76.441 116.705  0.00  0.00     0.091 C 
ENDROOT
BRANCH   1   7
ATOM      7  O   LIG d   1      -1.044  78.524 117.903  0.00  0.00    -0.368 OA
BRANCH   7   8
ATOM      8  C   LIG d   1      -0.154  79.566 118.371  0.00  0.00     0.119 C 
BRANCH   8   9
ATOM      9  C   LIG d   1      -0.954  80.883 118.391  0.00  0.00     0.028 C 
ATOM     10  C   LIG d   1      -2.438  80.663 118.726  0.00  0.00     0.006 C 
ENDBRANCH   8   9
BRANCH   8  11
ATOM     11  C   LIG d   1       0.993  79.804 117.384  0.00  0.00     0.028 C 
ATOM     12  C   LIG d   1       2.371  79.821 118.066  0.00  0.00     0.006 C 
ENDBRANCH   8  11
ENDBRANCH   7   8
ENDBRANCH   1   7
BRANCH   6  13
ATOM     13  N   LIG d   1       0.766  76.186 117.319  0.00  0.00    -0.311 N 
ATOM     14  C   LIG d   1       0.991  75.213 118.201  0.00  0.00     0.210 C 
ATOM     15  C   LIG d   1       2.428  75.136 118.726  0.00  0.00     0.109 C 
ATOM     16  O   LIG d   1       0.145  74.386 118.573  0.00  0.00    -0.276 OA
ATOM     17  H   LIG d   1       1.517  76.790 117.049  0.00  0.00     0.149 HD
ENDBRANCH   6  13
BRANCH   5  18
ATOM     18  N   LIG d   1      -0.664  74.286 115.401  0.00  0.00     0.381 N 
ATOM     19  H   LIG d   1      -1.581  73.908 115.265  0.00  0.00    -0.090 HD
ATOM     20  H   LIG d   1      -0.345  74.018 116.315  0.00  0.00    -0.090 HD
ATOM     21  H   LIG d   1      -0.044  73.931 114.707  0.00  0.00    -0.090 HD
ENDBRANCH   5  18
BRANCH   3  22
ATOM     22  C   LIG d   1      -3.095  78.053 113.717  0.00  0.00     0.382 C 
ATOM     23  O   LIG d   1      -3.141  79.295 113.539  0.00  0.00    -0.241 OA
ATOM     24  O   LIG d   1      -3.803  77.307 113.015  0.00  0.00    -0.241 OA
ENDBRANCH   3  22
TORSDOF 7
ENDMDL
MODEL 7
REMARK VINA RESULT:      -3.8      5.512      7.251
REMARK  7 active torsions:
REMARK  status: ('A' for Active; 'I' for Inactive)
REMARK    1  A    between atoms: C_2  and  C_3 
REMARK    2  A    between atoms: C_3  and  O_6 
REMARK    3  A    between atoms: C_3  and  C_4 
REMARK    4  A    between atoms: C_7  and  O_6 
REMARK    5  A    between atoms: C_9  and  C_10 
REMARK    6  A    between atoms: N_15  and  C_14 
REMARK    7  A    between atoms: N_20  and  C_19 
REMARK       I    between atoms: C_22  and  N_20 
ROOT
ATOM      1  C   LIG d   1      -0.368  77.293 118.310  0.00  0.00     0.161 C 
ATOM      2  C   LIG d   1      -0.994  76.212 117.669  0.00  0.00     0.016 C 
ATOM      3  C   LIG d   1      -1.446  76.256 116.330  0.00  0.00     0.038 C 
ATOM      4  C   LIG d   1      -1.164  77.342 115.488  0.00  0.00     0.028 C 
ATOM      5  C   LIG d   1      -0.979  78.657 116.237  0.00  0.00    -0.047 C 
ATOM      6  C   LIG d   1       0.048  78.447 117.373  0.00  0.00     0.091 C 
ENDROOT
BRANCH   1   7
ATOM      7  O   LIG d   1       0.769  76.824 119.061  0.00  0.00    -0.368 OA
BRANCH   7   8
ATOM      8  C   LIG d   1       1.890  76.336 118.284  0.00  0.00     0.119 C 
BRANCH   8   9
ATOM      9  C   LIG d   1       2.195  74.903 118.761  0.00  0.00     0.028 C 
ATOM     10  C   LIG d   1       3.231  74.870 119.897  0.00  0.00     0.006 C 
ENDBRANCH   8   9
BRANCH   8  11
ATOM     11  C   LIG d   1       3.161  77.139 118.575  0.00  0.00     0.028 C 
ATOM     12  C   LIG d   1       3.873  77.612 117.297  0.00  0.00     0.006 C 
ENDBRANCH   8  11
ENDBRANCH   7   8
ENDBRANCH   1   7
BRANCH   6  13
ATOM     13  N   LIG d   1       0.225  79.663 118.209  0.00  0.00    -0.311 N 
ATOM     14  C   LIG d   1       1.168  80.577 117.984  0.00  0.00     0.210 C 
ATOM     15  C   LIG d   1       1.189  81.743 118.977  0.00  0.00     0.109 C 
ATOM     16  O   LIG d   1       1.968  80.549 117.036  0.00  0.00    -0.276 OA
ATOM     17  H   LIG d   1      -0.401  79.781 118.981  0.00  0.00     0.149 HD
ENDBRANCH   6  13
BRANCH   5  18
ATOM     18  N   LIG d   1      -0.555  79.674 115.256  0.00  0.00     0.381 N 
ATOM     19  H   LIG d   1      -0.883  80.576 115.539  0.00  0.00    -0.090 HD
ATOM     20  H   LIG d   1      -0.964  79.455 114.364  0.00  0.00    -0.090 HD
ATOM     21  H   LIG d   1       0.439  79.682 115.181  0.00  0.00    -0.090 HD
ENDBRANCH   5  18
BRANCH   3  22
ATOM     22  C   LIG d   1      -2.224  75.222 115.832  0.00  0.00     0.382 C 
ATOM     23  O   LIG d   1      -2.795  75.345 114.722  0.00  0.00    -0.241 OA
ATOM     24  O   LIG d   1      -2.398  74.185 116.499  0.00  0.00    -0.241 OA
ENDBRANCH   3  22
TORSDOF 7
ENDMDL
MODEL 8
REMARK VINA RESULT:      -3.7      4.622      7.542
REMARK  7 active torsions:
REMARK  status: ('A' for Active; 'I' for Inactive)
REMARK    1  A    between atoms: C_2  and  C_3 
REMARK    2  A    between atoms: C_3  and  O_6 
REMARK    3  A    between atoms: C_3  and  C_4 
REMARK    4  A    between atoms: C_7  and  O_6 
REMARK    5  A    between atoms: C_9  and  C_10 
REMARK    6  A    between atoms: N_15  and  C_14 
REMARK    7  A    between atoms: N_20  and  C_19 
REMARK       I    between atoms: C_22  and  N_20 
ROOT
ATOM      1  C   LIG d   1      -1.767  78.771 116.177  0.00  0.00     0.161 C 
ATOM      2  C   LIG d   1      -0.822  79.684 116.674  0.00  0.00     0.016 C 
ATOM      3  C   LIG d   1       0.364  79.292 117.337  0.00  0.00     0.038 C 
ATOM      4  C   LIG d   1       0.761  77.948 117.414  0.00  0.00     0.028 C 
ATOM      5  C   LIG d   1      -0.407  76.968 117.371  0.00  0.00    -0.047 C 
ATOM      6  C   LIG d   1      -1.298  77.302 116.153  0.00  0.00     0.091 C 
ENDROOT
BRANCH   1   7
ATOM      7  O   LIG d   1      -2.198  79.181 114.863  0.00  0.00    -0.368 OA
BRANCH   7   8
ATOM      8  C   LIG d   1      -1.290  78.885 113.774  0.00  0.00     0.119 C 
BRANCH   8   9
ATOM      9  C   LIG d   1      -0.951  80.217 113.078  0.00  0.00     0.028 C 
ATOM     10  C   LIG d   1      -0.300  80.011 111.700  0.00  0.00     0.006 C 
ENDBRANCH   8   9
BRANCH   8  11
ATOM     11  C   LIG d   1      -1.968  78.028 112.701  0.00  0.00     0.028 C 
ATOM     12  C   LIG d   1      -3.484  77.892 112.917  0.00  0.00     0.006 C 
ENDBRANCH   8  11
ENDBRANCH   7   8
ENDBRANCH   1   7
BRANCH   6  13
ATOM     13  N   LIG d   1      -2.509  76.444 116.084  0.00  0.00    -0.311 N 
ATOM     14  C   LIG d   1      -2.568  75.313 115.383  0.00  0.00     0.210 C 
ATOM     15  C   LIG d   1      -3.918  74.591 115.432  0.00  0.00     0.109 C 
ATOM     16  O   LIG d   1      -1.620  74.822 114.752  0.00  0.00    -0.276 OA
ATOM     17  H   LIG d   1      -3.315  76.751 116.593  0.00  0.00     0.149 HD
ENDBRANCH   6  13
BRANCH   5  18
ATOM     18  N   LIG d   1       0.156  75.606 117.320  0.00  0.00     0.381 N 
ATOM     19  H   LIG d   1       1.141  75.653 117.152  0.00  0.00    -0.090 HD
ATOM     20  H   LIG d   1      -0.270  75.106 116.560  0.00  0.00    -0.090 HD
ATOM     21  H   LIG d   1      -0.019  75.132 118.179  0.00  0.00    -0.090 HD
ENDBRANCH   5  18
BRANCH   3  22
ATOM     22  C   LIG d   1       1.147  80.247 117.967  0.00  0.00     0.382 C 
ATOM     23  O   LIG d   1       1.926  79.909 118.891  0.00  0.00    -0.241 OA
ATOM     24  O   LIG d   1       1.052  81.449 117.653  0.00  0.00    -0.241 OA
ENDBRANCH   3  22
TORSDOF 7
ENDMDL
MODEL 9
REMARK VINA RESULT:      -3.7      6.487      8.383
REMARK  7 active torsions:
REMARK  status: ('A' for Active; 'I' for Inactive)
REMARK    1  A    between atoms: C_2  and  C_3 
REMARK    2  A    between atoms: C_3  and  O_6 
REMARK    3  A    between atoms: C_3  and  C_4 
REMARK    4  A    between atoms: C_7  and  O_6 
REMARK    5  A    between atoms: C_9  and  C_10 
REMARK    6  A    between atoms: N_15  and  C_14 
REMARK    7  A    between atoms: N_20  and  C_19 
REMARK       I    between atoms: C_22  and  N_20 
ROOT
ATOM      1  C   LIG d   1      -1.905  76.779 118.309  0.00  0.00     0.161 C 
ATOM      2  C   LIG d   1      -0.773  77.311 118.949  0.00  0.00     0.016 C 
ATOM      3  C   LIG d   1       0.518  77.315 118.372  0.00  0.00     0.038 C 
ATOM      4  C   LIG d   1       0.737  76.921 117.043  0.00  0.00     0.028 C 
ATOM      5  C   LIG d   1      -0.284  75.908 116.536  0.00  0.00    -0.047 C 
ATOM      6  C   LIG d   1      -1.706  76.446 116.815  0.00  0.00     0.091 C 
ENDROOT
BRANCH   1   7
ATOM      7  O   LIG d   1      -3.025  77.669 118.479  0.00  0.00    -0.368 OA
BRANCH   7   8
ATOM      8  C   LIG d   1      -2.870  79.002 117.932  0.00  0.00     0.119 C 
BRANCH   8   9
ATOM      9  C   LIG d   1      -3.372  79.999 118.994  0.00  0.00     0.028 C 
ATOM     10  C   LIG d   1      -2.419  81.192 119.177  0.00  0.00     0.006 C 
ENDBRANCH   8   9
BRANCH   8  11
ATOM     11  C   LIG d   1      -3.775  79.215 116.715  0.00  0.00     0.028 C 
ATOM     12  C   LIG d   1      -2.984  79.449 115.418  0.00  0.00     0.006 C 
ENDBRANCH   8  11
ENDBRANCH   7   8
ENDBRANCH   1   7
BRANCH   6  13
ATOM     13  N   LIG d   1      -2.764  75.478 116.426  0.00  0.00    -0.311 N 
ATOM     14  C   LIG d   1      -3.361  75.485 115.235  0.00  0.00     0.210 C 
ATOM     15  C   LIG d   1      -4.440  74.414 115.046  0.00  0.00     0.109 C 
ATOM     16  O   LIG d   1      -3.078  76.256 114.306  0.00  0.00    -0.276 OA
ATOM     17  H   LIG d   1      -3.034  74.798 117.109  0.00  0.00     0.149 HD
ENDBRANCH   6  13
BRANCH   5  18
ATOM     18  N   LIG d   1      -0.020  75.690 115.101  0.00  0.00     0.381 N 
ATOM     19  H   LIG d   1       0.363  74.777 114.962  0.00  0.00    -0.090 HD
ATOM     20  H   LIG d   1       0.655  76.366 114.788  0.00  0.00    -0.090 HD
ATOM     21  H   LIG d   1      -0.864  75.787 114.580  0.00  0.00    -0.090 HD
ENDBRANCH   5  18
BRANCH   3  22
ATOM     22  C   LIG d   1       1.613  77.680 119.140  0.00  0.00     0.382 C 
ATOM     23  O   LIG d   1       1.887  78.893 119.305  0.00  0.00    -0.241 OA
ATOM     24  O   LIG d   1       2.356  76.810 119.633  0.00  0.00    -0.241 OA
ENDBRANCH   3  22
TORSDOF 7
ENDMDL
