MODEL 1
REMARK VINA RESULT:      -5.3      0.000      0.000
REMARK  7 active torsions:
REMARK  status: ('A' for Active; 'I' for Inactive)
REMARK    1  A    between atoms: C_2  and  C_3 
REMARK    2  A    between atoms: C_3  and  O_6 
REMARK    3  A    between atoms: C_3  and  C_4 
REMARK    4  A    between atoms: C_7  and  O_6 
REMARK    5  A    between atoms: C_9  and  C_10 
REMARK    6  A    between atoms: N_15  and  C_14 
REMARK    7  A    between atoms: N_20  and  C_19 
REMARK       I    between atoms: C_22  and  N_20 
ROOT
ATOM      1  C   LIG d   1       0.386  80.284 111.344  0.00  0.00     0.161 C 
ATOM      2  C   LIG d   1      -0.783  79.558 111.063  0.00  0.00     0.016 C 
ATOM      3  C   LIG d   1      -1.638  79.042 112.065  0.00  0.00     0.038 C 
ATOM      4  C   LIG d   1      -1.459  79.349 113.422  0.00  0.00     0.028 C 
ATOM      5  C   LIG d   1      -0.011  79.655 113.788  0.00  0.00    -0.047 C 
ATOM      6  C   LIG d   1       0.538  80.724 112.815  0.00  0.00     0.091 C 
ENDROOT
BRANCH   1   7
ATOM      7  O   LIG d   1       0.475  81.426 110.468  0.00  0.00    -0.368 OA
BRANCH   7   8
ATOM      8  C   LIG d   1       1.483  81.357 109.431  0.00  0.00     0.119 C 
BRANCH   8   9
ATOM      9  C   LIG d   1       2.398  80.159 109.753  0.00  0.00     0.028 C 
ATOM     10  C   LIG d   1       3.866  80.576 109.941  0.00  0.00     0.006 C 
ENDBRANCH   8   9
BRANCH   8  11
ATOM     11  C   LIG d   1       2.398  82.585 109.460  0.00  0.00     0.028 C 
ATOM     12  C   LIG d   1       1.621  83.903 109.607  0.00  0.00     0.006 C 
ENDBRANCH   8  11
ENDBRANCH   7   8
ENDBRANCH   1   7
BRANCH   6  13
ATOM     13  N   LIG d   1       1.975  81.020 113.050  0.00  0.00    -0.311 N 
ATOM     14  C   LIG d   1       2.465  82.256 113.131  0.00  0.00     0.210 C 
ATOM     15  C   LIG d   1       3.978  82.339 113.358  0.00  0.00     0.109 C 
ATOM     16  O   LIG d   1       1.785  83.292 113.069  0.00  0.00    -0.276 OA
ATOM     17  H   LIG d   1       2.593  80.238 113.144  0.00  0.00     0.149 HD
ENDBRANCH   6  13
BRANCH   5  18
ATOM     18  N   LIG d   1       0.010  80.092 115.197  0.00  0.00     0.381 N 
ATOM     19  H   LIG d   1      -0.709  80.770 115.352  0.00  0.00    -0.090 HD
ATOM     20  H   LIG d   1       0.897  80.522 115.391  0.00  0.00    -0.090 HD
ATOM     21  H   LIG d   1      -0.127  79.309 115.799  0.00  0.00    -0.090 HD
ENDBRANCH   5  18
BRANCH   3  22
ATOM     22  C   LIG d   1      -2.662  78.176 111.715  0.00  0.00     0.382 C 
ATOM     23  O   LIG d   1      -2.909  77.954 110.505  0.00  0.00    -0.241 OA
ATOM     24  O   LIG d   1      -3.371  77.648 112.592  0.00  0.00    -0.241 OA
ENDBRANCH   3  22
TORSDOF 7
ENDMDL
MODEL 2
REMARK VINA RESULT:      -5.2      2.506      5.588
REMARK  7 active torsions:
REMARK  status: ('A' for Active; 'I' for Inactive)
REMARK    1  A    between atoms: C_2  and  C_3 
REMARK    2  A    between atoms: C_3  and  O_6 
REMARK    3  A    between atoms: C_3  and  C_4 
REMARK    4  A    between atoms: C_7  and  O_6 
REMARK    5  A    between atoms: C_9  and  C_10 
REMARK    6  A    between atoms: N_15  and  C_14 
REMARK    7  A    between atoms: N_20  and  C_19 
REMARK       I    between atoms: C_22  and  N_20 
ROOT
ATOM      1  C   LIG d   1       2.053  81.195 112.744  0.00  0.00     0.161 C 
ATOM      2  C   LIG d   1       3.271  81.302 112.053  0.00  0.00     0.016 C 
ATOM      3  C   LIG d   1       3.362  81.381 110.644  0.00  0.00     0.038 C 
ATOM      4  C   LIG d   1       2.225  81.513 109.834  0.00  0.00     0.028 C 
ATOM      5  C   LIG d   1       0.969  80.903 110.449  0.00  0.00    -0.047 C 
ATOM      6  C   LIG d   1       0.797  81.449 111.884  0.00  0.00     0.091 C 
ENDROOT
BRANCH   1   7
ATOM      7  O   LIG d   1       2.062  82.072 113.888  0.00  0.00    -0.368 OA
BRANCH   7   8
ATOM      8  C   LIG d   1       3.366  82.509 114.346  0.00  0.00     0.119 C 
BRANCH   8   9
ATOM      9  C   LIG d   1       3.522  82.046 115.807  0.00  0.00     0.028 C 
ATOM     10  C   LIG d   1       3.878  80.553 115.915  0.00  0.00     0.006 C 
ENDBRANCH   8   9
BRANCH   8  11
ATOM     11  C   LIG d   1       3.456  84.037 114.393  0.00  0.00     0.028 C 
ATOM     12  C   LIG d   1       3.407  84.680 112.998  0.00  0.00     0.006 C 
ENDBRANCH   8  11
ENDBRANCH   7   8
ENDBRANCH   1   7
BRANCH   6  13
ATOM     13  N   LIG d   1      -0.361  80.839 112.588  0.00  0.00    -0.311 N 
ATOM     14  C   LIG d   1      -1.577  81.382 112.607  0.00  0.00     0.210 C 
ATOM     15  C   LIG d   1      -2.623  80.600 113.407  0.00  0.00     0.109 C 
ATOM     16  O   LIG d   1      -1.897  82.421 112.010  0.00  0.00    -0.276 OA
ATOM     17  H   LIG d   1      -0.198  79.978 113.073  0.00  0.00     0.149 HD
ENDBRANCH   6  13
BRANCH   5  18
ATOM     18  N   LIG d   1      -0.165  81.232 109.565  0.00  0.00     0.381 N 
ATOM     19  H   LIG d   1      -0.602  80.390 109.247  0.00  0.00    -0.090 HD
ATOM     20  H   LIG d   1       0.181  81.730 108.763  0.00  0.00    -0.090 HD
ATOM     21  H   LIG d   1      -0.826  81.794 110.054  0.00  0.00    -0.090 HD
ENDBRANCH   5  18
BRANCH   3  22
ATOM     22  C   LIG d   1       4.602  81.289 110.029  0.00  0.00     0.382 C 
ATOM     23  O   LIG d   1       5.309  82.316 109.888  0.00  0.00    -0.241 OA
ATOM     24  O   LIG d   1       5.002  80.201 109.575  0.00  0.00    -0.241 OA
ENDBRANCH   3  22
TORSDOF 7
ENDMDL
MODEL 3
REMARK VINA RESULT:      -5.0      4.139      7.058
REMARK  7 active torsions:
REMARK  status: ('A' for Active; 'I' for Inactive)
REMARK    1  A    between atoms: C_2  and  C_3 
REMARK    2  A    between atoms: C_3  and  O_6 
REMARK    3  A    between atoms: C_3  and  C_4 
REMARK    4  A    between atoms: C_7  and  O_6 
REMARK    5  A    between atoms: C_9  and  C_10 
REMARK    6  A    between atoms: N_15  and  C_14 
REMARK    7  A    between atoms: N_20  and  C_19 
REMARK       I    between atoms: C_22  and  N_20 
ROOT
ATOM      1  C   LIG d   1      -1.788  78.593 114.927  0.00  0.00     0.161 C 
ATOM      2  C   LIG d   1      -2.240  79.859 114.519  0.00  0.00     0.016 C 
ATOM      3  C   LIG d   1      -2.269  80.277 113.168  0.00  0.00     0.038 C 
ATOM      4  C   LIG d   1      -1.988  79.396 112.113  0.00  0.00     0.028 C 
ATOM      5  C   LIG d   1      -1.044  78.264 112.504  0.00  0.00    -0.047 C 
ATOM      6  C   LIG d   1      -1.583  77.580 113.781  0.00  0.00     0.091 C 
ENDROOT
BRANCH   1   7
ATOM      7  O   LIG d   1      -2.682  78.053 115.920  0.00  0.00    -0.368 OA
BRANCH   7   8
ATOM      8  C   LIG d   1      -2.126  77.869 117.245  0.00  0.00     0.119 C 
BRANCH   8   9
ATOM      9  C   LIG d   1      -2.820  76.645 117.873  0.00  0.00     0.028 C 
ATOM     10  C   LIG d   1      -1.819  75.655 118.491  0.00  0.00     0.006 C 
ENDBRANCH   8   9
BRANCH   8  11
ATOM     11  C   LIG d   1      -2.471  79.046 118.162  0.00  0.00     0.028 C 
ATOM     12  C   LIG d   1      -1.251  79.916 118.500  0.00  0.00     0.006 C 
ENDBRANCH   8  11
ENDBRANCH   7   8
ENDBRANCH   1   7
BRANCH   6  13
ATOM     13  N   LIG d   1      -0.674  76.515 114.280  0.00  0.00    -0.311 N 
ATOM     14  C   LIG d   1      -1.104  75.345 114.750  0.00  0.00     0.210 C 
ATOM     15  C   LIG d   1      -0.001  74.398 115.232  0.00  0.00     0.109 C 
ATOM     16  O   LIG d   1      -2.292  74.990 114.783  0.00  0.00    -0.276 OA
ATOM     17  H   LIG d   1       0.308  76.708 114.260  0.00  0.00     0.149 HD
ENDBRANCH   6  13
BRANCH   5  18
ATOM     18  N   LIG d   1      -0.948  77.347 111.353  0.00  0.00     0.381 N 
ATOM     19  H   LIG d   1      -1.782  76.799 111.286  0.00  0.00    -0.090 HD
ATOM     20  H   LIG d   1      -0.172  76.725 111.498  0.00  0.00    -0.090 HD
ATOM     21  H   LIG d   1      -0.814  77.866 110.514  0.00  0.00    -0.090 HD
ENDBRANCH   5  18
BRANCH   3  22
ATOM     22  C   LIG d   1      -2.544  81.602 112.865  0.00  0.00     0.382 C 
ATOM     23  O   LIG d   1      -3.586  82.143 113.306  0.00  0.00    -0.241 OA
ATOM     24  O   LIG d   1      -1.785  82.250 112.118  0.00  0.00    -0.241 OA
ENDBRANCH   3  22
TORSDOF 7
ENDMDL
MODEL 4
REMARK VINA RESULT:      -4.9      2.063      2.727
REMARK  7 active torsions:
REMARK  status: ('A' for Active; 'I' for Inactive)
REMARK    1  A    between atoms: C_2  and  C_3 
REMARK    2  A    between atoms: C_3  and  O_6 
REMARK    3  A    between atoms: C_3  and  C_4 
REMARK    4  A    between atoms: C_7  and  O_6 
REMARK    5  A    between atoms: C_9  and  C_10 
REMARK    6  A    between atoms: N_15  and  C_14 
REMARK    7  A    between atoms: N_20  and  C_19 
REMARK       I    between atoms: C_22  and  N_20 
ROOT
ATOM      1  C   LIG d   1      -0.090  80.137 112.927  0.00  0.00     0.161 C 
ATOM      2  C   LIG d   1      -1.151  79.614 112.169  0.00  0.00     0.016 C 
ATOM      3  C   LIG d   1      -2.056  78.645 112.660  0.00  0.00     0.038 C 
ATOM      4  C   LIG d   1      -2.052  78.242 114.004  0.00  0.00     0.028 C 
ATOM      5  C   LIG d   1      -0.686  78.366 114.670  0.00  0.00    -0.047 C 
ATOM      6  C   LIG d   1      -0.138  79.791 114.430  0.00  0.00     0.091 C 
ENDROOT
BRANCH   1   7
ATOM      7  O   LIG d   1      -0.016  81.565 112.744  0.00  0.00    -0.368 OA
BRANCH   7   8
ATOM      8  C   LIG d   1       1.132  82.053 112.006  0.00  0.00     0.119 C 
BRANCH   8   9
ATOM      9  C   LIG d   1       0.610  82.680 110.699  0.00  0.00     0.028 C 
ATOM     10  C   LIG d   1      -0.599  83.602 110.932  0.00  0.00     0.006 C 
ENDBRANCH   8   9
BRANCH   8  11
ATOM     11  C   LIG d   1       2.044  80.903 111.569  0.00  0.00     0.028 C 
ATOM     12  C   LIG d   1       2.190  80.807 110.042  0.00  0.00     0.006 C 
ENDBRANCH   8  11
ENDBRANCH   7   8
ENDBRANCH   1   7
BRANCH   6  13
ATOM     13  N   LIG d   1       1.232  79.972 114.977  0.00  0.00    -0.311 N 
ATOM     14  C   LIG d   1       1.477  80.406 116.212  0.00  0.00     0.210 C 
ATOM     15  C   LIG d   1       2.961  80.539 116.568  0.00  0.00     0.109 C 
ATOM     16  O   LIG d   1       0.606  80.663 117.057  0.00  0.00    -0.276 OA
ATOM     17  H   LIG d   1       1.997  79.756 114.369  0.00  0.00     0.149 HD
ENDBRANCH   6  13
BRANCH   5  18
ATOM     18  N   LIG d   1      -0.857  78.045 116.100  0.00  0.00     0.381 N 
ATOM     19  H   LIG d   1      -0.417  77.170 116.305  0.00  0.00    -0.090 HD
ATOM     20  H   LIG d   1      -1.838  77.960 116.299  0.00  0.00    -0.090 HD
ATOM     21  H   LIG d   1      -0.458  78.765 116.661  0.00  0.00    -0.090 HD
ENDBRANCH   5  18
BRANCH   3  22
ATOM     22  C   LIG d   1      -2.952  78.040 111.793  0.00  0.00     0.382 C 
ATOM     23  O   LIG d   1      -2.733  78.048 110.558  0.00  0.00    -0.241 OA
ATOM     24  O   LIG d   1      -4.000  77.524 112.227  0.00  0.00    -0.241 OA
ENDBRANCH   3  22
TORSDOF 7
ENDMDL
MODEL 5
REMARK VINA RESULT:      -4.8      4.059      6.619
REMARK  7 active torsions:
REMARK  status: ('A' for Active; 'I' for Inactive)
REMARK    1  A    between atoms: C_2  and  C_3 
REMARK    2  A    between atoms: C_3  and  O_6 
REMARK    3  A    between atoms: C_3  and  C_4 
REMARK    4  A    between atoms: C_7  and  O_6 
REMARK    5  A    between atoms: C_9  and  C_10 
REMARK    6  A    between atoms: N_15  and  C_14 
REMARK    7  A    between atoms: N_20  and  C_19 
REMARK       I    between atoms: C_22  and  N_20 
ROOT
ATOM      1  C   LIG d   1      -2.052  77.243 115.651  0.00  0.00     0.161 C 
ATOM      2  C   LIG d   1      -2.537  77.322 114.335  0.00  0.00     0.016 C 
ATOM      3  C   LIG d   1      -1.984  78.176 113.353  0.00  0.00     0.038 C 
ATOM      4  C   LIG d   1      -0.805  78.901 113.580  0.00  0.00     0.028 C 
ATOM      5  C   LIG d   1      -0.574  79.238 115.049  0.00  0.00    -0.047 C 
ATOM      6  C   LIG d   1      -0.698  77.944 115.885  0.00  0.00     0.091 C 
ENDROOT
BRANCH   1   7
ATOM      7  O   LIG d   1      -1.980  75.863 116.063  0.00  0.00    -0.368 OA
BRANCH   7   8
ATOM      8  C   LIG d   1      -0.666  75.254 116.023  0.00  0.00     0.119 C 
BRANCH   8   9
ATOM      9  C   LIG d   1      -0.683  74.186 114.913  0.00  0.00     0.028 C 
ATOM     10  C   LIG d   1       0.408  74.422 113.855  0.00  0.00     0.006 C 
ENDBRANCH   8   9
BRANCH   8  11
ATOM     11  C   LIG d   1      -0.367  74.490 117.316  0.00  0.00     0.028 C 
ATOM     12  C   LIG d   1      -1.462  74.668 118.380  0.00  0.00     0.006 C 
ENDBRANCH   8  11
ENDBRANCH   7   8
ENDBRANCH   1   7
BRANCH   6  13
ATOM     13  N   LIG d   1      -0.569  78.197 117.344  0.00  0.00    -0.311 N 
ATOM     14  C   LIG d   1       0.575  78.065 118.013  0.00  0.00     0.210 C 
ATOM     15  C   LIG d   1       0.484  78.356 119.514  0.00  0.00     0.109 C 
ATOM     16  O   LIG d   1       1.664  77.766 117.499  0.00  0.00    -0.276 OA
ATOM     17  H   LIG d   1      -1.397  78.475 117.834  0.00  0.00     0.149 HD
ENDBRANCH   6  13
BRANCH   5  18
ATOM     18  N   LIG d   1       0.754  79.871 115.157  0.00  0.00     0.381 N 
ATOM     19  H   LIG d   1       0.731  80.588 115.855  0.00  0.00    -0.090 HD
ATOM     20  H   LIG d   1       0.984  80.295 114.276  0.00  0.00    -0.090 HD
ATOM     21  H   LIG d   1       1.439  79.188 115.395  0.00  0.00    -0.090 HD
ENDBRANCH   5  18
BRANCH   3  22
ATOM     22  C   LIG d   1      -2.636  78.340 112.140  0.00  0.00     0.382 C 
ATOM     23  O   LIG d   1      -3.664  77.668 111.884  0.00  0.00    -0.241 OA
ATOM     24  O   LIG d   1      -2.184  79.120 111.280  0.00  0.00    -0.241 OA
ENDBRANCH   3  22
TORSDOF 7
ENDMDL
MODEL 6
REMARK VINA RESULT:      -4.7      2.177      4.805
REMARK  7 active torsions:
REMARK  status: ('A' for Active; 'I' for Inactive)
REMARK    1  A    between atoms: C_2  and  C_3 
REMARK    2  A    between atoms: C_3  and  O_6 
REMARK    3  A    between atoms: C_3  and  C_4 
REMARK    4  A    between atoms: C_7  and  O_6 
REMARK    5  A    between atoms: C_9  and  C_10 
REMARK    6  A    between atoms: N_15  and  C_14 
REMARK    7  A    between atoms: N_20  and  C_19 
REMARK       I    between atoms: C_22  and  N_20 
ROOT
ATOM      1  C   LIG d   1      -0.879  80.318 113.481  0.00  0.00     0.161 C 
ATOM      2  C   LIG d   1      -1.848  79.373 113.107  0.00  0.00     0.016 C 
ATOM      3  C   LIG d   1      -1.914  78.793 111.819  0.00  0.00     0.038 C 
ATOM      4  C   LIG d   1      -0.916  79.009 110.857  0.00  0.00     0.028 C 
ATOM      5  C   LIG d   1      -0.198  80.344 111.018  0.00  0.00    -0.047 C 
ATOM      6  C   LIG d   1       0.285  80.481 112.480  0.00  0.00     0.091 C 
ENDROOT
BRANCH   1   7
ATOM      7  O   LIG d   1      -0.370  80.004 114.792  0.00  0.00    -0.368 OA
BRANCH   7   8
ATOM      8  C   LIG d   1      -1.008  78.896 115.474  0.00  0.00     0.119 C 
BRANCH   8   9
ATOM      9  C   LIG d   1      -1.375  79.375 116.893  0.00  0.00     0.028 C 
ATOM     10  C   LIG d   1      -2.841  79.080 117.251  0.00  0.00     0.006 C 
ENDBRANCH   8   9
BRANCH   8  11
ATOM     11  C   LIG d   1      -0.033  77.733 115.679  0.00  0.00     0.028 C 
ATOM     12  C   LIG d   1      -0.513  76.431 115.018  0.00  0.00     0.006 C 
ENDBRANCH   8  11
ENDBRANCH   7   8
ENDBRANCH   1   7
BRANCH   6  13
ATOM     13  N   LIG d   1       0.924  81.797 112.744  0.00  0.00    -0.311 N 
ATOM     14  C   LIG d   1       2.235  82.009 112.641  0.00  0.00     0.210 C 
ATOM     15  C   LIG d   1       2.688  83.433 112.978  0.00  0.00     0.109 C 
ATOM     16  O   LIG d   1       3.061  81.161 112.272  0.00  0.00    -0.276 OA
ATOM     17  H   LIG d   1       0.323  82.549 113.019  0.00  0.00     0.149 HD
ENDBRANCH   6  13
BRANCH   5  18
ATOM     18  N   LIG d   1       0.905  80.377 110.039  0.00  0.00     0.381 N 
ATOM     19  H   LIG d   1       0.926  81.267 109.582  0.00  0.00    -0.090 HD
ATOM     20  H   LIG d   1       0.745  79.670 109.344  0.00  0.00    -0.090 HD
ATOM     21  H   LIG d   1       1.774  80.212 110.499  0.00  0.00    -0.090 HD
ENDBRANCH   5  18
BRANCH   3  22
ATOM     22  C   LIG d   1      -3.010  78.019 111.469  0.00  0.00     0.382 C 
ATOM     23  O   LIG d   1      -3.259  77.795 110.260  0.00  0.00    -0.241 OA
ATOM     24  O   LIG d   1      -3.778  77.578 112.345  0.00  0.00    -0.241 OA
ENDBRANCH   3  22
TORSDOF 7
ENDMDL
MODEL 7
REMARK VINA RESULT:      -4.4      2.027      2.744
REMARK  7 active torsions:
REMARK  status: ('A' for Active; 'I' for Inactive)
REMARK    1  A    between atoms: C_2  and  C_3 
REMARK    2  A    between atoms: C_3  and  O_6 
REMARK    3  A    between atoms: C_3  and  C_4 
REMARK    4  A    between atoms: C_7  and  O_6 
REMARK    5  A    between atoms: C_9  and  C_10 
REMARK    6  A    between atoms: N_15  and  C_14 
REMARK    7  A    between atoms: N_20  and  C_19 
REMARK       I    between atoms: C_22  and  N_20 
ROOT
ATOM      1  C   LIG d   1       2.303  81.040 112.712  0.00  0.00     0.161 C 
ATOM      2  C   LIG d   1       1.423  80.847 111.633  0.00  0.00     0.016 C 
ATOM      3  C   LIG d   1       0.101  80.370 111.784  0.00  0.00     0.038 C 
ATOM      4  C   LIG d   1      -0.486  80.196 113.047  0.00  0.00     0.028 C 
ATOM      5  C   LIG d   1       0.525  79.897 114.148  0.00  0.00    -0.047 C 
ATOM      6  C   LIG d   1       1.644  80.963 114.105  0.00  0.00     0.091 C 
ENDROOT
BRANCH   1   7
ATOM      7  O   LIG d   1       2.999  82.293 112.555  0.00  0.00    -0.368 OA
BRANCH   7   8
ATOM      8  C   LIG d   1       3.280  82.700 111.194  0.00  0.00     0.119 C 
BRANCH   8   9
ATOM      9  C   LIG d   1       4.736  82.304 110.883  0.00  0.00     0.028 C 
ATOM     10  C   LIG d   1       4.827  81.106 109.923  0.00  0.00     0.006 C 
ENDBRANCH   8   9
BRANCH   8  11
ATOM     11  C   LIG d   1       3.234  84.224 111.047  0.00  0.00     0.028 C 
ATOM     12  C   LIG d   1       2.460  84.680 109.800  0.00  0.00     0.006 C 
ENDBRANCH   8  11
ENDBRANCH   7   8
ENDBRANCH   1   7
BRANCH   6  13
ATOM     13  N   LIG d   1       2.720  80.696 115.096  0.00  0.00    -0.311 N 
ATOM     14  C   LIG d   1       2.714  81.188 116.334  0.00  0.00     0.210 C 
ATOM     15  C   LIG d   1       3.929  80.806 117.186  0.00  0.00     0.109 C 
ATOM     16  O   LIG d   1       1.803  81.877 116.817  0.00  0.00    -0.276 OA
ATOM     17  H   LIG d   1       3.482  80.120 114.797  0.00  0.00     0.149 HD
ENDBRANCH   6  13
BRANCH   5  18
ATOM     18  N   LIG d   1      -0.205  79.877 115.430  0.00  0.00     0.381 N 
ATOM     19  H   LIG d   1      -0.634  78.983 115.561  0.00  0.00    -0.090 HD
ATOM     20  H   LIG d   1      -0.928  80.574 115.403  0.00  0.00    -0.090 HD
ATOM     21  H   LIG d   1       0.421  80.066 116.182  0.00  0.00    -0.090 HD
ENDBRANCH   5  18
BRANCH   3  22
ATOM     22  C   LIG d   1      -0.637  80.023 110.662  0.00  0.00     0.382 C 
ATOM     23  O   LIG d   1      -1.617  79.247 110.771  0.00  0.00    -0.241 OA
ATOM     24  O   LIG d   1      -0.307  80.440 109.536  0.00  0.00    -0.241 OA
ENDBRANCH   3  22
TORSDOF 7
ENDMDL
MODEL 8
REMARK VINA RESULT:      -4.4      3.208      5.487
REMARK  7 active torsions:
REMARK  status: ('A' for Active; 'I' for Inactive)
REMARK    1  A    between atoms: C_2  and  C_3 
REMARK    2  A    between atoms: C_3  and  O_6 
REMARK    3  A    between atoms: C_3  and  C_4 
REMARK    4  A    between atoms: C_7  and  O_6 
REMARK    5  A    between atoms: C_9  and  C_10 
REMARK    6  A    between atoms: N_15  and  C_14 
REMARK    7  A    between atoms: N_20  and  C_19 
REMARK       I    between atoms: C_22  and  N_20 
ROOT
ATOM      1  C   LIG d   1      -1.248  79.885 114.356  0.00  0.00     0.161 C 
ATOM      2  C   LIG d   1      -2.054  78.806 114.755  0.00  0.00     0.016 C 
ATOM      3  C   LIG d   1      -2.618  77.879 113.848  0.00  0.00     0.038 C 
ATOM      4  C   LIG d   1      -2.288  77.881 112.485  0.00  0.00     0.028 C 
ATOM      5  C   LIG d   1      -1.881  79.254 111.962  0.00  0.00    -0.047 C 
ATOM      6  C   LIG d   1      -0.787  79.838 112.884  0.00  0.00     0.091 C 
ENDROOT
BRANCH   1   7
ATOM      7  O   LIG d   1      -0.111  79.997 115.234  0.00  0.00    -0.368 OA
BRANCH   7   8
ATOM      8  C   LIG d   1      -0.260  79.404 116.548  0.00  0.00     0.119 C 
BRANCH   8   9
ATOM      9  C   LIG d   1       0.236  80.435 117.580  0.00  0.00     0.028 C 
ATOM     10  C   LIG d   1      -0.583  80.403 118.882  0.00  0.00     0.006 C 
ENDBRANCH   8   9
BRANCH   8  11
ATOM     11  C   LIG d   1       0.655  78.188 116.717  0.00  0.00     0.028 C 
ATOM     12  C   LIG d   1      -0.081  76.961 117.279  0.00  0.00     0.006 C 
ENDBRANCH   8  11
ENDBRANCH   7   8
ENDBRANCH   1   7
BRANCH   6  13
ATOM     13  N   LIG d   1      -0.391  81.216 112.493  0.00  0.00    -0.311 N 
ATOM     14  C   LIG d   1      -1.267  82.194 112.269  0.00  0.00     0.210 C 
ATOM     15  C   LIG d   1      -0.648  83.534 111.856  0.00  0.00     0.109 C 
ATOM     16  O   LIG d   1      -2.495  82.089 112.404  0.00  0.00    -0.276 OA
ATOM     17  H   LIG d   1       0.588  81.398 112.390  0.00  0.00     0.149 HD
ENDBRANCH   6  13
BRANCH   5  18
ATOM     18  N   LIG d   1      -1.432  79.085 110.567  0.00  0.00     0.381 N 
ATOM     19  H   LIG d   1      -0.502  78.716 110.553  0.00  0.00    -0.090 HD
ATOM     20  H   LIG d   1      -1.421  79.983 110.117  0.00  0.00    -0.090 HD
ATOM     21  H   LIG d   1      -2.048  78.470 110.083  0.00  0.00    -0.090 HD
ENDBRANCH   5  18
BRANCH   3  22
ATOM     22  C   LIG d   1      -3.555  76.961 114.298  0.00  0.00     0.382 C 
ATOM     23  O   LIG d   1      -4.398  76.483 113.501  0.00  0.00    -0.241 OA
ATOM     24  O   LIG d   1      -3.596  76.638 115.500  0.00  0.00    -0.241 OA
ENDBRANCH   3  22
TORSDOF 7
ENDMDL
MODEL 9
REMARK VINA RESULT:      -4.3      2.384      6.163
REMARK  7 active torsions:
REMARK  status: ('A' for Active; 'I' for Inactive)
REMARK    1  A    between atoms: C_2  and  C_3 
REMARK    2  A    between atoms: C_3  and  O_6 
REMARK    3  A    between atoms: C_3  and  C_4 
REMARK    4  A    between atoms: C_7  and  O_6 
REMARK    5  A    between atoms: C_9  and  C_10 
REMARK    6  A    between atoms: N_15  and  C_14 
REMARK    7  A    between atoms: N_20  and  C_19 
REMARK       I    between atoms: C_22  and  N_20 
ROOT
ATOM      1  C   LIG d   1       0.991  80.444 112.974  0.00  0.00     0.161 C 
ATOM      2  C   LIG d   1       2.126  81.269 112.903  0.00  0.00     0.016 C 
ATOM      3  C   LIG d   1       2.443  82.061 111.776  0.00  0.00     0.038 C 
ATOM      4  C   LIG d   1       1.561  82.197 110.693  0.00  0.00     0.028 C 
ATOM      5  C   LIG d   1       0.647  80.992 110.502  0.00  0.00    -0.047 C 
ATOM      6  C   LIG d   1      -0.040  80.664 111.848  0.00  0.00     0.091 C 
ENDROOT
BRANCH   1   7
ATOM      7  O   LIG d   1       0.363  80.586 114.263  0.00  0.00    -0.368 OA
BRANCH   7   8
ATOM      8  C   LIG d   1       0.430  79.431 115.135  0.00  0.00     0.119 C 
BRANCH   8   9
ATOM      9  C   LIG d   1      -1.014  78.952 115.381  0.00  0.00     0.028 C 
ATOM     10  C   LIG d   1      -1.171  77.434 115.185  0.00  0.00     0.006 C 
ENDBRANCH   8   9
BRANCH   8  11
ATOM     11  C   LIG d   1       0.972  79.807 116.517  0.00  0.00     0.028 C 
ATOM     12  C   LIG d   1       2.294  80.588 116.446  0.00  0.00     0.006 C 
ENDBRANCH   8  11
ENDBRANCH   7   8
ENDBRANCH   1   7
BRANCH   6  13
ATOM     13  N   LIG d   1      -0.888  79.447 111.769  0.00  0.00    -0.311 N 
ATOM     14  C   LIG d   1      -2.183  79.434 112.082  0.00  0.00     0.210 C 
ATOM     15  C   LIG d   1      -2.866  78.069 111.951  0.00  0.00     0.109 C 
ATOM     16  O   LIG d   1      -2.838  80.429 112.425  0.00  0.00    -0.276 OA
ATOM     17  H   LIG d   1      -0.445  78.600 111.470  0.00  0.00     0.149 HD
ENDBRANCH   6  13
BRANCH   5  18
ATOM     18  N   LIG d   1      -0.311  81.324 109.430  0.00  0.00     0.381 N 
ATOM     19  H   LIG d   1      -0.437  80.533 108.831  0.00  0.00    -0.090 HD
ATOM     20  H   LIG d   1       0.065  82.078 108.882  0.00  0.00    -0.090 HD
ATOM     21  H   LIG d   1      -1.185  81.594 109.825  0.00  0.00    -0.090 HD
ENDBRANCH   5  18
BRANCH   3  22
ATOM     22  C   LIG d   1       3.674  82.696 111.706  0.00  0.00     0.382 C 
ATOM     23  O   LIG d   1       4.523  82.327 110.859  0.00  0.00    -0.241 OA
ATOM     24  O   LIG d   1       3.963  83.602 112.510  0.00  0.00    -0.241 OA
ENDBRANCH   3  22
TORSDOF 7
ENDMDL
