MODEL 1
REMARK VINA RESULT:      -5.3      0.000      0.000
REMARK  7 active torsions:
REMARK  status: ('A' for Active; 'I' for Inactive)
REMARK    1  A    between atoms: C_2  and  C_3 
REMARK    2  A    between atoms: C_3  and  O_6 
REMARK    3  A    between atoms: C_3  and  C_4 
REMARK    4  A    between atoms: C_7  and  O_6 
REMARK    5  A    between atoms: C_9  and  C_10 
REMARK    6  A    between atoms: N_15  and  C_14 
REMARK    7  A    between atoms: N_20  and  C_19 
REMARK       I    between atoms: C_22  and  N_20 
ROOT
ATOM      1  C   LIG d   1      -1.778  79.586 114.213  0.00  0.00     0.161 C 
ATOM      2  C   LIG d   1      -2.249  78.339 114.655  0.00  0.00     0.016 C 
ATOM      3  C   LIG d   1      -2.403  77.219 113.805  0.00  0.00     0.038 C 
ATOM      4  C   LIG d   1      -1.950  77.228 112.478  0.00  0.00     0.028 C 
ATOM      5  C   LIG d   1      -1.933  78.619 111.853  0.00  0.00    -0.047 C 
ATOM      6  C   LIG d   1      -1.173  79.582 112.793  0.00  0.00     0.091 C 
ENDROOT
BRANCH   1   7
ATOM      7  O   LIG d   1      -0.828  80.113 115.161  0.00  0.00    -0.368 OA
BRANCH   7   8
ATOM      8  C   LIG d   1      -0.644  79.343 116.374  0.00  0.00     0.119 C 
BRANCH   8   9
ATOM      9  C   LIG d   1      -1.096  80.223 117.555  0.00  0.00     0.028 C 
ATOM     10  C   LIG d   1      -2.503  79.856 118.055  0.00  0.00     0.006 C 
ENDBRANCH   8   9
BRANCH   8  11
ATOM     11  C   LIG d   1       0.838  79.051 116.630  0.00  0.00     0.028 C 
ATOM     12  C   LIG d   1       1.771  80.048 115.924  0.00  0.00     0.006 C 
ENDBRANCH   8  11
ENDBRANCH   7   8
ENDBRANCH   1   7
BRANCH   6  13
ATOM     13  N   LIG d   1      -1.182  80.983 112.297  0.00  0.00    -0.311 N 
ATOM     14  C   LIG d   1      -0.191  81.515 111.584  0.00  0.00     0.210 C 
ATOM     15  C   LIG d   1      -0.392  82.982 111.190  0.00  0.00     0.109 C 
ATOM     16  O   LIG d   1       0.821  80.902 111.213  0.00  0.00    -0.276 OA
ATOM     17  H   LIG d   1      -1.980  81.543 112.526  0.00  0.00     0.149 HD
ENDBRANCH   6  13
BRANCH   5  18
ATOM     18  N   LIG d   1      -1.311  78.501 110.521  0.00  0.00     0.381 N 
ATOM     19  H   LIG d   1      -1.973  78.753 109.814  0.00  0.00    -0.090 HD
ATOM     20  H   LIG d   1      -1.039  77.545 110.372  0.00  0.00    -0.090 HD
ATOM     21  H   LIG d   1      -0.512  79.094 110.464  0.00  0.00    -0.090 HD
ENDBRANCH   5  18
BRANCH   3  22
ATOM     22  C   LIG d   1      -3.054  76.087 114.272  0.00  0.00     0.382 C 
ATOM     23  O   LIG d   1      -2.418  75.222 114.921  0.00  0.00    -0.241 OA
ATOM     24  O   LIG d   1      -4.258  75.898 114.013  0.00  0.00    -0.241 OA
ENDBRANCH   3  22
TORSDOF 7
ENDMDL
MODEL 2
REMARK VINA RESULT:      -4.4      2.440      4.563
REMARK  7 active torsions:
REMARK  status: ('A' for Active; 'I' for Inactive)
REMARK    1  A    between atoms: C_2  and  C_3 
REMARK    2  A    between atoms: C_3  and  O_6 
REMARK    3  A    between atoms: C_3  and  C_4 
REMARK    4  A    between atoms: C_7  and  O_6 
REMARK    5  A    between atoms: C_9  and  C_10 
REMARK    6  A    between atoms: N_15  and  C_14 
REMARK    7  A    between atoms: N_20  and  C_19 
REMARK       I    between atoms: C_22  and  N_20 
ROOT
ATOM      1  C   LIG d   1      -2.321  77.769 114.523  0.00  0.00     0.161 C 
ATOM      2  C   LIG d   1      -3.243  76.717 114.656  0.00  0.00     0.016 C 
ATOM      3  C   LIG d   1      -3.287  75.859 115.779  0.00  0.00     0.038 C 
ATOM      4  C   LIG d   1      -2.506  76.091 116.921  0.00  0.00     0.028 C 
ATOM      5  C   LIG d   1      -1.208  76.836 116.626  0.00  0.00    -0.047 C 
ATOM      6  C   LIG d   1      -1.535  78.106 115.807  0.00  0.00     0.091 C 
ENDROOT
BRANCH   1   7
ATOM      7  O   LIG d   1      -2.989  78.944 114.022  0.00  0.00    -0.368 OA
BRANCH   7   8
ATOM      8  C   LIG d   1      -2.763  79.259 112.626  0.00  0.00     0.119 C 
BRANCH   8   9
ATOM      9  C   LIG d   1      -1.731  78.251 112.085  0.00  0.00     0.028 C 
ATOM     10  C   LIG d   1      -2.191  77.584 110.778  0.00  0.00     0.006 C 
ENDBRANCH   8   9
BRANCH   8  11
ATOM     11  C   LIG d   1      -2.109  80.635 112.465  0.00  0.00     0.028 C 
ATOM     12  C   LIG d   1      -0.594  80.550 112.222  0.00  0.00     0.006 C 
ENDBRANCH   8  11
ENDBRANCH   7   8
ENDBRANCH   1   7
BRANCH   6  13
ATOM     13  N   LIG d   1      -0.313  78.850 115.404  0.00  0.00    -0.311 N 
ATOM     14  C   LIG d   1       0.176  79.883 116.088  0.00  0.00     0.210 C 
ATOM     15  C   LIG d   1       1.434  80.519 115.487  0.00  0.00     0.109 C 
ATOM     16  O   LIG d   1      -0.293  80.312 117.153  0.00  0.00    -0.276 OA
ATOM     17  H   LIG d   1       0.150  78.549 114.568  0.00  0.00     0.149 HD
ENDBRANCH   6  13
BRANCH   5  18
ATOM     18  N   LIG d   1      -0.560  77.131 117.917  0.00  0.00     0.381 N 
ATOM     19  H   LIG d   1      -1.184  77.656 118.497  0.00  0.00    -0.090 HD
ATOM     20  H   LIG d   1       0.259  77.689 117.750  0.00  0.00    -0.090 HD
ATOM     21  H   LIG d   1      -0.306  76.283 118.373  0.00  0.00    -0.090 HD
ENDBRANCH   5  18
BRANCH   3  22
ATOM     22  C   LIG d   1      -4.093  74.731 115.750  0.00  0.00     0.382 C 
ATOM     23  O   LIG d   1      -4.440  74.181 116.823  0.00  0.00    -0.241 OA
ATOM     24  O   LIG d   1      -4.440  74.230 114.664  0.00  0.00    -0.241 OA
ENDBRANCH   3  22
TORSDOF 7
ENDMDL
MODEL 3
REMARK VINA RESULT:      -4.4      2.558      4.764
REMARK  7 active torsions:
REMARK  status: ('A' for Active; 'I' for Inactive)
REMARK    1  A    between atoms: C_2  and  C_3 
REMARK    2  A    between atoms: C_3  and  O_6 
REMARK    3  A    between atoms: C_3  and  C_4 
REMARK    4  A    between atoms: C_7  and  O_6 
REMARK    5  A    between atoms: C_9  and  C_10 
REMARK    6  A    between atoms: N_15  and  C_14 
REMARK    7  A    between atoms: N_20  and  C_19 
REMARK       I    between atoms: C_22  and  N_20 
ROOT
ATOM      1  C   LIG d   1      -1.714  77.499 114.781  0.00  0.00     0.161 C 
ATOM      2  C   LIG d   1      -2.757  76.558 114.798  0.00  0.00     0.016 C 
ATOM      3  C   LIG d   1      -3.108  75.806 115.943  0.00  0.00     0.038 C 
ATOM      4  C   LIG d   1      -2.533  76.054 117.198  0.00  0.00     0.028 C 
ATOM      5  C   LIG d   1      -1.128  76.641 117.116  0.00  0.00    -0.047 C 
ATOM      6  C   LIG d   1      -1.149  77.863 116.170  0.00  0.00     0.091 C 
ENDROOT
BRANCH   1   7
ATOM      7  O   LIG d   1      -2.139  78.687 114.085  0.00  0.00    -0.368 OA
BRANCH   7   8
ATOM      8  C   LIG d   1      -1.587  78.882 112.760  0.00  0.00     0.119 C 
BRANCH   8   9
ATOM      9  C   LIG d   1      -1.546  80.399 112.494  0.00  0.00     0.028 C 
ATOM     10  C   LIG d   1      -0.218  80.847 111.860  0.00  0.00     0.006 C 
ENDBRANCH   8   9
BRANCH   8  11
ATOM     11  C   LIG d   1      -2.511  78.306 111.682  0.00  0.00     0.028 C 
ATOM     12  C   LIG d   1      -1.794  77.315 110.751  0.00  0.00     0.006 C 
ENDBRANCH   8  11
ENDBRANCH   7   8
ENDBRANCH   1   7
BRANCH   6  13
ATOM     13  N   LIG d   1       0.203  78.446 115.967  0.00  0.00    -0.311 N 
ATOM     14  C   LIG d   1       0.485  79.732 116.170  0.00  0.00     0.210 C 
ATOM     15  C   LIG d   1       1.936  80.129 115.882  0.00  0.00     0.109 C 
ATOM     16  O   LIG d   1      -0.321  80.575 116.592  0.00  0.00    -0.276 OA
ATOM     17  H   LIG d   1       0.925  77.826 115.655  0.00  0.00     0.149 HD
ENDBRANCH   6  13
BRANCH   5  18
ATOM     18  N   LIG d   1      -0.704  76.978 118.488  0.00  0.00     0.381 N 
ATOM     19  H   LIG d   1       0.132  76.478 118.717  0.00  0.00    -0.090 HD
ATOM     20  H   LIG d   1      -1.425  76.698 119.129  0.00  0.00    -0.090 HD
ATOM     21  H   LIG d   1      -0.545  77.959 118.564  0.00  0.00    -0.090 HD
ENDBRANCH   5  18
BRANCH   3  22
ATOM     22  C   LIG d   1      -4.016  74.764 115.829  0.00  0.00     0.382 C 
ATOM     23  O   LIG d   1      -4.434  74.182 116.858  0.00  0.00    -0.241 OA
ATOM     24  O   LIG d   1      -4.388  74.370 114.707  0.00  0.00    -0.241 OA
ENDBRANCH   3  22
TORSDOF 7
ENDMDL
MODEL 4
REMARK VINA RESULT:      -4.1      1.677      4.717
REMARK  7 active torsions:
REMARK  status: ('A' for Active; 'I' for Inactive)
REMARK    1  A    between atoms: C_2  and  C_3 
REMARK    2  A    between atoms: C_3  and  O_6 
REMARK    3  A    between atoms: C_3  and  C_4 
REMARK    4  A    between atoms: C_7  and  O_6 
REMARK    5  A    between atoms: C_9  and  C_10 
REMARK    6  A    between atoms: N_15  and  C_14 
REMARK    7  A    between atoms: N_20  and  C_19 
REMARK       I    between atoms: C_22  and  N_20 
ROOT
ATOM      1  C   LIG d   1      -0.982  79.315 114.361  0.00  0.00     0.161 C 
ATOM      2  C   LIG d   1      -0.285  80.289 113.627  0.00  0.00     0.016 C 
ATOM      3  C   LIG d   1      -0.335  80.386 112.218  0.00  0.00     0.038 C 
ATOM      4  C   LIG d   1      -1.213  79.604 111.452  0.00  0.00     0.028 C 
ATOM      5  C   LIG d   1      -1.559  78.269 112.102  0.00  0.00    -0.047 C 
ATOM      6  C   LIG d   1      -2.031  78.524 113.551  0.00  0.00     0.091 C 
ENDROOT
BRANCH   1   7
ATOM      7  O   LIG d   1      -1.594  79.919 115.518  0.00  0.00    -0.368 OA
BRANCH   7   8
ATOM      8  C   LIG d   1      -1.087  79.488 116.805  0.00  0.00     0.119 C 
BRANCH   8   9
ATOM      9  C   LIG d   1      -2.289  78.997 117.634  0.00  0.00     0.028 C 
ATOM     10  C   LIG d   1      -2.220  77.489 117.931  0.00  0.00     0.006 C 
ENDBRANCH   8   9
BRANCH   8  11
ATOM     11  C   LIG d   1      -0.501  80.663 117.595  0.00  0.00     0.028 C 
ATOM     12  C   LIG d   1      -1.422  81.133 118.732  0.00  0.00     0.006 C 
ENDBRANCH   8  11
ENDBRANCH   7   8
ENDBRANCH   1   7
BRANCH   6  13
ATOM     13  N   LIG d   1      -2.310  77.263 114.287  0.00  0.00    -0.311 N 
ATOM     14  C   LIG d   1      -3.474  76.620 114.225  0.00  0.00     0.210 C 
ATOM     15  C   LIG d   1      -3.558  75.350 115.076  0.00  0.00     0.109 C 
ATOM     16  O   LIG d   1      -4.435  76.964 113.520  0.00  0.00    -0.276 OA
ATOM     17  H   LIG d   1      -1.574  76.897 114.859  0.00  0.00     0.149 HD
ENDBRANCH   6  13
BRANCH   5  18
ATOM     18  N   LIG d   1      -2.585  77.619 111.265  0.00  0.00     0.381 N 
ATOM     19  H   LIG d   1      -2.303  77.640 110.306  0.00  0.00    -0.090 HD
ATOM     20  H   LIG d   1      -3.446  78.129 111.352  0.00  0.00    -0.090 HD
ATOM     21  H   LIG d   1      -2.717  76.676 111.559  0.00  0.00    -0.090 HD
ENDBRANCH   5  18
BRANCH   3  22
ATOM     22  C   LIG d   1       0.528  81.247 111.557  0.00  0.00     0.382 C 
ATOM     23  O   LIG d   1       1.496  81.758 112.170  0.00  0.00    -0.241 OA
ATOM     24  O   LIG d   1       0.326  81.553 110.366  0.00  0.00    -0.241 OA
ENDBRANCH   3  22
TORSDOF 7
ENDMDL
MODEL 5
REMARK VINA RESULT:      -4.0      2.733      5.200
REMARK  7 active torsions:
REMARK  status: ('A' for Active; 'I' for Inactive)
REMARK    1  A    between atoms: C_2  and  C_3 
REMARK    2  A    between atoms: C_3  and  O_6 
REMARK    3  A    between atoms: C_3  and  C_4 
REMARK    4  A    between atoms: C_7  and  O_6 
REMARK    5  A    between atoms: C_9  and  C_10 
REMARK    6  A    between atoms: N_15  and  C_14 
REMARK    7  A    between atoms: N_20  and  C_19 
REMARK       I    between atoms: C_22  and  N_20 
ROOT
ATOM      1  C   LIG d   1      -1.142  78.517 115.768  0.00  0.00     0.161 C 
ATOM      2  C   LIG d   1      -1.255  79.442 114.716  0.00  0.00     0.016 C 
ATOM      3  C   LIG d   1      -2.148  79.282 113.632  0.00  0.00     0.038 C 
ATOM      4  C   LIG d   1      -3.102  78.254 113.602  0.00  0.00     0.028 C 
ATOM      5  C   LIG d   1      -2.684  77.016 114.389  0.00  0.00    -0.047 C 
ATOM      6  C   LIG d   1      -2.253  77.447 115.810  0.00  0.00     0.091 C 
ENDROOT
BRANCH   1   7
ATOM      7  O   LIG d   1      -1.071  79.215 117.027  0.00  0.00    -0.368 OA
BRANCH   7   8
ATOM      8  C   LIG d   1      -0.079  80.268 117.117  0.00  0.00     0.119 C 
BRANCH   8   9
ATOM      9  C   LIG d   1       1.294  79.595 117.310  0.00  0.00     0.028 C 
ATOM     10  C   LIG d   1       2.270  79.915 116.165  0.00  0.00     0.006 C 
ENDBRANCH   8   9
BRANCH   8  11
ATOM     11  C   LIG d   1      -0.290  81.126 118.368  0.00  0.00     0.028 C 
ATOM     12  C   LIG d   1       0.389  82.501 118.268  0.00  0.00     0.006 C 
ENDBRANCH   8  11
ENDBRANCH   7   8
ENDBRANCH   1   7
BRANCH   6  13
ATOM     13  N   LIG d   1      -1.749  76.307 116.619  0.00  0.00    -0.311 N 
ATOM     14  C   LIG d   1      -2.519  75.590 117.435  0.00  0.00     0.210 C 
ATOM     15  C   LIG d   1      -1.795  74.471 118.191  0.00  0.00     0.109 C 
ATOM     16  O   LIG d   1      -3.740  75.753 117.580  0.00  0.00    -0.276 OA
ATOM     17  H   LIG d   1      -0.776  76.085 116.538  0.00  0.00     0.149 HD
ENDBRANCH   6  13
BRANCH   5  18
ATOM     18  N   LIG d   1      -3.825  76.082 114.389  0.00  0.00     0.381 N 
ATOM     19  H   LIG d   1      -4.275  76.095 113.496  0.00  0.00    -0.090 HD
ATOM     20  H   LIG d   1      -4.490  76.381 115.081  0.00  0.00    -0.090 HD
ATOM     21  H   LIG d   1      -3.511  75.160 114.597  0.00  0.00    -0.090 HD
ENDBRANCH   5  18
BRANCH   3  22
ATOM     22  C   LIG d   1      -2.064  80.134 112.541  0.00  0.00     0.382 C 
ATOM     23  O   LIG d   1      -1.466  79.765 111.502  0.00  0.00    -0.241 OA
ATOM     24  O   LIG d   1      -2.541  81.283 112.599  0.00  0.00    -0.241 OA
ENDBRANCH   3  22
TORSDOF 7
ENDMDL
MODEL 6
REMARK VINA RESULT:      -3.9      3.254      6.566
REMARK  7 active torsions:
REMARK  status: ('A' for Active; 'I' for Inactive)
REMARK    1  A    between atoms: C_2  and  C_3 
REMARK    2  A    between atoms: C_3  and  O_6 
REMARK    3  A    between atoms: C_3  and  C_4 
REMARK    4  A    between atoms: C_7  and  O_6 
REMARK    5  A    between atoms: C_9  and  C_10 
REMARK    6  A    between atoms: N_15  and  C_14 
REMARK    7  A    between atoms: N_20  and  C_19 
REMARK       I    between atoms: C_22  and  N_20 
ROOT
ATOM      1  C   LIG d   1      -0.711  78.500 116.243  0.00  0.00     0.161 C 
ATOM      2  C   LIG d   1       0.031  79.498 115.590  0.00  0.00     0.016 C 
ATOM      3  C   LIG d   1       1.374  79.804 115.910  0.00  0.00     0.038 C 
ATOM      4  C   LIG d   1       2.118  79.024 116.807  0.00  0.00     0.028 C 
ATOM      5  C   LIG d   1       1.262  78.326 117.858  0.00  0.00    -0.047 C 
ATOM      6  C   LIG d   1       0.118  77.565 117.148  0.00  0.00     0.091 C 
ENDROOT
BRANCH   1   7
ATOM      7  O   LIG d   1      -1.454  77.731 115.276  0.00  0.00    -0.368 OA
BRANCH   7   8
ATOM      8  C   LIG d   1      -2.673  78.337 114.781  0.00  0.00     0.119 C 
BRANCH   8   9
ATOM      9  C   LIG d   1      -3.776  77.261 114.827  0.00  0.00     0.028 C 
ATOM     10  C   LIG d   1      -3.211  75.852 115.075  0.00  0.00     0.006 C 
ENDBRANCH   8   9
BRANCH   8  11
ATOM     11  C   LIG d   1      -2.545  78.723 113.305  0.00  0.00     0.028 C 
ATOM     12  C   LIG d   1      -2.631  80.241 113.076  0.00  0.00     0.006 C 
ENDBRANCH   8  11
ENDBRANCH   7   8
ENDBRANCH   1   7
BRANCH   6  13
ATOM     13  N   LIG d   1      -0.817  76.922 118.108  0.00  0.00    -0.311 N 
ATOM     14  C   LIG d   1      -1.129  75.628 118.072  0.00  0.00     0.210 C 
ATOM     15  C   LIG d   1      -2.128  75.175 119.142  0.00  0.00     0.109 C 
ATOM     16  O   LIG d   1      -0.650  74.807 117.277  0.00  0.00    -0.276 OA
ATOM     17  H   LIG d   1      -1.228  77.510 118.807  0.00  0.00     0.149 HD
ENDBRANCH   6  13
BRANCH   5  18
ATOM     18  N   LIG d   1       2.147  77.442 118.639  0.00  0.00     0.381 N 
ATOM     19  H   LIG d   1       2.430  76.663 118.078  0.00  0.00    -0.090 HD
ATOM     20  H   LIG d   1       1.638  77.090 119.432  0.00  0.00    -0.090 HD
ATOM     21  H   LIG d   1       2.948  77.947 118.947  0.00  0.00    -0.090 HD
ENDBRANCH   5  18
BRANCH   3  22
ATOM     22  C   LIG d   1       1.974  80.925 115.357  0.00  0.00     0.382 C 
ATOM     23  O   LIG d   1       1.580  81.365 114.250  0.00  0.00    -0.241 OA
ATOM     24  O   LIG d   1       2.932  81.476 115.930  0.00  0.00    -0.241 OA
ENDBRANCH   3  22
TORSDOF 7
ENDMDL
MODEL 7
REMARK VINA RESULT:      -3.9      2.771      5.342
REMARK  7 active torsions:
REMARK  status: ('A' for Active; 'I' for Inactive)
REMARK    1  A    between atoms: C_2  and  C_3 
REMARK    2  A    between atoms: C_3  and  O_6 
REMARK    3  A    between atoms: C_3  and  C_4 
REMARK    4  A    between atoms: C_7  and  O_6 
REMARK    5  A    between atoms: C_9  and  C_10 
REMARK    6  A    between atoms: N_15  and  C_14 
REMARK    7  A    between atoms: N_20  and  C_19 
REMARK       I    between atoms: C_22  and  N_20 
ROOT
ATOM      1  C   LIG d   1      -1.104  78.239 115.836  0.00  0.00     0.161 C 
ATOM      2  C   LIG d   1      -1.179  79.202 114.816  0.00  0.00     0.016 C 
ATOM      3  C   LIG d   1      -2.096  79.129 113.742  0.00  0.00     0.038 C 
ATOM      4  C   LIG d   1      -3.109  78.159 113.697  0.00  0.00     0.028 C 
ATOM      5  C   LIG d   1      -2.752  76.875 114.438  0.00  0.00    -0.047 C 
ATOM      6  C   LIG d   1      -2.275  77.234 115.864  0.00  0.00     0.091 C 
ENDROOT
BRANCH   1   7
ATOM      7  O   LIG d   1      -0.973  78.891 117.114  0.00  0.00    -0.368 OA
BRANCH   7   8
ATOM      8  C   LIG d   1      -1.858  80.014 117.351  0.00  0.00     0.119 C 
BRANCH   8   9
ATOM      9  C   LIG d   1      -1.104  81.018 118.244  0.00  0.00     0.028 C 
ATOM     10  C   LIG d   1      -0.458  80.346 119.467  0.00  0.00     0.006 C 
ENDBRANCH   8   9
BRANCH   8  11
ATOM     11  C   LIG d   1      -3.087  79.592 118.163  0.00  0.00     0.028 C 
ATOM     12  C   LIG d   1      -4.407  79.826 117.411  0.00  0.00     0.006 C 
ENDBRANCH   8  11
ENDBRANCH   7   8
ENDBRANCH   1   7
BRANCH   6  13
ATOM     13  N   LIG d   1      -1.826  76.042 116.628  0.00  0.00    -0.311 N 
ATOM     14  C   LIG d   1      -2.614  75.367 117.463  0.00  0.00     0.210 C 
ATOM     15  C   LIG d   1      -1.947  74.180 118.166  0.00  0.00     0.109 C 
ATOM     16  O   LIG d   1      -3.812  75.618 117.664  0.00  0.00    -0.276 OA
ATOM     17  H   LIG d   1      -0.877  75.750 116.502  0.00  0.00     0.149 HD
ENDBRANCH   6  13
BRANCH   5  18
ATOM     18  N   LIG d   1      -3.945  76.009 114.428  0.00  0.00     0.381 N 
ATOM     19  H   LIG d   1      -4.210  75.807 113.485  0.00  0.00    -0.090 HD
ATOM     20  H   LIG d   1      -4.704  76.496 114.872  0.00  0.00    -0.090 HD
ATOM     21  H   LIG d   1      -3.755  75.161 114.916  0.00  0.00    -0.090 HD
ENDBRANCH   5  18
BRANCH   3  22
ATOM     22  C   LIG d   1      -1.979  80.009 112.677  0.00  0.00     0.382 C 
ATOM     23  O   LIG d   1      -2.206  81.231 112.846  0.00  0.00    -0.241 OA
ATOM     24  O   LIG d   1      -1.693  79.590 111.539  0.00  0.00    -0.241 OA
ENDBRANCH   3  22
TORSDOF 7
ENDMDL
MODEL 8
REMARK VINA RESULT:      -3.9      2.807      5.113
REMARK  7 active torsions:
REMARK  status: ('A' for Active; 'I' for Inactive)
REMARK    1  A    between atoms: C_2  and  C_3 
REMARK    2  A    between atoms: C_3  and  O_6 
REMARK    3  A    between atoms: C_3  and  C_4 
REMARK    4  A    between atoms: C_7  and  O_6 
REMARK    5  A    between atoms: C_9  and  C_10 
REMARK    6  A    between atoms: N_15  and  C_14 
REMARK    7  A    between atoms: N_20  and  C_19 
REMARK       I    between atoms: C_22  and  N_20 
ROOT
ATOM      1  C   LIG d   1      -1.343  78.798 115.987  0.00  0.00     0.161 C 
ATOM      2  C   LIG d   1      -1.439  79.606 114.842  0.00  0.00     0.016 C 
ATOM      3  C   LIG d   1      -2.132  79.219 113.673  0.00  0.00     0.038 C 
ATOM      4  C   LIG d   1      -2.909  78.051 113.623  0.00  0.00     0.028 C 
ATOM      5  C   LIG d   1      -2.428  76.964 114.578  0.00  0.00    -0.047 C 
ATOM      6  C   LIG d   1      -2.276  77.569 115.992  0.00  0.00     0.091 C 
ENDROOT
BRANCH   1   7
ATOM      7  O   LIG d   1      -1.558  79.596 117.168  0.00  0.00    -0.368 OA
BRANCH   7   8
ATOM      8  C   LIG d   1      -0.411  79.777 118.034  0.00  0.00     0.119 C 
BRANCH   8   9
ATOM      9  C   LIG d   1      -0.018  81.266 117.978  0.00  0.00     0.028 C 
ATOM     10  C   LIG d   1       1.276  81.502 117.182  0.00  0.00     0.006 C 
ENDBRANCH   8   9
BRANCH   8  11
ATOM     11  C   LIG d   1       0.810  79.016 117.507  0.00  0.00     0.028 C 
ATOM     12  C   LIG d   1       1.319  77.951 118.492  0.00  0.00     0.006 C 
ENDBRANCH   8  11
ENDBRANCH   7   8
ENDBRANCH   1   7
BRANCH   6  13
ATOM     13  N   LIG d   1      -1.730  76.593 116.971  0.00  0.00    -0.311 N 
ATOM     14  C   LIG d   1      -2.494  75.842 117.762  0.00  0.00     0.210 C 
ATOM     15  C   LIG d   1      -1.728  74.916 118.712  0.00  0.00     0.109 C 
ATOM     16  O   LIG d   1      -3.734  75.831 117.744  0.00  0.00    -0.276 OA
ATOM     17  H   LIG d   1      -0.733  76.515 117.030  0.00  0.00     0.149 HD
ENDBRANCH   6  13
BRANCH   5  18
ATOM     18  N   LIG d   1      -3.405  75.860 114.524  0.00  0.00     0.381 N 
ATOM     19  H   LIG d   1      -3.377  75.426 113.623  0.00  0.00    -0.090 HD
ATOM     20  H   LIG d   1      -4.327  76.235 114.665  0.00  0.00    -0.090 HD
ATOM     21  H   LIG d   1      -3.201  75.188 115.231  0.00  0.00    -0.090 HD
ENDBRANCH   5  18
BRANCH   3  22
ATOM     22  C   LIG d   1      -2.020  79.984 112.522  0.00  0.00     0.382 C 
ATOM     23  O   LIG d   1      -2.337  81.198 112.543  0.00  0.00    -0.241 OA
ATOM     24  O   LIG d   1      -1.648  79.465 111.452  0.00  0.00    -0.241 OA
ENDBRANCH   3  22
TORSDOF 7
ENDMDL
MODEL 9
REMARK VINA RESULT:      -3.8      2.711      4.136
REMARK  7 active torsions:
REMARK  status: ('A' for Active; 'I' for Inactive)
REMARK    1  A    between atoms: C_2  and  C_3 
REMARK    2  A    between atoms: C_3  and  O_6 
REMARK    3  A    between atoms: C_3  and  C_4 
REMARK    4  A    between atoms: C_7  and  O_6 
REMARK    5  A    between atoms: C_9  and  C_10 
REMARK    6  A    between atoms: N_15  and  C_14 
REMARK    7  A    between atoms: N_20  and  C_19 
REMARK       I    between atoms: C_22  and  N_20 
ROOT
ATOM      1  C   LIG d   1      -2.440  79.279 115.755  0.00  0.00     0.161 C 
ATOM      2  C   LIG d   1      -2.865  79.229 117.093  0.00  0.00     0.016 C 
ATOM      3  C   LIG d   1      -3.618  78.160 117.631  0.00  0.00     0.038 C 
ATOM      4  C   LIG d   1      -3.869  76.989 116.901  0.00  0.00     0.028 C 
ATOM      5  C   LIG d   1      -3.895  77.210 115.392  0.00  0.00    -0.047 C 
ATOM      6  C   LIG d   1      -2.610  77.960 114.973  0.00  0.00     0.091 C 
ENDROOT
BRANCH   1   7
ATOM      7  O   LIG d   1      -1.071  79.726 115.693  0.00  0.00    -0.368 OA
BRANCH   7   8
ATOM      8  C   LIG d   1      -0.294  79.569 116.906  0.00  0.00     0.119 C 
BRANCH   8   9
ATOM      9  C   LIG d   1       0.768  80.685 116.922  0.00  0.00     0.028 C 
ATOM     10  C   LIG d   1       2.091  80.246 116.273  0.00  0.00     0.006 C 
ENDBRANCH   8   9
BRANCH   8  11
ATOM     11  C   LIG d   1       0.496  78.257 116.896  0.00  0.00     0.028 C 
ATOM     12  C   LIG d   1       0.066  77.294 118.014  0.00  0.00     0.006 C 
ENDBRANCH   8  11
ENDBRANCH   7   8
ENDBRANCH   1   7
BRANCH   6  13
ATOM     13  N   LIG d   1      -2.594  78.290 113.524  0.00  0.00    -0.311 N 
ATOM     14  C   LIG d   1      -2.088  77.482 112.594  0.00  0.00     0.210 C 
ATOM     15  C   LIG d   1      -2.154  78.024 111.162  0.00  0.00     0.109 C 
ATOM     16  O   LIG d   1      -1.620  76.355 112.814  0.00  0.00    -0.276 OA
ATOM     17  H   LIG d   1      -2.981  79.172 113.253  0.00  0.00     0.149 HD
ENDBRANCH   6  13
BRANCH   5  18
ATOM     18  N   LIG d   1      -4.029  75.888 114.751  0.00  0.00     0.381 N 
ATOM     19  H   LIG d   1      -3.230  75.708 114.176  0.00  0.00    -0.090 HD
ATOM     20  H   LIG d   1      -4.844  75.893 114.164  0.00  0.00    -0.090 HD
ATOM     21  H   LIG d   1      -4.114  75.179 115.446  0.00  0.00    -0.090 HD
ENDBRANCH   5  18
BRANCH   3  22
ATOM     22  C   LIG d   1      -4.162  78.274 118.901  0.00  0.00     0.382 C 
ATOM     23  O   LIG d   1      -4.429  77.243 119.564  0.00  0.00    -0.241 OA
ATOM     24  O   LIG d   1      -4.430  79.394 119.376  0.00  0.00    -0.241 OA
ENDBRANCH   3  22
TORSDOF 7
ENDMDL
